MODEL 1
REMARK VINA RESULT:      -7.9      0.000      0.000
REMARK  Name = 
REMARK  7 active torsions:
REMARK  status: ('A' for Active; 'I' for Inactive)
REMARK    1  A    between atoms: C_1  and  N_2
REMARK    2  A    between atoms: N_2  and  C_3
REMARK    3  A    between atoms: C_5  and  C_6
REMARK    4  A    between atoms: C_13  and  S_14
REMARK    5  A    between atoms: S_14  and  N_17
REMARK    6  A    between atoms: N_17  and  C_18
REMARK    7  A    between atoms: C_23  and  C_24
REMARK                            x       y       z     vdW  Elec       q    Type
REMARK                         _______ _______ _______ _____ _____    ______ ____
ROOT
ATOM      1  C   UNL     1       2.960   4.010  17.923  0.00  0.00    +0.000 A 
ATOM      2  C   UNL     1       2.337   5.127  18.509  0.00  0.00    +0.000 A 
ATOM      3  C   UNL     1       2.937   6.387  18.558  0.00  0.00    +0.000 A 
ATOM      4  C   UNL     1       4.203   6.526  18.003  0.00  0.00    +0.000 A 
ATOM      5  C   UNL     1       4.891   5.437  17.446  0.00  0.00    +0.000 A 
ATOM      6  C   UNL     1       4.289   4.150  17.414  0.00  0.00    +0.000 A 
ATOM      7  C   UNL     1       4.982   2.935  16.853  0.00  0.00    +0.000 C 
ENDROOT
BRANCH   3   8
ATOM      8  C   UNL     1       2.250   7.540  19.153  0.00  0.00    +0.000 A 
ATOM      9  C   UNL     1       1.853   8.634  18.495  0.00  0.00    +0.000 A 
ATOM     10  S   UNL     1       1.056   9.769  19.548  0.00  0.00    +0.000 S 
ATOM     11  C   UNL     1       1.282   8.690  20.931  0.00  0.00    +0.000 A 
ATOM     12  O   UNL     1       0.919   8.928  22.075  0.00  0.00    +0.000 OA
ATOM     13  N   UNL     1       1.931   7.572  20.491  0.00  0.00    +0.000 N 
ATOM     14  H   UNL     1       2.164   6.842  21.149  0.00  0.00    +0.000 HD
ENDBRANCH   3   8
BRANCH   1  16
ATOM     15  C   UNL     1       1.055   2.617  18.695  0.00  0.00    +0.000 C 
ATOM     16  N   UNL     1       2.285   2.778  17.922  0.00  0.00    +0.000 N 
ATOM     17  H   UNL     1       2.261   2.292  17.033  0.00  0.00    +0.000 HD
ENDBRANCH   1  16
BRANCH   5  18
ATOM     18  S   UNL     1       6.417   5.898  16.612  0.00  0.00    +0.000 S 
ATOM     19  O   UNL     1       6.651   7.293  16.894  0.00  0.00    +0.000 OA
ATOM     20  O   UNL     1       7.422   4.907  16.942  0.00  0.00    +0.000 OA
BRANCH  18  21
ATOM     21  N   UNL     1       6.141   5.794  14.965  0.00  0.00    +0.000 NA
ATOM     22  H   UNL     1       6.249   6.723  14.554  0.00  0.00    +0.000 HD
BRANCH  21  23
ATOM     23  C   UNL     1       6.627   4.665  14.155  0.00  0.00    +0.000 C 
ATOM     24  C   UNL     1       5.419   4.009  13.482  0.00  0.00    +0.000 C 
ATOM     25  C   UNL     1       5.994   3.238  12.307  0.00  0.00    +0.000 C 
ATOM     26  C   UNL     1       7.265   3.981  11.905  0.00  0.00    +0.000 C 
ATOM     27  C   UNL     1       7.491   5.063  12.957  0.00  0.00    +0.000 C 
ENDBRANCH  21  23
ENDBRANCH  18  21
ENDBRANCH   5  18
TORSDOF 5
ENDMDL
MODEL 2
REMARK VINA RESULT:      -7.7      1.115      1.225
REMARK  Name = 
REMARK  7 active torsions:
REMARK  status: ('A' for Active; 'I' for Inactive)
REMARK    1  A    between atoms: C_1  and  N_2
REMARK    2  A    between atoms: N_2  and  C_3
REMARK    3  A    between atoms: C_5  and  C_6
REMARK    4  A    between atoms: C_13  and  S_14
REMARK    5  A    between atoms: S_14  and  N_17
REMARK    6  A    between atoms: N_17  and  C_18
REMARK    7  A    between atoms: C_23  and  C_24
REMARK                            x       y       z     vdW  Elec       q    Type
REMARK                         _______ _______ _______ _____ _____    ______ ____
ROOT
ATOM      1  C   UNL     1       2.876   4.099  17.762  0.00  0.00    +0.000 A 
ATOM      2  C   UNL     1       2.249   5.229  18.319  0.00  0.00    +0.000 A 
ATOM      3  C   UNL     1       2.870   6.477  18.394  0.00  0.00    +0.000 A 
ATOM      4  C   UNL     1       4.162   6.591  17.894  0.00  0.00    +0.000 A 
ATOM      5  C   UNL     1       4.853   5.489  17.369  0.00  0.00    +0.000 A 
ATOM      6  C   UNL     1       4.229   4.214  17.312  0.00  0.00    +0.000 A 
ATOM      7  C   UNL     1       4.922   2.985  16.781  0.00  0.00    +0.000 C 
ENDROOT
BRANCH   3   8
ATOM      8  C   UNL     1       2.180   7.643  18.958  0.00  0.00    +0.000 A 
ATOM      9  C   UNL     1       1.766   7.766  20.223  0.00  0.00    +0.000 A 
ATOM     10  S   UNL     1       1.008   9.308  20.509  0.00  0.00    +0.000 S 
ATOM     11  C   UNL     1       1.279   9.786  18.828  0.00  0.00    +0.000 A 
ATOM     12  O   UNL     1       0.941  10.855  18.338  0.00  0.00    +0.000 OA
ATOM     13  N   UNL     1       1.915   8.757  18.195  0.00  0.00    +0.000 N 
ATOM     14  H   UNL     1       2.141   8.842  17.214  0.00  0.00    +0.000 HD
ENDBRANCH   3   8
BRANCH   1  16
ATOM     15  C   UNL     1       1.806   2.219  18.981  0.00  0.00    +0.000 C 
ATOM     16  N   UNL     1       2.178   2.881  17.732  0.00  0.00    +0.000 N 
ATOM     17  H   UNL     1       1.468   2.800  17.013  0.00  0.00    +0.000 HD
ENDBRANCH   1  16
BRANCH   5  18
ATOM     18  S   UNL     1       6.422   5.920  16.602  0.00  0.00    +0.000 S 
ATOM     19  O   UNL     1       6.680   7.305  16.911  0.00  0.00    +0.000 OA
ATOM     20  O   UNL     1       7.387   4.899  16.958  0.00  0.00    +0.000 OA
BRANCH  18  21
ATOM     21  N   UNL     1       6.209   5.844  14.944  0.00  0.00    +0.000 NA
ATOM     22  H   UNL     1       6.388   6.767  14.546  0.00  0.00    +0.000 HD
BRANCH  21  23
ATOM     23  C   UNL     1       6.662   4.693  14.144  0.00  0.00    +0.000 C 
ATOM     24  C   UNL     1       5.431   4.050  13.500  0.00  0.00    +0.000 C 
ATOM     25  C   UNL     1       5.974   3.251  12.328  0.00  0.00    +0.000 C 
ATOM     26  C   UNL     1       7.252   3.964  11.895  0.00  0.00    +0.000 C 
ATOM     27  C   UNL     1       7.514   5.057  12.927  0.00  0.00    +0.000 C 
ENDBRANCH  21  23
ENDBRANCH  18  21
ENDBRANCH   5  18
TORSDOF 5
ENDMDL
MODEL 3
REMARK VINA RESULT:      -7.5      1.589      1.880
REMARK  Name = 
REMARK  7 active torsions:
REMARK  status: ('A' for Active; 'I' for Inactive)
REMARK    1  A    between atoms: C_1  and  N_2
REMARK    2  A    between atoms: N_2  and  C_3
REMARK    3  A    between atoms: C_5  and  C_6
REMARK    4  A    between atoms: C_13  and  S_14
REMARK    5  A    between atoms: S_14  and  N_17
REMARK    6  A    between atoms: N_17  and  C_18
REMARK    7  A    between atoms: C_23  and  C_24
REMARK                            x       y       z     vdW  Elec       q    Type
REMARK                         _______ _______ _______ _____ _____    ______ ____
ROOT
ATOM      1  C   UNL     1       2.249   3.952  19.977  0.00  0.00    +0.000 A 
ATOM      2  C   UNL     1       1.742   5.228  20.289  0.00  0.00    +0.000 A 
ATOM      3  C   UNL     1       2.389   6.408  19.917  0.00  0.00    +0.000 A 
ATOM      4  C   UNL     1       3.581   6.302  19.211  0.00  0.00    +0.000 A 
ATOM      5  C   UNL     1       4.155   5.057  18.911  0.00  0.00    +0.000 A 
ATOM      6  C   UNL     1       3.509   3.856  19.308  0.00  0.00    +0.000 A 
ATOM      7  C   UNL     1       4.083   2.489  19.039  0.00  0.00    +0.000 C 
ENDROOT
BRANCH   3   8
ATOM      8  C   UNL     1       1.822   7.724  20.234  0.00  0.00    +0.000 A 
ATOM      9  C   UNL     1       1.459   8.651  19.342  0.00  0.00    +0.000 A 
ATOM     10  S   UNL     1       0.811  10.073  20.112  0.00  0.00    +0.000 S 
ATOM     11  C   UNL     1       1.053   9.353  21.710  0.00  0.00    +0.000 A 
ATOM     12  O   UNL     1       0.781   9.895  22.773  0.00  0.00    +0.000 OA
ATOM     13  N   UNL     1       1.594   8.111  21.535  0.00  0.00    +0.000 N 
ATOM     14  H   UNL     1       1.818   7.550  22.344  0.00  0.00    +0.000 HD
ENDBRANCH   3   8
BRANCH   1  16
ATOM     15  C   UNL     1       1.413   2.513  21.820  0.00  0.00    +0.000 C 
ATOM     16  N   UNL     1       1.534   2.818  20.395  0.00  0.00    +0.000 N 
ATOM     17  H   UNL     1       0.691   2.613  19.872  0.00  0.00    +0.000 HD
ENDBRANCH   1  16
BRANCH   5  18
ATOM     18  S   UNL     1       5.582   5.166  17.821  0.00  0.00    +0.000 S 
ATOM     19  O   UNL     1       5.719   6.548  17.434  0.00  0.00    +0.000 OA
ATOM     20  O   UNL     1       6.684   4.473  18.458  0.00  0.00    +0.000 OA
BRANCH  18  21
ATOM     21  N   UNL     1       5.212   4.325  16.422  0.00  0.00    +0.000 NA
ATOM     22  H   UNL     1       4.261   3.958  16.501  0.00  0.00    +0.000 HD
BRANCH  21  23
ATOM     23  C   UNL     1       5.617   4.797  15.088  0.00  0.00    +0.000 C 
ATOM     24  C   UNL     1       7.145   4.880  15.058  0.00  0.00    +0.000 C 
ATOM     25  C   UNL     1       7.511   4.853  13.585  0.00  0.00    +0.000 C 
ATOM     26  C   UNL     1       6.392   4.079  12.893  0.00  0.00    +0.000 C 
ATOM     27  C   UNL     1       5.321   3.822  13.948  0.00  0.00    +0.000 C 
ENDBRANCH  21  23
ENDBRANCH  18  21
ENDBRANCH   5  18
TORSDOF 5
ENDMDL
MODEL 4
REMARK VINA RESULT:      -7.2      1.687      1.987
REMARK  Name = 
REMARK  7 active torsions:
REMARK  status: ('A' for Active; 'I' for Inactive)
REMARK    1  A    between atoms: C_1  and  N_2
REMARK    2  A    between atoms: N_2  and  C_3
REMARK    3  A    between atoms: C_5  and  C_6
REMARK    4  A    between atoms: C_13  and  S_14
REMARK    5  A    between atoms: S_14  and  N_17
REMARK    6  A    between atoms: N_17  and  C_18
REMARK    7  A    between atoms: C_23  and  C_24
REMARK                            x       y       z     vdW  Elec       q    Type
REMARK                         _______ _______ _______ _____ _____    ______ ____
ROOT
ATOM      1  C   UNL     1       2.549   4.188  19.693  0.00  0.00    +0.000 A 
ATOM      2  C   UNL     1       1.924   5.449  19.676  0.00  0.00    +0.000 A 
ATOM      3  C   UNL     1       2.612   6.629  19.392  0.00  0.00    +0.000 A 
ATOM      4  C   UNL     1       3.972   6.539  19.117  0.00  0.00    +0.000 A 
ATOM      5  C   UNL     1       4.656   5.315  19.164  0.00  0.00    +0.000 A 
ATOM      6  C   UNL     1       3.960   4.116  19.474  0.00  0.00    +0.000 A 
ATOM      7  C   UNL     1       4.639   2.773  19.564  0.00  0.00    +0.000 C 
ENDROOT
BRANCH   3   8
ATOM      8  C   UNL     1       1.927   7.926  19.356  0.00  0.00    +0.000 A 
ATOM      9  C   UNL     1       1.803   8.713  18.282  0.00  0.00    +0.000 A 
ATOM     10  S   UNL     1       0.904  10.160  18.638  0.00  0.00    +0.000 S 
ATOM     11  C   UNL     1       0.697   9.653  20.320  0.00  0.00    +0.000 A 
ATOM     12  O   UNL     1       0.106  10.292  21.180  0.00  0.00    +0.000 OA
ATOM     13  N   UNL     1       1.314   8.444  20.474  0.00  0.00    +0.000 N 
ATOM     14  H   UNL     1       1.314   7.999  21.381  0.00  0.00    +0.000 HD
ENDBRANCH   3   8
BRANCH   1  16
ATOM     15  C   UNL     1       1.368   2.792  21.373  0.00  0.00    +0.000 C 
ATOM     16  N   UNL     1       1.779   3.052  19.995  0.00  0.00    +0.000 N 
ATOM     17  H   UNL     1       1.066   2.813  19.315  0.00  0.00    +0.000 HD
ENDBRANCH   1  16
BRANCH   5  18
ATOM     18  S   UNL     1       6.354   5.416  18.577  0.00  0.00    +0.000 S 
ATOM     19  O   UNL     1       6.528   6.727  18.002  0.00  0.00    +0.000 OA
ATOM     20  O   UNL     1       7.222   4.965  19.645  0.00  0.00    +0.000 OA
BRANCH  18  21
ATOM     21  N   UNL     1       6.515   4.329  17.315  0.00  0.00    +0.000 NA
ATOM     22  H   UNL     1       6.240   3.401  17.643  0.00  0.00    +0.000 HD
BRANCH  21  23
ATOM     23  C   UNL     1       6.142   4.666  15.932  0.00  0.00    +0.000 C 
ATOM     24  C   UNL     1       7.422   5.005  15.164  0.00  0.00    +0.000 C 
ATOM     25  C   UNL     1       7.060   4.830  13.700  0.00  0.00    +0.000 C 
ATOM     26  C   UNL     1       5.949   3.783  13.669  0.00  0.00    +0.000 C 
ATOM     27  C   UNL     1       5.575   3.500  15.121  0.00  0.00    +0.000 C 
ENDBRANCH  21  23
ENDBRANCH  18  21
ENDBRANCH   5  18
TORSDOF 5
ENDMDL
MODEL 5
REMARK VINA RESULT:      -7.2      1.884      2.251
REMARK  Name = 
REMARK  7 active torsions:
REMARK  status: ('A' for Active; 'I' for Inactive)
REMARK    1  A    between atoms: C_1  and  N_2
REMARK    2  A    between atoms: N_2  and  C_3
REMARK    3  A    between atoms: C_5  and  C_6
REMARK    4  A    between atoms: C_13  and  S_14
REMARK    5  A    between atoms: S_14  and  N_17
REMARK    6  A    between atoms: N_17  and  C_18
REMARK    7  A    between atoms: C_23  and  C_24
REMARK                            x       y       z     vdW  Elec       q    Type
REMARK                         _______ _______ _______ _____ _____    ______ ____
ROOT
ATOM      1  C   UNL     1       2.142   4.076  20.067  0.00  0.00    +0.000 A 
ATOM      2  C   UNL     1       1.624   5.365  20.297  0.00  0.00    +0.000 A 
ATOM      3  C   UNL     1       2.282   6.526  19.887  0.00  0.00    +0.000 A 
ATOM      4  C   UNL     1       3.497   6.387  19.227  0.00  0.00    +0.000 A 
ATOM      5  C   UNL     1       4.082   5.130  19.011  0.00  0.00    +0.000 A 
ATOM      6  C   UNL     1       3.424   3.949  19.447  0.00  0.00    +0.000 A 
ATOM      7  C   UNL     1       4.008   2.571  19.267  0.00  0.00    +0.000 C 
ENDROOT
BRANCH   3   8
ATOM      8  C   UNL     1       1.704   7.855  20.118  0.00  0.00    +0.000 A 
ATOM      9  C   UNL     1       1.269   8.322  21.293  0.00  0.00    +0.000 A 
ATOM     10  S   UNL     1       0.672   9.952  21.163  0.00  0.00    +0.000 S 
ATOM     11  C   UNL     1       1.039   9.979  19.432  0.00  0.00    +0.000 A 
ATOM     12  O   UNL     1       0.830  10.924  18.684  0.00  0.00    +0.000 OA
ATOM     13  N   UNL     1       1.580   8.770  19.098  0.00  0.00    +0.000 N 
ATOM     14  H   UNL     1       1.840   8.592  18.139  0.00  0.00    +0.000 HD
ENDBRANCH   3   8
BRANCH   1  16
ATOM     15  C   UNL     1       1.576   2.491  21.893  0.00  0.00    +0.000 C 
ATOM     16  N   UNL     1       1.415   2.962  20.519  0.00  0.00    +0.000 N 
ATOM     17  H   UNL     1       0.459   2.898  20.187  0.00  0.00    +0.000 HD
ENDBRANCH   1  16
BRANCH   5  18
ATOM     18  S   UNL     1       5.544   5.186  17.964  0.00  0.00    +0.000 S 
ATOM     19  O   UNL     1       5.712   6.555  17.541  0.00  0.00    +0.000 OA
ATOM     20  O   UNL     1       6.615   4.500  18.658  0.00  0.00    +0.000 OA
BRANCH  18  21
ATOM     21  N   UNL     1       5.207   4.307  16.581  0.00  0.00    +0.000 NA
ATOM     22  H   UNL     1       4.274   3.901  16.668  0.00  0.00    +0.000 HD
BRANCH  21  23
ATOM     23  C   UNL     1       5.589   4.774  15.238  0.00  0.00    +0.000 C 
ATOM     24  C   UNL     1       7.113   4.905  15.197  0.00  0.00    +0.000 C 
ATOM     25  C   UNL     1       7.471   4.871  13.722  0.00  0.00    +0.000 C 
ATOM     26  C   UNL     1       6.373   4.052  13.047  0.00  0.00    +0.000 C 
ATOM     27  C   UNL     1       5.317   3.775  14.113  0.00  0.00    +0.000 C 
ENDBRANCH  21  23
ENDBRANCH  18  21
ENDBRANCH   5  18
TORSDOF 5
ENDMDL
MODEL 6
REMARK VINA RESULT:      -7.0      1.034      1.332
REMARK  Name = 
REMARK  7 active torsions:
REMARK  status: ('A' for Active; 'I' for Inactive)
REMARK    1  A    between atoms: C_1  and  N_2
REMARK    2  A    between atoms: N_2  and  C_3
REMARK    3  A    between atoms: C_5  and  C_6
REMARK    4  A    between atoms: C_13  and  S_14
REMARK    5  A    between atoms: S_14  and  N_17
REMARK    6  A    between atoms: N_17  and  C_18
REMARK    7  A    between atoms: C_23  and  C_24
REMARK                            x       y       z     vdW  Elec       q    Type
REMARK                         _______ _______ _______ _____ _____    ______ ____
ROOT
ATOM      1  C   UNL     1       2.393   4.214  17.957  0.00  0.00    +0.000 A 
ATOM      2  C   UNL     1       1.890   5.499  18.231  0.00  0.00    +0.000 A 
ATOM      3  C   UNL     1       2.713   6.618  18.372  0.00  0.00    +0.000 A 
ATOM      4  C   UNL     1       4.084   6.438  18.234  0.00  0.00    +0.000 A 
ATOM      5  C   UNL     1       4.645   5.172  18.005  0.00  0.00    +0.000 A 
ATOM      6  C   UNL     1       3.809   4.030  17.883  0.00  0.00    +0.000 A 
ATOM      7  C   UNL     1       4.348   2.640  17.660  0.00  0.00    +0.000 C 
ENDROOT
BRANCH   3   8
ATOM      8  C   UNL     1       2.156   7.951  18.632  0.00  0.00    +0.000 A 
ATOM      9  C   UNL     1       2.057   8.941  17.740  0.00  0.00    +0.000 A 
ATOM     10  S   UNL     1       1.321  10.362  18.427  0.00  0.00    +0.000 S 
ATOM     11  C   UNL     1       1.149   9.552  19.991  0.00  0.00    +0.000 A 
ATOM     12  O   UNL     1       0.667  10.058  20.995  0.00  0.00    +0.000 OA
ATOM     13  N   UNL     1       1.652   8.288  19.867  0.00  0.00    +0.000 N 
ATOM     14  H   UNL     1       1.654   7.675  20.670  0.00  0.00    +0.000 HD
ENDBRANCH   3   8
BRANCH   1  16
ATOM     15  C   UNL     1       0.851   2.588  19.026  0.00  0.00    +0.000 C 
ATOM     16  N   UNL     1       1.492   3.143  17.836  0.00  0.00    +0.000 N 
ATOM     17  H   UNL     1       0.874   3.178  17.032  0.00  0.00    +0.000 HD
ENDBRANCH   1  16
BRANCH   5  18
ATOM     18  S   UNL     1       6.410   5.218  17.661  0.00  0.00    +0.000 S 
ATOM     19  O   UNL     1       6.726   6.558  17.232  0.00  0.00    +0.000 OA
ATOM     20  O   UNL     1       7.100   4.630  18.792  0.00  0.00    +0.000 OA
BRANCH  18  21
ATOM     21  N   UNL     1       6.691   4.227  16.342  0.00  0.00    +0.000 NA
ATOM     22  H   UNL     1       6.518   3.258  16.615  0.00  0.00    +0.000 HD
BRANCH  21  23
ATOM     23  C   UNL     1       6.285   4.600  14.976  0.00  0.00    +0.000 C 
ATOM     24  C   UNL     1       7.553   4.874  14.163  0.00  0.00    +0.000 C 
ATOM     25  C   UNL     1       7.126   4.735  12.712  0.00  0.00    +0.000 C 
ATOM     26  C   UNL     1       5.957   3.753  12.715  0.00  0.00    +0.000 C 
ATOM     27  C   UNL     1       5.622   3.477  14.178  0.00  0.00    +0.000 C 
ENDBRANCH  21  23
ENDBRANCH  18  21
ENDBRANCH   5  18
TORSDOF 5
ENDMDL
MODEL 7
REMARK VINA RESULT:      -7.0      2.791      3.432
REMARK  Name = 
REMARK  7 active torsions:
REMARK  status: ('A' for Active; 'I' for Inactive)
REMARK    1  A    between atoms: C_1  and  N_2
REMARK    2  A    between atoms: N_2  and  C_3
REMARK    3  A    between atoms: C_5  and  C_6
REMARK    4  A    between atoms: C_13  and  S_14
REMARK    5  A    between atoms: S_14  and  N_17
REMARK    6  A    between atoms: N_17  and  C_18
REMARK    7  A    between atoms: C_23  and  C_24
REMARK                            x       y       z     vdW  Elec       q    Type
REMARK                         _______ _______ _______ _____ _____    ______ ____
ROOT
ATOM      1  C   UNL     1       2.744   4.150  20.769  0.00  0.00    +0.000 A 
ATOM      2  C   UNL     1       2.227   5.454  20.887  0.00  0.00    +0.000 A 
ATOM      3  C   UNL     1       2.456   6.446  19.932  0.00  0.00    +0.000 A 
ATOM      4  C   UNL     1       3.230   6.118  18.826  0.00  0.00    +0.000 A 
ATOM      5  C   UNL     1       3.809   4.848  18.678  0.00  0.00    +0.000 A 
ATOM      6  C   UNL     1       3.594   3.844  19.660  0.00  0.00    +0.000 A 
ATOM      7  C   UNL     1       4.205   2.469  19.574  0.00  0.00    +0.000 C 
ENDROOT
BRANCH   3   8
ATOM      8  C   UNL     1       1.881   7.790  20.070  0.00  0.00    +0.000 A 
ATOM      9  C   UNL     1       1.602   8.624  19.064  0.00  0.00    +0.000 A 
ATOM     10  S   UNL     1       0.910  10.117  19.634  0.00  0.00    +0.000 S 
ATOM     11  C   UNL     1       1.014   9.560  21.310  0.00  0.00    +0.000 A 
ATOM     12  O   UNL     1       0.664  10.206  22.288  0.00  0.00    +0.000 OA
ATOM     13  N   UNL     1       1.553   8.305  21.303  0.00  0.00    +0.000 N 
ATOM     14  H   UNL     1       1.705   7.826  22.179  0.00  0.00    +0.000 HD
ENDBRANCH   3   8
BRANCH   1  16
ATOM     15  C   UNL     1       1.248   2.413  21.721  0.00  0.00    +0.000 C 
ATOM     16  N   UNL     1       2.468   3.216  21.780  0.00  0.00    +0.000 N 
ATOM     17  H   UNL     1       3.267   2.700  22.131  0.00  0.00    +0.000 HD
ENDBRANCH   1  16
BRANCH   5  18
ATOM     18  S   UNL     1       4.593   4.595  17.078  0.00  0.00    +0.000 S 
ATOM     19  O   UNL     1       3.942   3.467  16.459  0.00  0.00    +0.000 OA
ATOM     20  O   UNL     1       4.642   5.874  16.399  0.00  0.00    +0.000 OA
BRANCH  18  21
ATOM     21  N   UNL     1       6.173   4.124  17.362  0.00  0.00    +0.000 NA
ATOM     22  H   UNL     1       6.380   3.302  16.791  0.00  0.00    +0.000 HD
BRANCH  21  23
ATOM     23  C   UNL     1       7.268   5.095  17.522  0.00  0.00    +0.000 C 
ATOM     24  C   UNL     1       6.842   6.405  16.855  0.00  0.00    +0.000 C 
ATOM     25  C   UNL     1       7.726   7.470  17.480  0.00  0.00    +0.000 C 
ATOM     26  C   UNL     1       8.074   6.955  18.874  0.00  0.00    +0.000 C 
ATOM     27  C   UNL     1       7.528   5.533  18.963  0.00  0.00    +0.000 C 
ENDBRANCH  21  23
ENDBRANCH  18  21
ENDBRANCH   5  18
TORSDOF 5
ENDMDL
MODEL 8
REMARK VINA RESULT:      -6.9      0.865      1.261
REMARK  Name = 
REMARK  7 active torsions:
REMARK  status: ('A' for Active; 'I' for Inactive)
REMARK    1  A    between atoms: C_1  and  N_2
REMARK    2  A    between atoms: N_2  and  C_3
REMARK    3  A    between atoms: C_5  and  C_6
REMARK    4  A    between atoms: C_13  and  S_14
REMARK    5  A    between atoms: S_14  and  N_17
REMARK    6  A    between atoms: N_17  and  C_18
REMARK    7  A    between atoms: C_23  and  C_24
REMARK                            x       y       z     vdW  Elec       q    Type
REMARK                         _______ _______ _______ _____ _____    ______ ____
ROOT
ATOM      1  C   UNL     1       2.852   4.304  18.718  0.00  0.00    +0.000 A 
ATOM      2  C   UNL     1       2.240   5.412  19.334  0.00  0.00    +0.000 A 
ATOM      3  C   UNL     1       2.628   6.728  19.077  0.00  0.00    +0.000 A 
ATOM      4  C   UNL     1       3.662   6.936  18.173  0.00  0.00    +0.000 A 
ATOM      5  C   UNL     1       4.338   5.868  17.563  0.00  0.00    +0.000 A 
ATOM      6  C   UNL     1       3.959   4.528  17.841  0.00  0.00    +0.000 A 
ATOM      7  C   UNL     1       4.658   3.336  17.238  0.00  0.00    +0.000 C 
ENDROOT
BRANCH   3   8
ATOM      8  C   UNL     1       1.953   7.864  19.716  0.00  0.00    +0.000 A 
ATOM      9  C   UNL     1       1.460   8.933  19.083  0.00  0.00    +0.000 A 
ATOM     10  S   UNL     1       0.715  10.055  20.187  0.00  0.00    +0.000 S 
ATOM     11  C   UNL     1       1.101   9.005  21.558  0.00  0.00    +0.000 A 
ATOM     12  O   UNL     1       0.830   9.247  22.727  0.00  0.00    +0.000 OA
ATOM     13  N   UNL     1       1.750   7.905  21.076  0.00  0.00    +0.000 N 
ATOM     14  H   UNL     1       2.066   7.193  21.720  0.00  0.00    +0.000 HD
ENDBRANCH   3   8
BRANCH   1  16
ATOM     15  C   UNL     1       1.077   2.571  18.608  0.00  0.00    +0.000 C 
ATOM     16  N   UNL     1       2.401   3.013  19.040  0.00  0.00    +0.000 N 
ATOM     17  H   UNL     1       3.099   2.281  18.993  0.00  0.00    +0.000 HD
ENDBRANCH   1  16
BRANCH   5  18
ATOM     18  S   UNL     1       5.496   6.384  16.286  0.00  0.00    +0.000 S 
ATOM     19  O   UNL     1       4.750   7.153  15.321  0.00  0.00    +0.000 OA
ATOM     20  O   UNL     1       6.655   6.957  16.940  0.00  0.00    +0.000 OA
BRANCH  18  21
ATOM     21  N   UNL     1       6.010   5.006  15.487  0.00  0.00    +0.000 NA
ATOM     22  H   UNL     1       5.725   4.187  16.027  0.00  0.00    +0.000 HD
BRANCH  21  23
ATOM     23  C   UNL     1       5.943   4.873  14.022  0.00  0.00    +0.000 C 
ATOM     24  C   UNL     1       7.374   4.859  13.481  0.00  0.00    +0.000 C 
ATOM     25  C   UNL     1       7.269   4.217  12.109  0.00  0.00    +0.000 C 
ATOM     26  C   UNL     1       6.062   3.286  12.178  0.00  0.00    +0.000 C 
ATOM     27  C   UNL     1       5.394   3.535  13.527  0.00  0.00    +0.000 C 
ENDBRANCH  21  23
ENDBRANCH  18  21
ENDBRANCH   5  18
TORSDOF 5
ENDMDL
MODEL 9
REMARK VINA RESULT:      -6.9      3.123      7.440
REMARK  Name = 
REMARK  7 active torsions:
REMARK  status: ('A' for Active; 'I' for Inactive)
REMARK    1  A    between atoms: C_1  and  N_2
REMARK    2  A    between atoms: N_2  and  C_3
REMARK    3  A    between atoms: C_5  and  C_6
REMARK    4  A    between atoms: C_13  and  S_14
REMARK    5  A    between atoms: S_14  and  N_17
REMARK    6  A    between atoms: N_17  and  C_18
REMARK    7  A    between atoms: C_23  and  C_24
REMARK                            x       y       z     vdW  Elec       q    Type
REMARK                         _______ _______ _______ _____ _____    ______ ____
ROOT
ATOM      1  C   UNL     1       6.974   5.688  17.211  0.00  0.00    +0.000 A 
ATOM      2  C   UNL     1       6.960   5.324  15.852  0.00  0.00    +0.000 A 
ATOM      3  C   UNL     1       6.082   4.369  15.336  0.00  0.00    +0.000 A 
ATOM      4  C   UNL     1       5.192   3.762  16.214  0.00  0.00    +0.000 A 
ATOM      5  C   UNL     1       5.193   4.053  17.586  0.00  0.00    +0.000 A 
ATOM      6  C   UNL     1       6.100   5.009  18.116  0.00  0.00    +0.000 A 
ATOM      7  C   UNL     1       6.169   5.350  19.583  0.00  0.00    +0.000 C 
ENDROOT
BRANCH   3   8
ATOM      8  C   UNL     1       6.073   4.029  13.908  0.00  0.00    +0.000 A 
ATOM      9  C   UNL     1       7.135   4.046  13.097  0.00  0.00    +0.000 A 
ATOM     10  S   UNL     1       6.722   3.559  11.477  0.00  0.00    +0.000 S 
ATOM     11  C   UNL     1       5.032   3.328  11.946  0.00  0.00    +0.000 A 
ATOM     12  O   UNL     1       4.137   2.966  11.195  0.00  0.00    +0.000 OA
ATOM     13  N   UNL     1       4.919   3.630  13.273  0.00  0.00    +0.000 N 
ATOM     14  H   UNL     1       4.015   3.571  13.720  0.00  0.00    +0.000 HD
ENDBRANCH   3   8
BRANCH   1  16
ATOM     15  C   UNL     1       7.599   8.077  17.479  0.00  0.00    +0.000 C 
ATOM     16  N   UNL     1       7.896   6.655  17.645  0.00  0.00    +0.000 N 
ATOM     17  H   UNL     1       8.372   6.448  18.516  0.00  0.00    +0.000 HD
ENDBRANCH   1  16
BRANCH   5  18
ATOM     18  S   UNL     1       3.826   3.300  18.483  0.00  0.00    +0.000 S 
ATOM     19  O   UNL     1       3.309   2.237  17.657  0.00  0.00    +0.000 OA
ATOM     20  O   UNL     1       4.277   3.024  19.832  0.00  0.00    +0.000 OA
BRANCH  18  21
ATOM     21  N   UNL     1       2.607   4.441  18.593  0.00  0.00    +0.000 NA
ATOM     22  H   UNL     1       1.733   3.968  18.829  0.00  0.00    +0.000 HD
BRANCH  21  23
ATOM     23  C   UNL     1       2.817   5.762  19.209  0.00  0.00    +0.000 C 
ATOM     24  C   UNL     1       2.428   6.830  18.184  0.00  0.00    +0.000 C 
ATOM     25  C   UNL     1       2.165   8.082  19.003  0.00  0.00    +0.000 C 
ATOM     26  C   UNL     1       1.713   7.593  20.376  0.00  0.00    +0.000 C 
ATOM     27  C   UNL     1       1.885   6.077  20.379  0.00  0.00    +0.000 C 
ENDBRANCH  21  23
ENDBRANCH  18  21
ENDBRANCH   5  18
TORSDOF 5
ENDMDL
