MODEL 1
REMARK VINA RESULT:      -8.7      0.000      0.000
REMARK  Name = 
REMARK  8 active torsions:
REMARK  status: ('A' for Active; 'I' for Inactive)
REMARK    1  A    between atoms: C_1  and  O_2
REMARK    2  A    between atoms: O_2  and  C_3
REMARK    3  A    between atoms: C_6  and  N_7
REMARK    4  A    between atoms: C_17  and  C_19
REMARK    5  A    between atoms: C_19  and  C_20
REMARK    6  A    between atoms: C_19  and  C_21
REMARK    7  A    between atoms: C_19  and  O_22
REMARK    8  A    between atoms: O_22  and  C_23
REMARK                            x       y       z     vdW  Elec       q    Type
REMARK                         _______ _______ _______ _____ _____    ______ ____
ROOT
ATOM      1  C   UNL     1       5.396   6.244  16.925  0.00  0.00    +0.000 A 
ATOM      2  C   UNL     1       5.839   4.945  16.780  0.00  0.00    +0.000 A 
ATOM      3  N   UNL     1       5.238   3.848  17.284  0.00  0.00    +0.000 NA
ATOM      4  C   UNL     1       4.080   3.966  17.995  0.00  0.00    +0.000 A 
ATOM      5  C   UNL     1       3.561   5.269  18.171  0.00  0.00    +0.000 A 
ATOM      6  S   UNL     1       2.174   5.823  19.084  0.00  0.00    +0.000 S 
ATOM      7  C   UNL     1       2.536   7.426  18.674  0.00  0.00    +0.000 A 
ATOM      8  N   UNL     1       1.718   8.392  19.177  0.00  0.00    +0.000 N 
ATOM      9  C   UNL     1       1.663   9.649  18.599  0.00  0.00    +0.000 C 
ATOM     10  O   UNL     1       2.328   9.998  17.617  0.00  0.00    +0.000 OA
ATOM     11  N   UNL     1       3.585   7.610  17.905  0.00  0.00    +0.000 NA
ATOM     12  C   UNL     1       4.199   6.399  17.648  0.00  0.00    +0.000 A 
ATOM     13  H   UNL     1       1.157   8.130  19.972  0.00  0.00    +0.000 HD
ENDROOT
BRANCH   4  14
ATOM     14  N   UNL     1       3.516   2.850  18.576  0.00  0.00    +0.000 N 
ATOM     15  C   UNL     1       2.261   2.307  18.042  0.00  0.00    +0.000 C 
ATOM     16  C   UNL     1       1.086   2.458  19.016  0.00  0.00    +0.000 C 
ATOM     17  O   UNL     1       1.424   1.992  20.333  0.00  0.00    +0.000 OA
ATOM     18  C   UNL     1       2.515   2.765  20.849  0.00  0.00    +0.000 C 
ATOM     19  C   UNL     1       3.780   2.594  19.996  0.00  0.00    +0.000 C 
ENDBRANCH   4  14
BRANCH   9  20
ATOM     20  C   UNL     1       0.658  10.643  19.248  0.00  0.00    +0.000 C 
ATOM     21  C   UNL     1      -0.257   9.825  20.183  0.00  0.00    +0.000 C 
ATOM     22  C   UNL     1       1.455  11.711  20.017  0.00  0.00    +0.000 C 
BRANCH  20  23
ATOM     23  O   UNL     1      -0.079  11.216  18.134  0.00  0.00    +0.000 OA
BRANCH  23  24
ATOM     24  C   UNL     1      -1.432  11.080  18.073  0.00  0.00    +0.000 A 
ATOM     25  C   UNL     1      -2.346  11.940  18.680  0.00  0.00    +0.000 A 
ATOM     26  C   UNL     1      -3.693  11.735  18.653  0.00  0.00    +0.000 A 
ATOM     27  C   UNL     1      -4.195  10.663  17.925  0.00  0.00    +0.000 A 
ATOM     28  F   UNL     1      -5.512  10.469  17.891  0.00  0.00    +0.000 F 
ATOM     29  C   UNL     1      -3.330   9.833  17.231  0.00  0.00    +0.000 A 
ATOM     30  C   UNL     1      -1.950  10.025  17.313  0.00  0.00    +0.000 A 
ENDBRANCH  23  24
ENDBRANCH  20  23
ENDBRANCH   9  20
BRANCH   1  32
ATOM     31  C   UNL     1       7.236   7.666  17.248  0.00  0.00    +0.000 C 
ATOM     32  O   UNL     1       6.068   7.358  16.499  0.00  0.00    +0.000 OA
ENDBRANCH   1  32
TORSDOF 5
ENDMDL
MODEL 2
REMARK VINA RESULT:      -8.6      1.687      3.968
REMARK  Name = 
REMARK  8 active torsions:
REMARK  status: ('A' for Active; 'I' for Inactive)
REMARK    1  A    between atoms: C_1  and  O_2
REMARK    2  A    between atoms: O_2  and  C_3
REMARK    3  A    between atoms: C_6  and  N_7
REMARK    4  A    between atoms: C_17  and  C_19
REMARK    5  A    between atoms: C_19  and  C_20
REMARK    6  A    between atoms: C_19  and  C_21
REMARK    7  A    between atoms: C_19  and  O_22
REMARK    8  A    between atoms: O_22  and  C_23
REMARK                            x       y       z     vdW  Elec       q    Type
REMARK                         _______ _______ _______ _____ _____    ______ ____
ROOT
ATOM      1  C   UNL     1       2.877   3.934  20.571  0.00  0.00    +0.000 A 
ATOM      2  C   UNL     1       3.782   2.948  20.235  0.00  0.00    +0.000 A 
ATOM      3  N   UNL     1       4.737   3.047  19.287  0.00  0.00    +0.000 NA
ATOM      4  C   UNL     1       4.880   4.203  18.576  0.00  0.00    +0.000 A 
ATOM      5  C   UNL     1       3.992   5.261  18.879  0.00  0.00    +0.000 A 
ATOM      6  S   UNL     1       3.807   6.834  18.134  0.00  0.00    +0.000 S 
ATOM      7  C   UNL     1       2.515   7.181  19.172  0.00  0.00    +0.000 A 
ATOM      8  N   UNL     1       1.905   8.389  19.016  0.00  0.00    +0.000 N 
ATOM      9  C   UNL     1       1.143   8.938  20.033  0.00  0.00    +0.000 C 
ATOM     10  O   UNL     1       0.948   8.401  21.130  0.00  0.00    +0.000 OA
ATOM     11  N   UNL     1       2.200   6.251  20.044  0.00  0.00    +0.000 NA
ATOM     12  C   UNL     1       3.003   5.142  19.860  0.00  0.00    +0.000 A 
ATOM     13  H   UNL     1       2.056   8.853  18.134  0.00  0.00    +0.000 HD
ENDROOT
BRANCH   4  14
ATOM     14  N   UNL     1       5.803   4.269  17.555  0.00  0.00    +0.000 N 
ATOM     15  C   UNL     1       7.063   4.994  17.758  0.00  0.00    +0.000 C 
ATOM     16  C   UNL     1       7.167   6.258  16.895  0.00  0.00    +0.000 C 
ATOM     17  O   UNL     1       6.849   5.991  15.519  0.00  0.00    +0.000 OA
ATOM     18  C   UNL     1       5.501   5.512  15.424  0.00  0.00    +0.000 C 
ATOM     19  C   UNL     1       5.321   4.184  16.172  0.00  0.00    +0.000 C 
ENDBRANCH   4  14
BRANCH   9  20
ATOM     20  C   UNL     1       0.536  10.339  19.737  0.00  0.00    +0.000 C 
ATOM     21  C   UNL     1       1.007  11.289  20.857  0.00  0.00    +0.000 C 
ATOM     22  C   UNL     1       1.024  10.799  18.352  0.00  0.00    +0.000 C 
BRANCH  20  23
ATOM     23  O   UNL     1      -0.903  10.140  19.764  0.00  0.00    +0.000 OA
BRANCH  23  24
ATOM     24  C   UNL     1      -1.649  10.428  18.662  0.00  0.00    +0.000 A 
ATOM     25  C   UNL     1      -2.571  11.469  18.575  0.00  0.00    +0.000 A 
ATOM     26  C   UNL     1      -3.349  11.687  17.477  0.00  0.00    +0.000 A 
ATOM     27  C   UNL     1      -3.168  10.885  16.357  0.00  0.00    +0.000 A 
ATOM     28  F   UNL     1      -3.921  11.104  15.280  0.00  0.00    +0.000 F 
ATOM     29  C   UNL     1      -2.199   9.894  16.364  0.00  0.00    +0.000 A 
ATOM     30  C   UNL     1      -1.450   9.649  17.516  0.00  0.00    +0.000 A 
ENDBRANCH  23  24
ENDBRANCH  20  23
ENDBRANCH   9  20
BRANCH   1  32
ATOM     31  C   UNL     1       1.481   2.438  21.726  0.00  0.00    +0.000 C 
ATOM     32  O   UNL     1       1.846   3.786  21.460  0.00  0.00    +0.000 OA
ENDBRANCH   1  32
TORSDOF 5
ENDMDL
MODEL 3
REMARK VINA RESULT:      -8.6      2.350      4.634
REMARK  Name = 
REMARK  8 active torsions:
REMARK  status: ('A' for Active; 'I' for Inactive)
REMARK    1  A    between atoms: C_1  and  O_2
REMARK    2  A    between atoms: O_2  and  C_3
REMARK    3  A    between atoms: C_6  and  N_7
REMARK    4  A    between atoms: C_17  and  C_19
REMARK    5  A    between atoms: C_19  and  C_20
REMARK    6  A    between atoms: C_19  and  C_21
REMARK    7  A    between atoms: C_19  and  O_22
REMARK    8  A    between atoms: O_22  and  C_23
REMARK                            x       y       z     vdW  Elec       q    Type
REMARK                         _______ _______ _______ _____ _____    ______ ____
ROOT
ATOM      1  C   UNL     1       2.734   3.911  20.387  0.00  0.00    +0.000 A 
ATOM      2  C   UNL     1       3.619   2.901  20.071  0.00  0.00    +0.000 A 
ATOM      3  N   UNL     1       4.625   2.987  19.177  0.00  0.00    +0.000 NA
ATOM      4  C   UNL     1       4.848   4.154  18.505  0.00  0.00    +0.000 A 
ATOM      5  C   UNL     1       3.985   5.237  18.790  0.00  0.00    +0.000 A 
ATOM      6  S   UNL     1       3.896   6.833  18.079  0.00  0.00    +0.000 S 
ATOM      7  C   UNL     1       2.565   7.204  19.058  0.00  0.00    +0.000 A 
ATOM      8  N   UNL     1       2.009   8.437  18.903  0.00  0.00    +0.000 N 
ATOM      9  C   UNL     1       1.215   8.989  19.894  0.00  0.00    +0.000 C 
ATOM     10  O   UNL     1       0.944   8.434  20.965  0.00  0.00    +0.000 OA
ATOM     11  N   UNL     1       2.172   6.265  19.888  0.00  0.00    +0.000 NA
ATOM     12  C   UNL     1       2.941   5.131  19.715  0.00  0.00    +0.000 A 
ATOM     13  H   UNL     1       2.222   8.917  18.042  0.00  0.00    +0.000 HD
ENDROOT
BRANCH   4  14
ATOM     14  N   UNL     1       5.824   4.210  17.534  0.00  0.00    +0.000 N 
ATOM     15  C   UNL     1       7.093   4.893  17.817  0.00  0.00    +0.000 C 
ATOM     16  C   UNL     1       7.280   6.168  16.985  0.00  0.00    +0.000 C 
ATOM     17  O   UNL     1       7.026   5.935  15.590  0.00  0.00    +0.000 OA
ATOM     18  C   UNL     1       5.672   5.500  15.415  0.00  0.00    +0.000 C 
ATOM     19  C   UNL     1       5.413   4.165  16.127  0.00  0.00    +0.000 C 
ENDBRANCH   4  14
BRANCH   9  20
ATOM     20  C   UNL     1       0.677  10.419  19.604  0.00  0.00    +0.000 C 
ATOM     21  C   UNL     1       1.526  11.006  18.458  0.00  0.00    +0.000 C 
ATOM     22  C   UNL     1      -0.810  10.313  19.221  0.00  0.00    +0.000 C 
BRANCH  20  23
ATOM     23  O   UNL     1       0.863  11.151  20.847  0.00  0.00    +0.000 OA
BRANCH  23  24
ATOM     24  C   UNL     1      -0.217  11.647  21.511  0.00  0.00    +0.000 A 
ATOM     25  C   UNL     1      -0.821  11.042  22.612  0.00  0.00    +0.000 A 
ATOM     26  C   UNL     1      -1.942  11.534  23.211  0.00  0.00    +0.000 A 
ATOM     27  C   UNL     1      -2.473  12.736  22.758  0.00  0.00    +0.000 A 
ATOM     28  F   UNL     1      -3.562  13.222  23.350  0.00  0.00    +0.000 F 
ATOM     29  C   UNL     1      -1.853  13.420  21.724  0.00  0.00    +0.000 A 
ATOM     30  C   UNL     1      -0.738  12.875  21.087  0.00  0.00    +0.000 A 
ENDBRANCH  23  24
ENDBRANCH  20  23
ENDBRANCH   9  20
BRANCH   1  32
ATOM     31  C   UNL     1       1.464   2.474  21.741  0.00  0.00    +0.000 C 
ATOM     32  O   UNL     1       1.654   3.781  21.217  0.00  0.00    +0.000 OA
ENDBRANCH   1  32
TORSDOF 5
ENDMDL
MODEL 4
REMARK VINA RESULT:      -8.4      1.986      2.828
REMARK  Name = 
REMARK  8 active torsions:
REMARK  status: ('A' for Active; 'I' for Inactive)
REMARK    1  A    between atoms: C_1  and  O_2
REMARK    2  A    between atoms: O_2  and  C_3
REMARK    3  A    between atoms: C_6  and  N_7
REMARK    4  A    between atoms: C_17  and  C_19
REMARK    5  A    between atoms: C_19  and  C_20
REMARK    6  A    between atoms: C_19  and  C_21
REMARK    7  A    between atoms: C_19  and  O_22
REMARK    8  A    between atoms: O_22  and  C_23
REMARK                            x       y       z     vdW  Elec       q    Type
REMARK                         _______ _______ _______ _____ _____    ______ ____
ROOT
ATOM      1  C   UNL     1       5.284   5.982  16.886  0.00  0.00    +0.000 A 
ATOM      2  C   UNL     1       5.667   4.659  16.808  0.00  0.00    +0.000 A 
ATOM      3  N   UNL     1       5.044   3.623  17.406  0.00  0.00    +0.000 NA
ATOM      4  C   UNL     1       3.923   3.836  18.154  0.00  0.00    +0.000 A 
ATOM      5  C   UNL     1       3.465   5.169  18.265  0.00  0.00    +0.000 A 
ATOM      6  S   UNL     1       2.142   5.840  19.194  0.00  0.00    +0.000 S 
ATOM      7  C   UNL     1       2.552   7.396  18.666  0.00  0.00    +0.000 A 
ATOM      8  N   UNL     1       1.796   8.426  19.137  0.00  0.00    +0.000 N 
ATOM      9  C   UNL     1       1.767   9.646  18.482  0.00  0.00    +0.000 C 
ATOM     10  O   UNL     1       2.404   9.903  17.454  0.00  0.00    +0.000 OA
ATOM     11  N   UNL     1       3.573   7.485  17.846  0.00  0.00    +0.000 NA
ATOM     12  C   UNL     1       4.126   6.235  17.645  0.00  0.00    +0.000 A 
ATOM     13  H   UNL     1       1.258   8.240  19.970  0.00  0.00    +0.000 HD
ENDROOT
BRANCH   4  14
ATOM     14  N   UNL     1       3.339   2.785  18.828  0.00  0.00    +0.000 N 
ATOM     15  C   UNL     1       2.011   2.308  18.422  0.00  0.00    +0.000 C 
ATOM     16  C   UNL     1       0.934   2.575  19.480  0.00  0.00    +0.000 C 
ATOM     17  O   UNL     1       1.350   2.140  20.785  0.00  0.00    +0.000 OA
ATOM     18  C   UNL     1       2.528   2.858  21.176  0.00  0.00    +0.000 C 
ATOM     19  C   UNL     1       3.703   2.568  20.232  0.00  0.00    +0.000 C 
ENDBRANCH   4  14
BRANCH   9  20
ATOM     20  C   UNL     1       0.832  10.721  19.104  0.00  0.00    +0.000 C 
ATOM     21  C   UNL     1       1.249  12.086  18.519  0.00  0.00    +0.000 C 
ATOM     22  C   UNL     1      -0.623  10.366  18.751  0.00  0.00    +0.000 C 
BRANCH  20  23
ATOM     23  O   UNL     1       1.074  10.648  20.536  0.00  0.00    +0.000 OA
BRANCH  23  24
ATOM     24  C   UNL     1       0.220  11.260  21.401  0.00  0.00    +0.000 A 
ATOM     25  C   UNL     1      -0.605  10.596  22.308  0.00  0.00    +0.000 A 
ATOM     26  C   UNL     1      -1.496  11.240  23.114  0.00  0.00    +0.000 A 
ATOM     27  C   UNL     1      -1.541  12.629  23.091  0.00  0.00    +0.000 A 
ATOM     28  F   UNL     1      -2.406  13.258  23.885  0.00  0.00    +0.000 F 
ATOM     29  C   UNL     1      -0.678  13.336  22.270  0.00  0.00    +0.000 A 
ATOM     30  C   UNL     1       0.192  12.659  21.413  0.00  0.00    +0.000 A 
ENDBRANCH  23  24
ENDBRANCH  20  23
ENDBRANCH   9  20
BRANCH   1  32
ATOM     31  C   UNL     1       7.132   7.414  17.109  0.00  0.00    +0.000 C 
ATOM     32  O   UNL     1       5.982   7.036  16.363  0.00  0.00    +0.000 OA
ENDBRANCH   1  32
TORSDOF 5
ENDMDL
MODEL 5
REMARK VINA RESULT:      -8.4      2.913      4.821
REMARK  Name = 
REMARK  8 active torsions:
REMARK  status: ('A' for Active; 'I' for Inactive)
REMARK    1  A    between atoms: C_1  and  O_2
REMARK    2  A    between atoms: O_2  and  C_3
REMARK    3  A    between atoms: C_6  and  N_7
REMARK    4  A    between atoms: C_17  and  C_19
REMARK    5  A    between atoms: C_19  and  C_20
REMARK    6  A    between atoms: C_19  and  C_21
REMARK    7  A    between atoms: C_19  and  O_22
REMARK    8  A    between atoms: O_22  and  C_23
REMARK                            x       y       z     vdW  Elec       q    Type
REMARK                         _______ _______ _______ _____ _____    ______ ____
ROOT
ATOM      1  C   UNL     1       2.697   4.583  20.210  0.00  0.00    +0.000 A 
ATOM      2  C   UNL     1       3.500   3.674  19.553  0.00  0.00    +0.000 A 
ATOM      3  N   UNL     1       4.218   3.920  18.438  0.00  0.00    +0.000 NA
ATOM      4  C   UNL     1       4.201   5.161  17.872  0.00  0.00    +0.000 A 
ATOM      5  C   UNL     1       3.408   6.148  18.502  0.00  0.00    +0.000 A 
ATOM      6  S   UNL     1       3.065   7.798  18.033  0.00  0.00    +0.000 S 
ATOM      7  C   UNL     1       2.041   7.973  19.370  0.00  0.00    +0.000 A 
ATOM      8  N   UNL     1       1.415   9.174  19.514  0.00  0.00    +0.000 N 
ATOM      9  C   UNL     1       0.903   9.567  20.739  0.00  0.00    +0.000 C 
ATOM     10  O   UNL     1       0.958   8.888  21.771  0.00  0.00    +0.000 OA
ATOM     11  N   UNL     1       1.927   6.931  20.159  0.00  0.00    +0.000 NA
ATOM     12  C   UNL     1       2.664   5.876  19.655  0.00  0.00    +0.000 A 
ATOM     13  H   UNL     1       1.365   9.753  18.690  0.00  0.00    +0.000 HD
ENDROOT
BRANCH   4  14
ATOM     14  N   UNL     1       4.871   5.384  16.688  0.00  0.00    +0.000 N 
ATOM     15  C   UNL     1       4.936   4.321  15.677  0.00  0.00    +0.000 C 
ATOM     16  C   UNL     1       6.355   3.773  15.481  0.00  0.00    +0.000 C 
ATOM     17  O   UNL     1       7.313   4.829  15.297  0.00  0.00    +0.000 OA
ATOM     18  C   UNL     1       7.330   5.667  16.460  0.00  0.00    +0.000 C 
ATOM     19  C   UNL     1       5.974   6.351  16.681  0.00  0.00    +0.000 C 
ENDBRANCH   4  14
BRANCH   9  20
ATOM     20  C   UNL     1       0.250  10.978  20.774  0.00  0.00    +0.000 C 
ATOM     21  C   UNL     1       1.203  11.942  20.038  0.00  0.00    +0.000 C 
ATOM     22  C   UNL     1      -1.125  10.896  20.089  0.00  0.00    +0.000 C 
BRANCH  20  23
ATOM     23  O   UNL     1       0.133  11.304  22.186  0.00  0.00    +0.000 OA
BRANCH  23  24
ATOM     24  C   UNL     1      -0.898  12.081  22.619  0.00  0.00    +0.000 A 
ATOM     25  C   UNL     1      -2.089  11.595  23.156  0.00  0.00    +0.000 A 
ATOM     26  C   UNL     1      -3.127  12.401  23.519  0.00  0.00    +0.000 A 
ATOM     27  C   UNL     1      -2.972  13.779  23.424  0.00  0.00    +0.000 A 
ATOM     28  F   UNL     1      -3.982  14.567  23.787  0.00  0.00    +0.000 F 
ATOM     29  C   UNL     1      -1.772  14.311  22.980  0.00  0.00    +0.000 A 
ATOM     30  C   UNL     1      -0.739  13.470  22.562  0.00  0.00    +0.000 A 
ENDBRANCH  23  24
ENDBRANCH  20  23
ENDBRANCH   9  20
BRANCH   1  32
ATOM     31  C   UNL     1       1.750   2.907  21.556  0.00  0.00    +0.000 C 
ATOM     32  O   UNL     1       1.892   4.294  21.279  0.00  0.00    +0.000 OA
ENDBRANCH   1  32
TORSDOF 5
ENDMDL
MODEL 6
REMARK VINA RESULT:      -8.4      1.631      3.719
REMARK  Name = 
REMARK  8 active torsions:
REMARK  status: ('A' for Active; 'I' for Inactive)
REMARK    1  A    between atoms: C_1  and  O_2
REMARK    2  A    between atoms: O_2  and  C_3
REMARK    3  A    between atoms: C_6  and  N_7
REMARK    4  A    between atoms: C_17  and  C_19
REMARK    5  A    between atoms: C_19  and  C_20
REMARK    6  A    between atoms: C_19  and  C_21
REMARK    7  A    between atoms: C_19  and  O_22
REMARK    8  A    between atoms: O_22  and  C_23
REMARK                            x       y       z     vdW  Elec       q    Type
REMARK                         _______ _______ _______ _____ _____    ______ ____
ROOT
ATOM      1  C   UNL     1       2.729   4.710  20.163  0.00  0.00    +0.000 A 
ATOM      2  C   UNL     1       3.566   3.789  19.567  0.00  0.00    +0.000 A 
ATOM      3  N   UNL     1       4.306   4.000  18.459  0.00  0.00    +0.000 NA
ATOM      4  C   UNL     1       4.279   5.214  17.837  0.00  0.00    +0.000 A 
ATOM      5  C   UNL     1       3.451   6.211  18.403  0.00  0.00    +0.000 A 
ATOM      6  S   UNL     1       3.089   7.831  17.851  0.00  0.00    +0.000 S 
ATOM      7  C   UNL     1       2.028   8.045  19.154  0.00  0.00    +0.000 A 
ATOM      8  N   UNL     1       1.376   9.238  19.230  0.00  0.00    +0.000 N 
ATOM      9  C   UNL     1       0.826   9.674  20.423  0.00  0.00    +0.000 C 
ATOM     10  O   UNL     1       0.870   9.044  21.486  0.00  0.00    +0.000 OA
ATOM     11  N   UNL     1       1.916   7.037  19.987  0.00  0.00    +0.000 NA
ATOM     12  C   UNL     1       2.684   5.976  19.549  0.00  0.00    +0.000 A 
ATOM     13  H   UNL     1       1.335   9.778  18.379  0.00  0.00    +0.000 HD
ENDROOT
BRANCH   4  14
ATOM     14  N   UNL     1       4.973   5.396  16.661  0.00  0.00    +0.000 N 
ATOM     15  C   UNL     1       4.960   4.345  15.636  0.00  0.00    +0.000 C 
ATOM     16  C   UNL     1       6.331   3.686  15.442  0.00  0.00    +0.000 C 
ATOM     17  O   UNL     1       7.372   4.664  15.278  0.00  0.00    +0.000 OA
ATOM     18  C   UNL     1       7.449   5.483  16.452  0.00  0.00    +0.000 C 
ATOM     19  C   UNL     1       6.150   6.272  16.674  0.00  0.00    +0.000 C 
ENDBRANCH   4  14
BRANCH   9  20
ATOM     20  C   UNL     1       0.146  11.072  20.379  0.00  0.00    +0.000 C 
ATOM     21  C   UNL     1      -1.050  11.032  21.352  0.00  0.00    +0.000 C 
ATOM     22  C   UNL     1       1.183  12.133  20.787  0.00  0.00    +0.000 C 
BRANCH  20  23
ATOM     23  O   UNL     1      -0.283  11.238  18.999  0.00  0.00    +0.000 OA
BRANCH  23  24
ATOM     24  C   UNL     1      -1.603  11.135  18.682  0.00  0.00    +0.000 A 
ATOM     25  C   UNL     1      -2.579  12.070  19.023  0.00  0.00    +0.000 A 
ATOM     26  C   UNL     1      -3.902  11.901  18.746  0.00  0.00    +0.000 A 
ATOM     27  C   UNL     1      -4.300  10.783  18.023  0.00  0.00    +0.000 A 
ATOM     28  F   UNL     1      -5.592  10.623  17.743  0.00  0.00    +0.000 F 
ATOM     29  C   UNL     1      -3.354   9.871  17.584  0.00  0.00    +0.000 A 
ATOM     30  C   UNL     1      -2.009  10.031  17.923  0.00  0.00    +0.000 A 
ENDBRANCH  23  24
ENDBRANCH  20  23
ENDBRANCH   9  20
BRANCH   1  32
ATOM     31  C   UNL     1       1.835   3.085  21.604  0.00  0.00    +0.000 C 
ATOM     32  O   UNL     1       1.904   4.453  21.224  0.00  0.00    +0.000 OA
ENDBRANCH   1  32
TORSDOF 5
ENDMDL
MODEL 7
REMARK VINA RESULT:      -8.3      1.964      3.920
REMARK  Name = 
REMARK  8 active torsions:
REMARK  status: ('A' for Active; 'I' for Inactive)
REMARK    1  A    between atoms: C_1  and  O_2
REMARK    2  A    between atoms: O_2  and  C_3
REMARK    3  A    between atoms: C_6  and  N_7
REMARK    4  A    between atoms: C_17  and  C_19
REMARK    5  A    between atoms: C_19  and  C_20
REMARK    6  A    between atoms: C_19  and  C_21
REMARK    7  A    between atoms: C_19  and  O_22
REMARK    8  A    between atoms: O_22  and  C_23
REMARK                            x       y       z     vdW  Elec       q    Type
REMARK                         _______ _______ _______ _____ _____    ______ ____
ROOT
ATOM      1  C   UNL     1       2.701   4.875  20.161  0.00  0.00    +0.000 A 
ATOM      2  C   UNL     1       3.674   4.000  19.723  0.00  0.00    +0.000 A 
ATOM      3  N   UNL     1       4.568   4.243  18.743  0.00  0.00    +0.000 NA
ATOM      4  C   UNL     1       4.571   5.447  18.101  0.00  0.00    +0.000 A 
ATOM      5  C   UNL     1       3.608   6.398  18.509  0.00  0.00    +0.000 A 
ATOM      6  S   UNL     1       3.245   7.988  17.874  0.00  0.00    +0.000 S 
ATOM      7  C   UNL     1       1.979   8.152  18.988  0.00  0.00    +0.000 A 
ATOM      8  N   UNL     1       1.256   9.304  18.935  0.00  0.00    +0.000 N 
ATOM      9  C   UNL     1       0.499   9.719  20.017  0.00  0.00    +0.000 C 
ATOM     10  O   UNL     1       0.408   9.103  21.085  0.00  0.00    +0.000 OA
ATOM     11  N   UNL     1       1.794   7.147  19.812  0.00  0.00    +0.000 NA
ATOM     12  C   UNL     1       2.682   6.130  19.523  0.00  0.00    +0.000 A 
ATOM     13  H   UNL     1       1.321   9.832  18.078  0.00  0.00    +0.000 HD
ENDROOT
BRANCH   4  14
ATOM     14  N   UNL     1       5.433   5.659  17.046  0.00  0.00    +0.000 N 
ATOM     15  C   UNL     1       5.097   5.138  15.715  0.00  0.00    +0.000 C 
ATOM     16  C   UNL     1       6.042   4.020  15.258  0.00  0.00    +0.000 C 
ATOM     17  O   UNL     1       7.421   4.391  15.421  0.00  0.00    +0.000 OA
ATOM     18  C   UNL     1       7.688   4.642  16.807  0.00  0.00    +0.000 C 
ATOM     19  C   UNL     1       6.861   5.823  17.335  0.00  0.00    +0.000 C 
ENDBRANCH   4  14
BRANCH   9  20
ATOM     20  C   UNL     1      -0.245  11.073  19.837  0.00  0.00    +0.000 C 
ATOM     21  C   UNL     1      -0.022  11.894  21.124  0.00  0.00    +0.000 C 
ATOM     22  C   UNL     1       0.326  11.783  18.597  0.00  0.00    +0.000 C 
BRANCH  20  23
ATOM     23  O   UNL     1      -1.643  10.714  19.659  0.00  0.00    +0.000 OA
BRANCH  23  24
ATOM     24  C   UNL     1      -2.178  10.672  18.407  0.00  0.00    +0.000 A 
ATOM     25  C   UNL     1      -1.750   9.825  17.387  0.00  0.00    +0.000 A 
ATOM     26  C   UNL     1      -2.266   9.857  16.125  0.00  0.00    +0.000 A 
ATOM     27  C   UNL     1      -3.321  10.720  15.853  0.00  0.00    +0.000 A 
ATOM     28  F   UNL     1      -3.831  10.745  14.624  0.00  0.00    +0.000 F 
ATOM     29  C   UNL     1      -3.840  11.518  16.861  0.00  0.00    +0.000 A 
ATOM     30  C   UNL     1      -3.264  11.511  18.132  0.00  0.00    +0.000 A 
ENDBRANCH  23  24
ENDBRANCH  20  23
ENDBRANCH   9  20
BRANCH   1  32
ATOM     31  C   UNL     1       1.257   3.242  21.033  0.00  0.00    +0.000 C 
ATOM     32  O   UNL     1       1.733   4.580  21.082  0.00  0.00    +0.000 OA
ENDBRANCH   1  32
TORSDOF 5
ENDMDL
MODEL 8
REMARK VINA RESULT:      -8.3      2.720      4.875
REMARK  Name = 
REMARK  8 active torsions:
REMARK  status: ('A' for Active; 'I' for Inactive)
REMARK    1  A    between atoms: C_1  and  O_2
REMARK    2  A    between atoms: O_2  and  C_3
REMARK    3  A    between atoms: C_6  and  N_7
REMARK    4  A    between atoms: C_17  and  C_19
REMARK    5  A    between atoms: C_19  and  C_20
REMARK    6  A    between atoms: C_19  and  C_21
REMARK    7  A    between atoms: C_19  and  O_22
REMARK    8  A    between atoms: O_22  and  C_23
REMARK                            x       y       z     vdW  Elec       q    Type
REMARK                         _______ _______ _______ _____ _____    ______ ____
ROOT
ATOM      1  C   UNL     1       2.661   4.423  20.295  0.00  0.00    +0.000 A 
ATOM      2  C   UNL     1       3.470   3.567  19.578  0.00  0.00    +0.000 A 
ATOM      3  N   UNL     1       4.165   3.885  18.467  0.00  0.00    +0.000 NA
ATOM      4  C   UNL     1       4.116   5.154  17.968  0.00  0.00    +0.000 A 
ATOM      5  C   UNL     1       3.314   6.090  18.662  0.00  0.00    +0.000 A 
ATOM      6  S   UNL     1       2.933   7.756  18.286  0.00  0.00    +0.000 S 
ATOM      7  C   UNL     1       1.927   7.840  19.646  0.00  0.00    +0.000 A 
ATOM      8  N   UNL     1       1.281   9.019  19.864  0.00  0.00    +0.000 N 
ATOM      9  C   UNL     1       0.781   9.336  21.115  0.00  0.00    +0.000 C 
ATOM     10  O   UNL     1       0.866   8.604  22.109  0.00  0.00    +0.000 OA
ATOM     11  N   UNL     1       1.846   6.755  20.380  0.00  0.00    +0.000 NA
ATOM     12  C   UNL     1       2.594   5.743  19.810  0.00  0.00    +0.000 A 
ATOM     13  H   UNL     1       1.207   9.639  19.072  0.00  0.00    +0.000 HD
ENDROOT
BRANCH   4  14
ATOM     14  N   UNL     1       4.763   5.452  16.788  0.00  0.00    +0.000 N 
ATOM     15  C   UNL     1       5.063   4.380  15.831  0.00  0.00    +0.000 C 
ATOM     16  C   UNL     1       6.566   4.113  15.689  0.00  0.00    +0.000 C 
ATOM     17  O   UNL     1       7.303   5.328  15.472  0.00  0.00    +0.000 OA
ATOM     18  C   UNL     1       7.124   6.203  16.593  0.00  0.00    +0.000 C 
ATOM     19  C   UNL     1       5.654   6.616  16.755  0.00  0.00    +0.000 C 
ENDBRANCH   4  14
BRANCH   9  20
ATOM     20  C   UNL     1       0.102  10.730  21.235  0.00  0.00    +0.000 C 
ATOM     21  C   UNL     1      -0.769  10.925  19.977  0.00  0.00    +0.000 C 
ATOM     22  C   UNL     1      -0.737  10.755  22.524  0.00  0.00    +0.000 C 
BRANCH  20  23
ATOM     23  O   UNL     1       1.201  11.680  21.286  0.00  0.00    +0.000 OA
BRANCH  23  24
ATOM     24  C   UNL     1       1.126  12.843  20.582  0.00  0.00    +0.000 A 
ATOM     25  C   UNL     1       0.402  13.967  20.978  0.00  0.00    +0.000 A 
ATOM     26  C   UNL     1       0.296  15.092  20.215  0.00  0.00    +0.000 A 
ATOM     27  C   UNL     1       0.999  15.161  19.019  0.00  0.00    +0.000 A 
ATOM     28  F   UNL     1       0.903  16.263  18.278  0.00  0.00    +0.000 F 
ATOM     29  C   UNL     1       1.804  14.103  18.627  0.00  0.00    +0.000 A 
ATOM     30  C   UNL     1       1.859  12.938  19.394  0.00  0.00    +0.000 A 
ENDBRANCH  23  24
ENDBRANCH  20  23
ENDBRANCH   9  20
BRANCH   1  32
ATOM     31  C   UNL     1       1.770   2.661  21.566  0.00  0.00    +0.000 C 
ATOM     32  O   UNL     1       1.879   4.063  21.359  0.00  0.00    +0.000 OA
ENDBRANCH   1  32
TORSDOF 5
ENDMDL
MODEL 9
REMARK VINA RESULT:      -8.3      0.903      1.291
REMARK  Name = 
REMARK  8 active torsions:
REMARK  status: ('A' for Active; 'I' for Inactive)
REMARK    1  A    between atoms: C_1  and  O_2
REMARK    2  A    between atoms: O_2  and  C_3
REMARK    3  A    between atoms: C_6  and  N_7
REMARK    4  A    between atoms: C_17  and  C_19
REMARK    5  A    between atoms: C_19  and  C_20
REMARK    6  A    between atoms: C_19  and  C_21
REMARK    7  A    between atoms: C_19  and  O_22
REMARK    8  A    between atoms: O_22  and  C_23
REMARK                            x       y       z     vdW  Elec       q    Type
REMARK                         _______ _______ _______ _____ _____    ______ ____
ROOT
ATOM      1  C   UNL     1       5.128   6.233  17.163  0.00  0.00    +0.000 A 
ATOM      2  C   UNL     1       5.541   4.920  17.077  0.00  0.00    +0.000 A 
ATOM      3  N   UNL     1       4.936   3.865  17.658  0.00  0.00    +0.000 NA
ATOM      4  C   UNL     1       3.802   4.045  18.395  0.00  0.00    +0.000 A 
ATOM      5  C   UNL     1       3.313   5.366  18.514  0.00  0.00    +0.000 A 
ATOM      6  S   UNL     1       1.966   5.998  19.435  0.00  0.00    +0.000 S 
ATOM      7  C   UNL     1       2.345   7.569  18.926  0.00  0.00    +0.000 A 
ATOM      8  N   UNL     1       1.561   8.577  19.399  0.00  0.00    +0.000 N 
ATOM      9  C   UNL     1       1.512   9.801  18.755  0.00  0.00    +0.000 C 
ATOM     10  O   UNL     1       2.154  10.083  17.736  0.00  0.00    +0.000 OA
ATOM     11  N   UNL     1       3.373   7.688  18.118  0.00  0.00    +0.000 NA
ATOM     12  C   UNL     1       3.956   6.453  17.911  0.00  0.00    +0.000 A 
ATOM     13  H   UNL     1       1.019   8.370  20.223  0.00  0.00    +0.000 HD
ENDROOT
BRANCH   4  14
ATOM     14  N   UNL     1       3.235   2.975  19.053  0.00  0.00    +0.000 N 
ATOM     15  C   UNL     1       1.891   2.518  18.676  0.00  0.00    +0.000 C 
ATOM     16  C   UNL     1       0.852   2.755  19.778  0.00  0.00    +0.000 C 
ATOM     17  O   UNL     1       1.309   2.274  21.053  0.00  0.00    +0.000 OA
ATOM     18  C   UNL     1       2.503   2.972  21.428  0.00  0.00    +0.000 C 
ATOM     19  C   UNL     1       3.644   2.709  20.436  0.00  0.00    +0.000 C 
ENDBRANCH   4  14
BRANCH   9  20
ATOM     20  C   UNL     1       0.546  10.850  19.377  0.00  0.00    +0.000 C 
ATOM     21  C   UNL     1       1.076  11.181  20.787  0.00  0.00    +0.000 C 
ATOM     22  C   UNL     1       0.521  12.090  18.467  0.00  0.00    +0.000 C 
BRANCH  20  23
ATOM     23  O   UNL     1      -0.747  10.188  19.425  0.00  0.00    +0.000 OA
BRANCH  23  24
ATOM     24  C   UNL     1      -1.654  10.397  18.431  0.00  0.00    +0.000 A 
ATOM     25  C   UNL     1      -1.659   9.731  17.206  0.00  0.00    +0.000 A 
ATOM     26  C   UNL     1      -2.543  10.013  16.208  0.00  0.00    +0.000 A 
ATOM     27  C   UNL     1      -3.538  10.955  16.439  0.00  0.00    +0.000 A 
ATOM     28  F   UNL     1      -4.408  11.224  15.467  0.00  0.00    +0.000 F 
ATOM     29  C   UNL     1      -3.628  11.579  17.673  0.00  0.00    +0.000 A 
ATOM     30  C   UNL     1      -2.682  11.317  18.665  0.00  0.00    +0.000 A 
ENDBRANCH  23  24
ENDBRANCH  20  23
ENDBRANCH   9  20
BRANCH   1  32
ATOM     31  C   UNL     1       7.168   7.392  17.061  0.00  0.00    +0.000 C 
ATOM     32  O   UNL     1       5.807   7.308  16.657  0.00  0.00    +0.000 OA
ENDBRANCH   1  32
TORSDOF 5
ENDMDL
