MODEL 1
REMARK VINA RESULT:      -8.3      0.000      0.000
REMARK  Name = 
REMARK  11 active torsions:
REMARK  status: ('A' for Active; 'I' for Inactive)
REMARK    1  A    between atoms: C_1  and  O_2
REMARK    2  A    between atoms: O_2  and  C_3
REMARK    3  A    between atoms: C_3  and  C_4
REMARK    4  A    between atoms: C_12  and  C_13
REMARK    5  A    between atoms: C_14  and  C_15
REMARK    6  A    between atoms: C_15  and  O_17
REMARK    7  A    between atoms: O_17  and  C_18
REMARK    8  A    between atoms: C_18  and  C_19
REMARK    9  A    between atoms: N_21  and  C_22
REMARK   10  A    between atoms: C_22  and  C_23
REMARK   11  A    between atoms: C_23  and  N_24
REMARK                            x       y       z     vdW  Elec       q    Type
REMARK                         _______ _______ _______ _____ _____    ______ ____
ROOT
ATOM      1  C   UNL     1       1.498   8.944  18.886  0.00  0.00    +0.000 C 
ENDROOT
BRANCH   1   2
ATOM      2  C   UNL     1       1.983   7.663  19.582  0.00  0.00    +0.000 C 
ATOM      3  O   UNL     1       1.624   7.374  20.720  0.00  0.00    +0.000 OA
ATOM      4  N   UNL     1       2.845   6.889  18.834  0.00  0.00    +0.000 N 
ATOM      5  H   UNL     1       3.275   7.323  18.022  0.00  0.00    +0.000 HD
BRANCH   4   6
ATOM      6  C   UNL     1       3.451   5.664  19.339  0.00  0.00    +0.000 C 
BRANCH   6   7
ATOM      7  C   UNL     1       4.291   4.830  18.281  0.00  0.00    +0.000 C 
ATOM      8  C   UNL     1       4.960   3.653  19.053  0.00  0.00    +0.000 C 
ATOM      9  C   UNL     1       4.013   2.584  19.591  0.00  0.00    +0.000 C 
ATOM     10  C   UNL     1       3.137   2.024  18.483  0.00  0.00    +0.000 C 
ATOM     11  C   UNL     1       2.359   3.139  17.801  0.00  0.00    +0.000 C 
ATOM     12  C   UNL     1       3.293   4.219  17.238  0.00  0.00    +0.000 C 
BRANCH   7  13
ATOM     13  N   UNL     1       5.275   5.734  17.572  0.00  0.00    +0.000 NA
ATOM     14  C   UNL     1       5.579   5.473  16.149  0.00  0.00    +0.000 C 
ATOM     15  C   UNL     1       6.610   4.365  15.871  0.00  0.00    +0.000 C 
ATOM     16  O   UNL     1       7.799   4.450  16.661  0.00  0.00    +0.000 OA
ATOM     17  C   UNL     1       7.622   4.856  18.018  0.00  0.00    +0.000 C 
ATOM     18  C   UNL     1       6.581   5.969  18.217  0.00  0.00    +0.000 C 
ENDBRANCH   7  13
ENDBRANCH   6   7
ENDBRANCH   4   6
ENDBRANCH   1   2
BRANCH   1  19
ATOM     19  O   UNL     1       0.614   9.747  19.665  0.00  0.00    +0.000 OA
BRANCH  19  20
ATOM     20  C   UNL     1       0.494  11.036  19.263  0.00  0.00    +0.000 C 
ATOM     21  O   UNL     1       1.399  11.710  18.797  0.00  0.00    +0.000 OA
BRANCH  20  32
ATOM     22  C   UNL     1      -1.215  12.160  20.675  0.00  0.00    +0.000 A 
ATOM     23  N   UNL     1      -2.480  12.564  20.980  0.00  0.00    +0.000 NA
ATOM     24  C   UNL     1      -3.469  12.366  20.103  0.00  0.00    +0.000 A 
ATOM     25  C   UNL     1      -4.735  12.791  20.481  0.00  0.00    +0.000 A 
ATOM     26  C   UNL     1      -5.850  12.625  19.649  0.00  0.00    +0.000 A 
ATOM     27  C   UNL     1      -5.684  12.028  18.416  0.00  0.00    +0.000 A 
ATOM     28  C   UNL     1      -4.415  11.599  18.016  0.00  0.00    +0.000 A 
ATOM     29  C   UNL     1      -3.275  11.747  18.847  0.00  0.00    +0.000 A 
ATOM     30  C   UNL     1      -1.945  11.307  18.531  0.00  0.00    +0.000 A 
ATOM     31  C   UNL     1      -1.655  10.605  17.221  0.00  0.00    +0.000 C 
ATOM     32  C   UNL     1      -0.902  11.526  19.468  0.00  0.00    +0.000 A 
BRANCH  22  33
ATOM     33  C   UNL     1      -0.199  12.456  21.754  0.00  0.00    +0.000 C 
BRANCH  33  35
ATOM     34  C   UNL     1      -0.634  10.478  22.940  0.00  0.00    +0.000 C 
ATOM     35  O   UNL     1      -0.615  11.899  23.005  0.00  0.00    +0.000 OA
ENDBRANCH  33  35
ENDBRANCH  22  33
ENDBRANCH  20  32
ENDBRANCH  19  20
ENDBRANCH   1  19
TORSDOF 9
ENDMDL
MODEL 2
REMARK VINA RESULT:      -8.1      1.425      2.748
REMARK  Name = 
REMARK  11 active torsions:
REMARK  status: ('A' for Active; 'I' for Inactive)
REMARK    1  A    between atoms: C_1  and  O_2
REMARK    2  A    between atoms: O_2  and  C_3
REMARK    3  A    between atoms: C_3  and  C_4
REMARK    4  A    between atoms: C_12  and  C_13
REMARK    5  A    between atoms: C_14  and  C_15
REMARK    6  A    between atoms: C_15  and  O_17
REMARK    7  A    between atoms: O_17  and  C_18
REMARK    8  A    between atoms: C_18  and  C_19
REMARK    9  A    between atoms: N_21  and  C_22
REMARK   10  A    between atoms: C_22  and  C_23
REMARK   11  A    between atoms: C_23  and  N_24
REMARK                            x       y       z     vdW  Elec       q    Type
REMARK                         _______ _______ _______ _____ _____    ______ ____
ROOT
ATOM      1  C   UNL     1       1.918   8.951  18.709  0.00  0.00    +0.000 C 
ENDROOT
BRANCH   1   2
ATOM      2  C   UNL     1       2.080   7.558  19.335  0.00  0.00    +0.000 C 
ATOM      3  O   UNL     1       1.616   7.291  20.440  0.00  0.00    +0.000 OA
ATOM      4  N   UNL     1       2.784   6.656  18.564  0.00  0.00    +0.000 N 
ATOM      5  H   UNL     1       3.334   7.030  17.795  0.00  0.00    +0.000 HD
BRANCH   4   6
ATOM      6  C   UNL     1       3.084   5.301  19.006  0.00  0.00    +0.000 C 
BRANCH   6   7
ATOM      7  C   UNL     1       4.208   4.545  18.176  0.00  0.00    +0.000 C 
ATOM      8  C   UNL     1       4.958   3.608  19.171  0.00  0.00    +0.000 C 
ATOM      9  C   UNL     1       4.152   2.434  19.718  0.00  0.00    +0.000 C 
ATOM     10  C   UNL     1       3.564   1.602  18.591  0.00  0.00    +0.000 C 
ATOM     11  C   UNL     1       2.705   2.467  17.680  0.00  0.00    +0.000 C 
ATOM     12  C   UNL     1       3.501   3.646  17.104  0.00  0.00    +0.000 C 
BRANCH   7  13
ATOM     13  N   UNL     1       5.105   5.548  17.486  0.00  0.00    +0.000 NA
ATOM     14  C   UNL     1       5.401   5.363  16.048  0.00  0.00    +0.000 C 
ATOM     15  C   UNL     1       6.508   4.350  15.712  0.00  0.00    +0.000 C 
ATOM     16  O   UNL     1       7.702   4.498  16.484  0.00  0.00    +0.000 OA
ATOM     17  C   UNL     1       7.521   4.839  17.859  0.00  0.00    +0.000 C 
ATOM     18  C   UNL     1       6.402   5.860  18.117  0.00  0.00    +0.000 C 
ENDBRANCH   7  13
ENDBRANCH   6   7
ENDBRANCH   4   6
ENDBRANCH   1   2
BRANCH   1  19
ATOM     19  O   UNL     1       0.616   9.518  18.845  0.00  0.00    +0.000 OA
BRANCH  19  20
ATOM     20  C   UNL     1       0.578  10.868  18.951  0.00  0.00    +0.000 C 
ATOM     21  O   UNL     1       1.416  11.629  18.496  0.00  0.00    +0.000 OA
BRANCH  20  32
ATOM     22  C   UNL     1      -1.732  11.786  18.980  0.00  0.00    +0.000 A 
ATOM     23  N   UNL     1      -2.847  12.282  19.587  0.00  0.00    +0.000 NA
ATOM     24  C   UNL     1      -2.918  12.310  20.921  0.00  0.00    +0.000 A 
ATOM     25  C   UNL     1      -4.076  12.839  21.474  0.00  0.00    +0.000 A 
ATOM     26  C   UNL     1      -4.258  12.932  22.860  0.00  0.00    +0.000 A 
ATOM     27  C   UNL     1      -3.261  12.479  23.699  0.00  0.00    +0.000 A 
ATOM     28  C   UNL     1      -2.090  11.937  23.160  0.00  0.00    +0.000 A 
ATOM     29  C   UNL     1      -1.881  11.845  21.760  0.00  0.00    +0.000 A 
ATOM     30  C   UNL     1      -0.699  11.336  21.121  0.00  0.00    +0.000 A 
ATOM     31  C   UNL     1       0.474  10.847  21.945  0.00  0.00    +0.000 C 
ATOM     32  C   UNL     1      -0.635  11.306  19.704  0.00  0.00    +0.000 A 
BRANCH  22  33
ATOM     33  C   UNL     1      -1.794  11.806  17.469  0.00  0.00    +0.000 C 
BRANCH  33  35
ATOM     34  C   UNL     1      -2.716  10.712  15.609  0.00  0.00    +0.000 C 
ATOM     35  O   UNL     1      -2.325  10.575  16.970  0.00  0.00    +0.000 OA
ENDBRANCH  33  35
ENDBRANCH  22  33
ENDBRANCH  20  32
ENDBRANCH  19  20
ENDBRANCH   1  19
TORSDOF 9
ENDMDL
MODEL 3
REMARK VINA RESULT:      -8.1      1.874      2.628
REMARK  Name = 
REMARK  11 active torsions:
REMARK  status: ('A' for Active; 'I' for Inactive)
REMARK    1  A    between atoms: C_1  and  O_2
REMARK    2  A    between atoms: O_2  and  C_3
REMARK    3  A    between atoms: C_3  and  C_4
REMARK    4  A    between atoms: C_12  and  C_13
REMARK    5  A    between atoms: C_14  and  C_15
REMARK    6  A    between atoms: C_15  and  O_17
REMARK    7  A    between atoms: O_17  and  C_18
REMARK    8  A    between atoms: C_18  and  C_19
REMARK    9  A    between atoms: N_21  and  C_22
REMARK   10  A    between atoms: C_22  and  C_23
REMARK   11  A    between atoms: C_23  and  N_24
REMARK                            x       y       z     vdW  Elec       q    Type
REMARK                         _______ _______ _______ _____ _____    ______ ____
ROOT
ATOM      1  C   UNL     1       1.433   9.475  21.987  0.00  0.00    +0.000 C 
ENDROOT
BRANCH   1   2
ATOM      2  C   UNL     1       0.774   8.196  21.448  0.00  0.00    +0.000 C 
ATOM      3  O   UNL     1      -0.439   8.019  21.517  0.00  0.00    +0.000 OA
ATOM      4  N   UNL     1       1.649   7.283  20.899  0.00  0.00    +0.000 N 
ATOM      5  H   UNL     1       2.636   7.399  21.110  0.00  0.00    +0.000 HD
BRANCH   4   6
ATOM      6  C   UNL     1       1.222   5.990  20.381  0.00  0.00    +0.000 C 
BRANCH   6   7
ATOM      7  C   UNL     1       2.384   5.056  19.833  0.00  0.00    +0.000 C 
ATOM      8  C   UNL     1       2.906   4.219  21.041  0.00  0.00    +0.000 C 
ATOM      9  C   UNL     1       1.935   3.186  21.605  0.00  0.00    +0.000 C 
ATOM     10  C   UNL     1       1.444   2.246  20.517  0.00  0.00    +0.000 C 
ATOM     11  C   UNL     1       0.798   3.029  19.384  0.00  0.00    +0.000 C 
ATOM     12  C   UNL     1       1.762   4.064  18.790  0.00  0.00    +0.000 C 
BRANCH   7  13
ATOM     13  N   UNL     1       3.450   5.894  19.164  0.00  0.00    +0.000 NA
ATOM     14  C   UNL     1       3.440   6.009  17.689  0.00  0.00    +0.000 C 
ATOM     15  C   UNL     1       4.072   4.838  16.917  0.00  0.00    +0.000 C 
ATOM     16  O   UNL     1       5.349   4.425  17.407  0.00  0.00    +0.000 OA
ATOM     17  C   UNL     1       5.510   4.437  18.826  0.00  0.00    +0.000 C 
ATOM     18  C   UNL     1       4.856   5.638  19.528  0.00  0.00    +0.000 C 
ENDBRANCH   7  13
ENDBRANCH   6   7
ENDBRANCH   4   6
ENDBRANCH   1   2
BRANCH   1  19
ATOM     19  O   UNL     1       0.578  10.616  22.022  0.00  0.00    +0.000 OA
BRANCH  19  20
ATOM     20  C   UNL     1       0.759  11.510  21.018  0.00  0.00    +0.000 C 
ATOM     21  O   UNL     1       1.742  12.221  20.885  0.00  0.00    +0.000 OA
BRANCH  20  32
ATOM     22  C   UNL     1      -1.543  12.248  20.444  0.00  0.00    +0.000 A 
ATOM     23  N   UNL     1      -2.684  12.237  19.698  0.00  0.00    +0.000 NA
ATOM     24  C   UNL     1      -2.739  11.506  18.581  0.00  0.00    +0.000 A 
ATOM     25  C   UNL     1      -3.934  11.531  17.876  0.00  0.00    +0.000 A 
ATOM     26  C   UNL     1      -4.113  10.794  16.697  0.00  0.00    +0.000 A 
ATOM     27  C   UNL     1      -3.069  10.029  16.221  0.00  0.00    +0.000 A 
ATOM     28  C   UNL     1      -1.856   9.997  16.914  0.00  0.00    +0.000 A 
ATOM     29  C   UNL     1      -1.658  10.725  18.115  0.00  0.00    +0.000 A 
ATOM     30  C   UNL     1      -0.459  10.724  18.908  0.00  0.00    +0.000 A 
ATOM     31  C   UNL     1       0.736   9.889  18.499  0.00  0.00    +0.000 C 
ATOM     32  C   UNL     1      -0.410  11.507  20.090  0.00  0.00    +0.000 A 
BRANCH  22  33
ATOM     33  C   UNL     1      -1.621  13.124  21.673  0.00  0.00    +0.000 C 
BRANCH  33  35
ATOM     34  C   UNL     1      -3.032  14.876  22.344  0.00  0.00    +0.000 C 
ATOM     35  O   UNL     1      -2.136  14.417  21.339  0.00  0.00    +0.000 OA
ENDBRANCH  33  35
ENDBRANCH  22  33
ENDBRANCH  20  32
ENDBRANCH  19  20
ENDBRANCH   1  19
TORSDOF 9
ENDMDL
MODEL 4
REMARK VINA RESULT:      -8.0      2.044      3.235
REMARK  Name = 
REMARK  11 active torsions:
REMARK  status: ('A' for Active; 'I' for Inactive)
REMARK    1  A    between atoms: C_1  and  O_2
REMARK    2  A    between atoms: O_2  and  C_3
REMARK    3  A    between atoms: C_3  and  C_4
REMARK    4  A    between atoms: C_12  and  C_13
REMARK    5  A    between atoms: C_14  and  C_15
REMARK    6  A    between atoms: C_15  and  O_17
REMARK    7  A    between atoms: O_17  and  C_18
REMARK    8  A    between atoms: C_18  and  C_19
REMARK    9  A    between atoms: N_21  and  C_22
REMARK   10  A    between atoms: C_22  and  C_23
REMARK   11  A    between atoms: C_23  and  N_24
REMARK                            x       y       z     vdW  Elec       q    Type
REMARK                         _______ _______ _______ _____ _____    ______ ____
ROOT
ATOM      1  C   UNL     1       0.947   9.705  19.460  0.00  0.00    +0.000 C 
ENDROOT
BRANCH   1   2
ATOM      2  C   UNL     1       1.792   8.920  18.445  0.00  0.00    +0.000 C 
ATOM      3  O   UNL     1       2.044   9.372  17.332  0.00  0.00    +0.000 OA
ATOM      4  N   UNL     1       2.225   7.687  18.885  0.00  0.00    +0.000 N 
ATOM      5  H   UNL     1       1.768   7.298  19.705  0.00  0.00    +0.000 HD
BRANCH   4   6
ATOM      6  C   UNL     1       2.996   6.775  18.051  0.00  0.00    +0.000 C 
BRANCH   6   7
ATOM      7  C   UNL     1       3.101   5.283  18.586  0.00  0.00    +0.000 C 
ATOM      8  C   UNL     1       3.517   4.392  17.376  0.00  0.00    +0.000 C 
ATOM      9  C   UNL     1       4.928   4.615  16.839  0.00  0.00    +0.000 C 
ATOM     10  C   UNL     1       5.961   4.477  17.944  0.00  0.00    +0.000 C 
ATOM     11  C   UNL     1       5.660   5.442  19.082  0.00  0.00    +0.000 C 
ATOM     12  C   UNL     1       4.251   5.225  19.649  0.00  0.00    +0.000 C 
BRANCH   7  13
ATOM     13  N   UNL     1       1.795   4.870  19.227  0.00  0.00    +0.000 NA
ATOM     14  C   UNL     1       1.723   4.792  20.703  0.00  0.00    +0.000 C 
ATOM     15  C   UNL     1       2.282   3.507  21.338  0.00  0.00    +0.000 C 
ATOM     16  O   UNL     1       1.834   2.297  20.721  0.00  0.00    +0.000 OA
ATOM     17  C   UNL     1       1.714   2.327  19.298  0.00  0.00    +0.000 C 
ATOM     18  C   UNL     1       1.145   3.640  18.737  0.00  0.00    +0.000 C 
ENDBRANCH   7  13
ENDBRANCH   6   7
ENDBRANCH   4   6
ENDBRANCH   1   2
BRANCH   1  19
ATOM     19  O   UNL     1      -0.364  10.043  19.009  0.00  0.00    +0.000 OA
BRANCH  19  20
ATOM     20  C   UNL     1      -0.569  11.357  18.750  0.00  0.00    +0.000 C 
ATOM     21  O   UNL     1       0.294  12.142  18.391  0.00  0.00    +0.000 OA
BRANCH  20  32
ATOM     22  C   UNL     1      -2.368  12.302  20.181  0.00  0.00    +0.000 A 
ATOM     23  N   UNL     1      -3.663  12.590  20.492  0.00  0.00    +0.000 NA
ATOM     24  C   UNL     1      -4.632  12.324  19.610  0.00  0.00    +0.000 A 
ATOM     25  C   UNL     1      -5.929  12.631  19.995  0.00  0.00    +0.000 A 
ATOM     26  C   UNL     1      -7.026  12.385  19.159  0.00  0.00    +0.000 A 
ATOM     27  C   UNL     1      -6.809  11.828  17.915  0.00  0.00    +0.000 A 
ATOM     28  C   UNL     1      -5.509  11.519  17.508  0.00  0.00    +0.000 A 
ATOM     29  C   UNL     1      -4.386  11.748  18.343  0.00  0.00    +0.000 A 
ATOM     30  C   UNL     1      -3.022  11.430  18.020  0.00  0.00    +0.000 A 
ATOM     31  C   UNL     1      -2.674  10.781  16.698  0.00  0.00    +0.000 C 
ATOM     32  C   UNL     1      -2.001  11.721  18.962  0.00  0.00    +0.000 A 
BRANCH  22  33
ATOM     33  C   UNL     1      -1.380  12.664  21.267  0.00  0.00    +0.000 C 
BRANCH  33  35
ATOM     34  C   UNL     1      -1.613  13.579  23.416  0.00  0.00    +0.000 C 
ATOM     35  O   UNL     1      -1.971  12.501  22.560  0.00  0.00    +0.000 OA
ENDBRANCH  33  35
ENDBRANCH  22  33
ENDBRANCH  20  32
ENDBRANCH  19  20
ENDBRANCH   1  19
TORSDOF 9
ENDMDL
MODEL 5
REMARK VINA RESULT:      -8.0      1.298      1.720
REMARK  Name = 
REMARK  11 active torsions:
REMARK  status: ('A' for Active; 'I' for Inactive)
REMARK    1  A    between atoms: C_1  and  O_2
REMARK    2  A    between atoms: O_2  and  C_3
REMARK    3  A    between atoms: C_3  and  C_4
REMARK    4  A    between atoms: C_12  and  C_13
REMARK    5  A    between atoms: C_14  and  C_15
REMARK    6  A    between atoms: C_15  and  O_17
REMARK    7  A    between atoms: O_17  and  C_18
REMARK    8  A    between atoms: C_18  and  C_19
REMARK    9  A    between atoms: N_21  and  C_22
REMARK   10  A    between atoms: C_22  and  C_23
REMARK   11  A    between atoms: C_23  and  N_24
REMARK                            x       y       z     vdW  Elec       q    Type
REMARK                         _______ _______ _______ _____ _____    ______ ____
ROOT
ATOM      1  C   UNL     1       1.399   9.358  19.650  0.00  0.00    +0.000 C 
ENDROOT
BRANCH   1   2
ATOM      2  C   UNL     1       1.988   8.493  18.525  0.00  0.00    +0.000 C 
ATOM      3  O   UNL     1       2.195   8.950  17.404  0.00  0.00    +0.000 OA
ATOM      4  N   UNL     1       2.250   7.186  18.878  0.00  0.00    +0.000 N 
ATOM      5  H   UNL     1       1.821   6.839  19.732  0.00  0.00    +0.000 HD
BRANCH   4   6
ATOM      6  C   UNL     1       2.763   6.199  17.937  0.00  0.00    +0.000 C 
BRANCH   6   7
ATOM      7  C   UNL     1       3.391   4.895  18.589  0.00  0.00    +0.000 C 
ATOM      8  C   UNL     1       3.052   4.936  20.110  0.00  0.00    +0.000 C 
ATOM      9  C   UNL     1       1.578   4.767  20.469  0.00  0.00    +0.000 C 
ATOM     10  C   UNL     1       1.010   3.496  19.861  0.00  0.00    +0.000 C 
ATOM     11  C   UNL     1       1.200   3.493  18.351  0.00  0.00    +0.000 C 
ATOM     12  C   UNL     1       2.678   3.646  17.968  0.00  0.00    +0.000 C 
BRANCH   7  13
ATOM     13  N   UNL     1       4.873   4.832  18.296  0.00  0.00    +0.000 NA
ATOM     14  C   UNL     1       5.642   6.096  18.254  0.00  0.00    +0.000 C 
ATOM     15  C   UNL     1       5.556   6.894  16.942  0.00  0.00    +0.000 C 
ATOM     16  O   UNL     1       5.752   6.116  15.759  0.00  0.00    +0.000 OA
ATOM     17  C   UNL     1       5.181   4.807  15.768  0.00  0.00    +0.000 C 
ATOM     18  C   UNL     1       5.309   4.069  17.110  0.00  0.00    +0.000 C 
ENDBRANCH   7  13
ENDBRANCH   6   7
ENDBRANCH   4   6
ENDBRANCH   1   2
BRANCH   1  19
ATOM     19  O   UNL     1       0.055   9.784  19.432  0.00  0.00    +0.000 OA
BRANCH  19  20
ATOM     20  C   UNL     1      -0.089  11.067  19.020  0.00  0.00    +0.000 C 
ATOM     21  O   UNL     1       0.818  11.779  18.621  0.00  0.00    +0.000 OA
BRANCH  20  32
ATOM     22  C   UNL     1      -1.924  12.194  20.261  0.00  0.00    +0.000 A 
ATOM     23  N   UNL     1      -3.221  12.553  20.472  0.00  0.00    +0.000 NA
ATOM     24  C   UNL     1      -4.151  12.245  19.562  0.00  0.00    +0.000 A 
ATOM     25  C   UNL     1      -5.455  12.629  19.845  0.00  0.00    +0.000 A 
ATOM     26  C   UNL     1      -6.514  12.349  18.973  0.00  0.00    +0.000 A 
ATOM     27  C   UNL     1      -6.253  11.679  17.795  0.00  0.00    +0.000 A 
ATOM     28  C   UNL     1      -4.946  11.290  17.490  0.00  0.00    +0.000 A 
ATOM     29  C   UNL     1      -3.861  11.553  18.365  0.00  0.00    +0.000 A 
ATOM     30  C   UNL     1      -2.495  11.161  18.149  0.00  0.00    +0.000 A 
ATOM     31  C   UNL     1      -2.103  10.387  16.908  0.00  0.00    +0.000 C 
ATOM     32  C   UNL     1      -1.516  11.497  19.118  0.00  0.00    +0.000 A 
BRANCH  22  33
ATOM     33  C   UNL     1      -0.982  12.616  21.366  0.00  0.00    +0.000 C 
BRANCH  33  35
ATOM     34  C   UNL     1      -0.820  10.784  22.825  0.00  0.00    +0.000 C 
ATOM     35  O   UNL     1      -1.399  12.067  22.620  0.00  0.00    +0.000 OA
ENDBRANCH  33  35
ENDBRANCH  22  33
ENDBRANCH  20  32
ENDBRANCH  19  20
ENDBRANCH   1  19
TORSDOF 9
ENDMDL
MODEL 6
REMARK VINA RESULT:      -7.9      0.973      1.384
REMARK  Name = 
REMARK  11 active torsions:
REMARK  status: ('A' for Active; 'I' for Inactive)
REMARK    1  A    between atoms: C_1  and  O_2
REMARK    2  A    between atoms: O_2  and  C_3
REMARK    3  A    between atoms: C_3  and  C_4
REMARK    4  A    between atoms: C_12  and  C_13
REMARK    5  A    between atoms: C_14  and  C_15
REMARK    6  A    between atoms: C_15  and  O_17
REMARK    7  A    between atoms: O_17  and  C_18
REMARK    8  A    between atoms: C_18  and  C_19
REMARK    9  A    between atoms: N_21  and  C_22
REMARK   10  A    between atoms: C_22  and  C_23
REMARK   11  A    between atoms: C_23  and  N_24
REMARK                            x       y       z     vdW  Elec       q    Type
REMARK                         _______ _______ _______ _____ _____    ______ ____
ROOT
ATOM      1  C   UNL     1       1.687   8.533  18.519  0.00  0.00    +0.000 C 
ENDROOT
BRANCH   1   2
ATOM      2  C   UNL     1       2.302   7.367  19.309  0.00  0.00    +0.000 C 
ATOM      3  O   UNL     1       1.978   7.135  20.471  0.00  0.00    +0.000 OA
ATOM      4  N   UNL     1       3.233   6.626  18.613  0.00  0.00    +0.000 N 
ATOM      5  H   UNL     1       3.614   7.035  17.764  0.00  0.00    +0.000 HD
BRANCH   4   6
ATOM      6  C   UNL     1       3.962   5.512  19.206  0.00  0.00    +0.000 C 
BRANCH   6   7
ATOM      7  C   UNL     1       4.006   4.184  18.336  0.00  0.00    +0.000 C 
ATOM      8  C   UNL     1       3.853   2.987  19.322  0.00  0.00    +0.000 C 
ATOM      9  C   UNL     1       2.493   2.853  20.001  0.00  0.00    +0.000 C 
ATOM     10  C   UNL     1       1.373   2.806  18.976  0.00  0.00    +0.000 C 
ATOM     11  C   UNL     1       1.410   4.039  18.085  0.00  0.00    +0.000 C 
ATOM     12  C   UNL     1       2.765   4.185  17.379  0.00  0.00    +0.000 C 
BRANCH   7  13
ATOM     13  N   UNL     1       5.278   4.143  17.518  0.00  0.00    +0.000 NA
ATOM     14  C   UNL     1       6.493   4.785  18.066  0.00  0.00    +0.000 C 
ATOM     15  C   UNL     1       6.591   6.309  17.887  0.00  0.00    +0.000 C 
ATOM     16  O   UNL     1       6.297   6.772  16.566  0.00  0.00    +0.000 OA
ATOM     17  C   UNL     1       5.236   6.099  15.888  0.00  0.00    +0.000 C 
ATOM     18  C   UNL     1       5.205   4.578  16.110  0.00  0.00    +0.000 C 
ENDBRANCH   7  13
ENDBRANCH   6   7
ENDBRANCH   4   6
ENDBRANCH   1   2
BRANCH   1  19
ATOM     19  O   UNL     1       0.799   9.358  19.271  0.00  0.00    +0.000 OA
BRANCH  19  20
ATOM     20  C   UNL     1       0.715  10.647  18.859  0.00  0.00    +0.000 C 
ATOM     21  O   UNL     1       1.648  11.306  18.430  0.00  0.00    +0.000 OA
BRANCH  20  32
ATOM     22  C   UNL     1      -0.987  11.967  20.099  0.00  0.00    +0.000 A 
ATOM     23  N   UNL     1      -2.252  12.409  20.351  0.00  0.00    +0.000 NA
ATOM     24  C   UNL     1      -3.248  12.074  19.525  0.00  0.00    +0.000 A 
ATOM     25  C   UNL     1      -4.512  12.547  19.846  0.00  0.00    +0.000 A 
ATOM     26  C   UNL     1      -5.635  12.251  19.062  0.00  0.00    +0.000 A 
ATOM     27  C   UNL     1      -5.476  11.472  17.934  0.00  0.00    +0.000 A 
ATOM     28  C   UNL     1      -4.209  10.992  17.591  0.00  0.00    +0.000 A 
ATOM     29  C   UNL     1      -3.063  11.270  18.378  0.00  0.00    +0.000 A 
ATOM     30  C   UNL     1      -1.732  10.792  18.120  0.00  0.00    +0.000 A 
ATOM     31  C   UNL     1      -1.452   9.899  16.930  0.00  0.00    +0.000 C 
ATOM     32  C   UNL     1      -0.682  11.157  19.000  0.00  0.00    +0.000 A 
BRANCH  22  33
ATOM     33  C   UNL     1       0.038  12.430  21.110  0.00  0.00    +0.000 C 
BRANCH  33  35
ATOM     34  C   UNL     1      -0.698  10.955  22.780  0.00  0.00    +0.000 C 
ATOM     35  O   UNL     1       0.407  11.357  21.980  0.00  0.00    +0.000 OA
ENDBRANCH  33  35
ENDBRANCH  22  33
ENDBRANCH  20  32
ENDBRANCH  19  20
ENDBRANCH   1  19
TORSDOF 9
ENDMDL
MODEL 7
REMARK VINA RESULT:      -7.9      1.950      3.938
REMARK  Name = 
REMARK  11 active torsions:
REMARK  status: ('A' for Active; 'I' for Inactive)
REMARK    1  A    between atoms: C_1  and  O_2
REMARK    2  A    between atoms: O_2  and  C_3
REMARK    3  A    between atoms: C_3  and  C_4
REMARK    4  A    between atoms: C_12  and  C_13
REMARK    5  A    between atoms: C_14  and  C_15
REMARK    6  A    between atoms: C_15  and  O_17
REMARK    7  A    between atoms: O_17  and  C_18
REMARK    8  A    between atoms: C_18  and  C_19
REMARK    9  A    between atoms: N_21  and  C_22
REMARK   10  A    between atoms: C_22  and  C_23
REMARK   11  A    between atoms: C_23  and  N_24
REMARK                            x       y       z     vdW  Elec       q    Type
REMARK                         _______ _______ _______ _____ _____    ______ ____
ROOT
ATOM      1  C   UNL     1       1.166   9.337  19.398  0.00  0.00    +0.000 C 
ENDROOT
BRANCH   1   2
ATOM      2  C   UNL     1       2.061   8.724  18.310  0.00  0.00    +0.000 C 
ATOM      3  O   UNL     1       2.196   9.258  17.212  0.00  0.00    +0.000 OA
ATOM      4  N   UNL     1       2.679   7.544  18.667  0.00  0.00    +0.000 N 
ATOM      5  H   UNL     1       2.318   7.058  19.483  0.00  0.00    +0.000 HD
BRANCH   4   6
ATOM      6  C   UNL     1       3.526   6.787  17.755  0.00  0.00    +0.000 C 
BRANCH   6   7
ATOM      7  C   UNL     1       3.837   5.292  18.194  0.00  0.00    +0.000 C 
ATOM      8  C   UNL     1       4.277   4.522  16.912  0.00  0.00    +0.000 C 
ATOM      9  C   UNL     1       5.615   4.940  16.310  0.00  0.00    +0.000 C 
ATOM     10  C   UNL     1       6.725   4.870  17.344  0.00  0.00    +0.000 C 
ATOM     11  C   UNL     1       6.387   5.731  18.552  0.00  0.00    +0.000 C 
ATOM     12  C   UNL     1       5.051   5.317  19.184  0.00  0.00    +0.000 C 
BRANCH   7  13
ATOM     13  N   UNL     1       2.631   4.694  18.883  0.00  0.00    +0.000 NA
ATOM     14  C   UNL     1       2.831   3.965  20.155  0.00  0.00    +0.000 C 
ATOM     15  C   UNL     1       3.310   2.508  20.030  0.00  0.00    +0.000 C 
ATOM     16  O   UNL     1       2.585   1.725  19.079  0.00  0.00    +0.000 OA
ATOM     17  C   UNL     1       2.202   2.395  17.877  0.00  0.00    +0.000 C 
ATOM     18  C   UNL     1       1.731   3.843  18.081  0.00  0.00    +0.000 C 
ENDBRANCH   7  13
ENDBRANCH   6   7
ENDBRANCH   4   6
ENDBRANCH   1   2
BRANCH   1  19
ATOM     19  O   UNL     1      -0.124   9.745  18.948  0.00  0.00    +0.000 OA
BRANCH  19  20
ATOM     20  C   UNL     1      -0.296  11.083  18.813  0.00  0.00    +0.000 C 
ATOM     21  O   UNL     1       0.593  11.880  18.562  0.00  0.00    +0.000 OA
BRANCH  20  32
ATOM     22  C   UNL     1      -2.633  11.205  17.975  0.00  0.00    +0.000 A 
ATOM     23  N   UNL     1      -3.940  11.586  18.039  0.00  0.00    +0.000 NA
ATOM     24  C   UNL     1      -4.395  12.215  19.127  0.00  0.00    +0.000 A 
ATOM     25  C   UNL     1      -5.733  12.585  19.122  0.00  0.00    +0.000 A 
ATOM     26  C   UNL     1      -6.318  13.260  20.201  0.00  0.00    +0.000 A 
ATOM     27  C   UNL     1      -5.544  13.557  21.304  0.00  0.00    +0.000 A 
ATOM     28  C   UNL     1      -4.197  13.186  21.330  0.00  0.00    +0.000 A 
ATOM     29  C   UNL     1      -3.582  12.514  20.243  0.00  0.00    +0.000 A 
ATOM     30  C   UNL     1      -2.200  12.126  20.171  0.00  0.00    +0.000 A 
ATOM     31  C   UNL     1      -1.251  12.437  21.309  0.00  0.00    +0.000 C 
ATOM     32  C   UNL     1      -1.729  11.455  19.013  0.00  0.00    +0.000 A 
BRANCH  22  33
ATOM     33  C   UNL     1      -2.261  10.498  16.692  0.00  0.00    +0.000 C 
BRANCH  33  35
ATOM     34  C   UNL     1      -3.138  10.149  14.543  0.00  0.00    +0.000 C 
ATOM     35  O   UNL     1      -2.918  11.103  15.574  0.00  0.00    +0.000 OA
ENDBRANCH  33  35
ENDBRANCH  22  33
ENDBRANCH  20  32
ENDBRANCH  19  20
ENDBRANCH   1  19
TORSDOF 9
ENDMDL
MODEL 8
REMARK VINA RESULT:      -7.9      2.483      3.771
REMARK  Name = 
REMARK  11 active torsions:
REMARK  status: ('A' for Active; 'I' for Inactive)
REMARK    1  A    between atoms: C_1  and  O_2
REMARK    2  A    between atoms: O_2  and  C_3
REMARK    3  A    between atoms: C_3  and  C_4
REMARK    4  A    between atoms: C_12  and  C_13
REMARK    5  A    between atoms: C_14  and  C_15
REMARK    6  A    between atoms: C_15  and  O_17
REMARK    7  A    between atoms: O_17  and  C_18
REMARK    8  A    between atoms: C_18  and  C_19
REMARK    9  A    between atoms: N_21  and  C_22
REMARK   10  A    between atoms: C_22  and  C_23
REMARK   11  A    between atoms: C_23  and  N_24
REMARK                            x       y       z     vdW  Elec       q    Type
REMARK                         _______ _______ _______ _____ _____    ______ ____
ROOT
ATOM      1  C   UNL     1       1.837   8.394  18.970  0.00  0.00    +0.000 C 
ENDROOT
BRANCH   1   2
ATOM      2  C   UNL     1       2.353   7.077  19.570  0.00  0.00    +0.000 C 
ATOM      3  O   UNL     1       1.885   6.615  20.607  0.00  0.00    +0.000 OA
ATOM      4  N   UNL     1       3.372   6.478  18.859  0.00  0.00    +0.000 N 
ATOM      5  H   UNL     1       3.856   7.047  18.169  0.00  0.00    +0.000 HD
BRANCH   4   6
ATOM      6  C   UNL     1       4.026   5.251  19.294  0.00  0.00    +0.000 C 
BRANCH   6   7
ATOM      7  C   UNL     1       4.023   4.064  18.239  0.00  0.00    +0.000 C 
ATOM      8  C   UNL     1       3.826   2.742  19.041  0.00  0.00    +0.000 C 
ATOM      9  C   UNL     1       2.462   2.559  19.700  0.00  0.00    +0.000 C 
ATOM     10  C   UNL     1       1.341   2.702  18.684  0.00  0.00    +0.000 C 
ATOM     11  C   UNL     1       1.423   4.050  17.983  0.00  0.00    +0.000 C 
ATOM     12  C   UNL     1       2.782   4.249  17.300  0.00  0.00    +0.000 C 
BRANCH   7  13
ATOM     13  N   UNL     1       5.292   4.097  17.418  0.00  0.00    +0.000 NA
ATOM     14  C   UNL     1       6.501   4.716  18.006  0.00  0.00    +0.000 C 
ATOM     15  C   UNL     1       6.577   6.251  17.933  0.00  0.00    +0.000 C 
ATOM     16  O   UNL     1       6.273   6.800  16.649  0.00  0.00    +0.000 OA
ATOM     17  C   UNL     1       5.218   6.160  15.928  0.00  0.00    +0.000 C 
ATOM     18  C   UNL     1       5.209   4.628  16.043  0.00  0.00    +0.000 C 
ENDBRANCH   7  13
ENDBRANCH   6   7
ENDBRANCH   4   6
ENDBRANCH   1   2
BRANCH   1  19
ATOM     19  O   UNL     1       1.017   9.166  19.845  0.00  0.00    +0.000 OA
BRANCH  19  20
ATOM     20  C   UNL     1       0.399  10.229  19.275  0.00  0.00    +0.000 C 
ATOM     21  O   UNL     1      -0.426  10.161  18.379  0.00  0.00    +0.000 OA
BRANCH  20  32
ATOM     22  C   UNL     1       0.266  11.927  21.086  0.00  0.00    +0.000 A 
ATOM     23  N   UNL     1       0.571  13.117  21.675  0.00  0.00    +0.000 NA
ATOM     24  C   UNL     1       1.481  13.921  21.115  0.00  0.00    +0.000 A 
ATOM     25  C   UNL     1       1.736  15.123  21.761  0.00  0.00    +0.000 A 
ATOM     26  C   UNL     1       2.659  16.050  21.261  0.00  0.00    +0.000 A 
ATOM     27  C   UNL     1       3.339  15.757  20.096  0.00  0.00    +0.000 A 
ATOM     28  C   UNL     1       3.100  14.548  19.436  0.00  0.00    +0.000 A 
ATOM     29  C   UNL     1       2.161  13.601  19.919  0.00  0.00    +0.000 A 
ATOM     30  C   UNL     1       1.829  12.354  19.288  0.00  0.00    +0.000 A 
ATOM     31  C   UNL     1       2.488  11.948  17.986  0.00  0.00    +0.000 C 
ATOM     32  C   UNL     1       0.866  11.506  19.894  0.00  0.00    +0.000 A 
BRANCH  22  33
ATOM     33  C   UNL     1      -0.770  11.119  21.833  0.00  0.00    +0.000 C 
BRANCH  33  35
ATOM     34  C   UNL     1       0.035   9.462  23.287  0.00  0.00    +0.000 C 
ATOM     35  O   UNL     1      -0.323  10.833  23.162  0.00  0.00    +0.000 OA
ENDBRANCH  33  35
ENDBRANCH  22  33
ENDBRANCH  20  32
ENDBRANCH  19  20
ENDBRANCH   1  19
TORSDOF 9
ENDMDL
MODEL 9
REMARK VINA RESULT:      -7.8      0.874      1.054
REMARK  Name = 
REMARK  11 active torsions:
REMARK  status: ('A' for Active; 'I' for Inactive)
REMARK    1  A    between atoms: C_1  and  O_2
REMARK    2  A    between atoms: O_2  and  C_3
REMARK    3  A    between atoms: C_3  and  C_4
REMARK    4  A    between atoms: C_12  and  C_13
REMARK    5  A    between atoms: C_14  and  C_15
REMARK    6  A    between atoms: C_15  and  O_17
REMARK    7  A    between atoms: O_17  and  C_18
REMARK    8  A    between atoms: C_18  and  C_19
REMARK    9  A    between atoms: N_21  and  C_22
REMARK   10  A    between atoms: C_22  and  C_23
REMARK   11  A    between atoms: C_23  and  N_24
REMARK                            x       y       z     vdW  Elec       q    Type
REMARK                         _______ _______ _______ _____ _____    ______ ____
ROOT
ATOM      1  C   UNL     1       1.892   8.936  18.492  0.00  0.00    +0.000 C 
ENDROOT
BRANCH   1   2
ATOM      2  C   UNL     1       2.158   7.610  19.221  0.00  0.00    +0.000 C 
ATOM      3  O   UNL     1       1.990   7.496  20.432  0.00  0.00    +0.000 OA
ATOM      4  N   UNL     1       2.600   6.584  18.411  0.00  0.00    +0.000 N 
ATOM      5  H   UNL     1       2.944   6.834  17.489  0.00  0.00    +0.000 HD
BRANCH   4   6
ATOM      6  C   UNL     1       2.953   5.267  18.924  0.00  0.00    +0.000 C 
BRANCH   6   7
ATOM      7  C   UNL     1       4.127   4.526  18.153  0.00  0.00    +0.000 C 
ATOM      8  C   UNL     1       4.841   3.603  19.186  0.00  0.00    +0.000 C 
ATOM      9  C   UNL     1       4.026   2.418  19.696  0.00  0.00    +0.000 C 
ATOM     10  C   UNL     1       3.507   1.575  18.544  0.00  0.00    +0.000 C 
ATOM     11  C   UNL     1       2.681   2.425  17.589  0.00  0.00    +0.000 C 
ATOM     12  C   UNL     1       3.487   3.614  17.050  0.00  0.00    +0.000 C 
BRANCH   7  13
ATOM     13  N   UNL     1       5.042   5.541  17.505  0.00  0.00    +0.000 NA
ATOM     14  C   UNL     1       5.350   5.401  16.065  0.00  0.00    +0.000 C 
ATOM     15  C   UNL     1       6.448   4.385  15.705  0.00  0.00    +0.000 C 
ATOM     16  O   UNL     1       7.637   4.493  16.491  0.00  0.00    +0.000 OA
ATOM     17  C   UNL     1       7.447   4.791  17.875  0.00  0.00    +0.000 C 
ATOM     18  C   UNL     1       6.337   5.816  18.157  0.00  0.00    +0.000 C 
ENDBRANCH   7  13
ENDBRANCH   6   7
ENDBRANCH   4   6
ENDBRANCH   1   2
BRANCH   1  19
ATOM     19  O   UNL     1       0.639   9.543  18.799  0.00  0.00    +0.000 OA
BRANCH  19  20
ATOM     20  C   UNL     1       0.601  10.893  18.678  0.00  0.00    +0.000 C 
ATOM     21  O   UNL     1       1.548  11.592  18.356  0.00  0.00    +0.000 OA
BRANCH  20  32
ATOM     22  C   UNL     1      -0.939  12.156  20.164  0.00  0.00    +0.000 A 
ATOM     23  N   UNL     1      -2.162  12.600  20.569  0.00  0.00    +0.000 NA
ATOM     24  C   UNL     1      -3.243  12.335  19.828  0.00  0.00    +0.000 A 
ATOM     25  C   UNL     1      -4.458  12.806  20.304  0.00  0.00    +0.000 A 
ATOM     26  C   UNL     1      -5.659  12.579  19.620  0.00  0.00    +0.000 A 
ATOM     27  C   UNL     1      -5.632  11.872  18.435  0.00  0.00    +0.000 A 
ATOM     28  C   UNL     1      -4.416  11.396  17.936  0.00  0.00    +0.000 A 
ATOM     29  C   UNL     1      -3.191  11.605  18.620  0.00  0.00    +0.000 A 
ATOM     30  C   UNL     1      -1.904  11.123  18.199  0.00  0.00    +0.000 A 
ATOM     31  C   UNL     1      -1.763  10.305  16.933  0.00  0.00    +0.000 C 
ATOM     32  C   UNL     1      -0.763  11.414  18.991  0.00  0.00    +0.000 A 
BRANCH  22  33
ATOM     33  C   UNL     1       0.191  12.536  21.093  0.00  0.00    +0.000 C 
BRANCH  33  35
ATOM     34  C   UNL     1       0.690  14.655  21.971  0.00  0.00    +0.000 C 
ATOM     35  O   UNL     1       0.665  13.853  20.796  0.00  0.00    +0.000 OA
ENDBRANCH  33  35
ENDBRANCH  22  33
ENDBRANCH  20  32
ENDBRANCH  19  20
ENDBRANCH   1  19
TORSDOF 9
ENDMDL
