MODEL 1
REMARK VINA RESULT:      -8.1      0.000      0.000
REMARK  Name = 
REMARK  12 active torsions:
REMARK  status: ('A' for Active; 'I' for Inactive)
REMARK    1  A    between atoms: CE_1  and  SD_2
REMARK    2  A    between atoms: SD_2  and  CG_3
REMARK    3  A    between atoms: CG_3  and  CB_4
REMARK    4  A    between atoms: CB_4  and  CA_5
REMARK    5  A    between atoms: CA_5  and  N_6
REMARK    6  A    between atoms: CA_5  and  C_30
REMARK    7  A    between atoms: C_7  and  C_9
REMARK    8  A    between atoms: C_12  and  N_13
REMARK    9  A    between atoms: C_14  and  C_16
REMARK   10  A    between atoms: C_16  and  C_17
REMARK   11  A    between atoms: C_24  and  C_25
REMARK   12  A    between atoms: C_30  and  OXT_32
REMARK                            x       y       z     vdW  Elec       q    Type
REMARK                         _______ _______ _______ _____ _____    ______ ____
ROOT
ATOM      1  C   UNK A   0       2.875   6.320  18.204  0.00  0.00    +0.000 A 
ATOM      2  C   UNK A   0       2.814   7.608  17.643  0.00  0.00    +0.000 A 
ATOM      3  C   UNK A   0       2.218   8.667  18.332  0.00  0.00    +0.000 A 
ATOM      4  C   UNK A   0       1.681   8.470  19.600  0.00  0.00    +0.000 A 
ATOM      5  C   UNK A   0       1.729   7.184  20.158  0.00  0.00    +0.000 A 
ATOM      6  C   UNK A   0       2.309   6.081  19.480  0.00  0.00    +0.000 A 
ENDROOT
BRANCH   6   7
ATOM      7  C   UNK A   0       2.245   4.736  20.111  0.00  0.00    +0.000 A 
ATOM      8  C   UNK A   0       1.140   3.980  20.473  0.00  0.00    +0.000 A 
ATOM      9  C   UNK A   0       1.480   2.713  21.031  0.00  0.00    +0.000 A 
ATOM     10  C   UNK A   0       2.840   2.547  21.134  0.00  0.00    +0.000 A 
ATOM     11  S   UNK A   0       3.694   3.884  20.507  0.00  0.00    +0.000 S 
ENDBRANCH   6   7
BRANCH   1  13
ATOM     12  N   MET A   1       4.941   5.602  17.085  0.00  0.00    +0.000 N 
ATOM     13  C   UNK A   0       3.648   5.283  17.457  0.00  0.00    +0.000 C 
ATOM     14  O   UNK A   0       3.152   4.193  17.193  0.00  0.00    +0.000 OA
ATOM     15  H   MET A   1       5.357   6.499  17.310  0.00  0.00    +0.000 HD
BRANCH  12  16
ATOM     16  CA  MET A   1       5.744   4.663  16.296  0.00  0.00    +0.000 C 
BRANCH  16  17
ATOM     17  C   MET A   1       7.232   4.948  16.505  0.00  0.00    +0.000 C 
ATOM     18  O   MET A   1       8.004   4.170  17.049  0.00  0.00    +0.000 OA
BRANCH  17  19
ATOM     19  OXT MET A   1       7.616   6.181  16.090  0.00  0.00    +0.000 OA
ATOM     20  HXT MET A   1       8.420   6.190  15.527  0.00  0.00    +0.000 HD
ENDBRANCH  17  19
ENDBRANCH  16  17
BRANCH  16  21
ATOM     21  CB  MET A   1       5.368   4.799  14.815  0.00  0.00    +0.000 C 
BRANCH  21  22
ATOM     22  CG  MET A   1       6.065   3.824  13.868  0.00  0.00    +0.000 C 
BRANCH  22  24
ATOM     23  CE  MET A   1       6.019   2.077  11.713  0.00  0.00    +0.000 C 
ATOM     24  SD  MET A   1       5.233   3.621  12.258  0.00  0.00    +0.000 S 
ENDBRANCH  22  24
ENDBRANCH  21  22
ENDBRANCH  16  21
ENDBRANCH  12  16
ENDBRANCH   1  13
BRANCH   4  25
ATOM     25  N   UNK A   0       1.107   9.508  20.368  0.00  0.00    +0.000 N 
ATOM     26  C   UNK A   0       0.018   9.394  21.220  0.00  0.00    +0.000 C 
ATOM     27  O   UNK A   0      -0.560   8.351  21.514  0.00  0.00    +0.000 OA
ATOM     28  H   UNK A   0       1.590  10.402  20.360  0.00  0.00    +0.000 HD
BRANCH  26  29
ATOM     29  C   UNK A   0      -0.421  10.710  21.835  0.00  0.00    +0.000 C 
BRANCH  29  30
ATOM     30  C   UNK A   0      -0.488  11.800  20.821  0.00  0.00    +0.000 A 
ATOM     31  C   UNK A   0      -0.261  13.148  21.028  0.00  0.00    +0.000 A 
ATOM     32  S   UNK A   0      -0.516  14.015  19.572  0.00  0.00    +0.000 S 
ATOM     33  C   UNK A   0      -0.925  12.548  18.782  0.00  0.00    +0.000 A 
ATOM     34  N   UNK A   0      -1.308  12.529  17.496  0.00  0.00    +0.000 N 
ATOM     35  N   UNK A   0      -0.860  11.473  19.525  0.00  0.00    +0.000 NA
ATOM     36  H   UNK A   0      -1.692  13.383  17.114  0.00  0.00    +0.000 HD
ATOM     37  H   UNK A   0      -1.802  11.692  17.210  0.00  0.00    +0.000 HD
ENDBRANCH  29  30
ENDBRANCH  26  29
ENDBRANCH   4  25
TORSDOF 11
ENDMDL
MODEL 2
REMARK VINA RESULT:      -7.9      1.694      2.269
REMARK  Name = 
REMARK  12 active torsions:
REMARK  status: ('A' for Active; 'I' for Inactive)
REMARK    1  A    between atoms: CE_1  and  SD_2
REMARK    2  A    between atoms: SD_2  and  CG_3
REMARK    3  A    between atoms: CG_3  and  CB_4
REMARK    4  A    between atoms: CB_4  and  CA_5
REMARK    5  A    between atoms: CA_5  and  N_6
REMARK    6  A    between atoms: CA_5  and  C_30
REMARK    7  A    between atoms: C_7  and  C_9
REMARK    8  A    between atoms: C_12  and  N_13
REMARK    9  A    between atoms: C_14  and  C_16
REMARK   10  A    between atoms: C_16  and  C_17
REMARK   11  A    between atoms: C_24  and  C_25
REMARK   12  A    between atoms: C_30  and  OXT_32
REMARK                            x       y       z     vdW  Elec       q    Type
REMARK                         _______ _______ _______ _____ _____    ______ ____
ROOT
ATOM      1  C   UNK A   0       3.495   6.607  18.303  0.00  0.00    +0.000 A 
ATOM      2  C   UNK A   0       3.657   7.834  17.636  0.00  0.00    +0.000 A 
ATOM      3  C   UNK A   0       2.788   8.902  17.870  0.00  0.00    +0.000 A 
ATOM      4  C   UNK A   0       1.747   8.778  18.784  0.00  0.00    +0.000 A 
ATOM      5  C   UNK A   0       1.575   7.551  19.443  0.00  0.00    +0.000 A 
ATOM      6  C   UNK A   0       2.425   6.439  19.216  0.00  0.00    +0.000 A 
ENDROOT
BRANCH   6   7
ATOM      7  C   UNK A   0       2.122   5.153  19.898  0.00  0.00    +0.000 A 
ATOM      8  C   UNK A   0       2.354   4.771  21.211  0.00  0.00    +0.000 A 
ATOM      9  C   UNK A   0       1.892   3.456  21.508  0.00  0.00    +0.000 A 
ATOM     10  C   UNK A   0       1.364   2.836  20.401  0.00  0.00    +0.000 A 
ATOM     11  S   UNK A   0       1.373   3.859  19.035  0.00  0.00    +0.000 S 
ENDBRANCH   6   7
BRANCH   1  13
ATOM     12  N   MET A   1       4.850   5.230  16.787  0.00  0.00    +0.000 N 
ATOM     13  C   UNK A   0       4.547   5.569  18.092  0.00  0.00    +0.000 C 
ATOM     14  O   UNK A   0       5.120   5.047  19.043  0.00  0.00    +0.000 OA
ATOM     15  H   MET A   1       4.385   5.666  15.998  0.00  0.00    +0.000 HD
BRANCH  12  16
ATOM     16  CA  MET A   1       5.826   4.175  16.496  0.00  0.00    +0.000 C 
BRANCH  16  17
ATOM     17  C   MET A   1       7.235   4.768  16.452  0.00  0.00    +0.000 C 
ATOM     18  O   MET A   1       7.538   5.754  15.795  0.00  0.00    +0.000 OA
BRANCH  17  19
ATOM     19  OXT MET A   1       8.149   4.060  17.161  0.00  0.00    +0.000 OA
ATOM     20  HXT MET A   1       9.084   4.281  16.959  0.00  0.00    +0.000 HD
ENDBRANCH  17  19
ENDBRANCH  16  17
BRANCH  16  21
ATOM     21  CB  MET A   1       5.473   3.515  15.158  0.00  0.00    +0.000 C 
BRANCH  21  22
ATOM     22  CG  MET A   1       5.685   4.383  13.920  0.00  0.00    +0.000 C 
BRANCH  22  24
ATOM     23  CE  MET A   1       4.560   3.199  11.677  0.00  0.00    +0.000 C 
ATOM     24  SD  MET A   1       6.191   3.456  12.434  0.00  0.00    +0.000 S 
ENDBRANCH  22  24
ENDBRANCH  21  22
ENDBRANCH  16  21
ENDBRANCH  12  16
ENDBRANCH   1  13
BRANCH   4  25
ATOM     25  N   UNK A   0       0.864   9.834  19.102  0.00  0.00    +0.000 N 
ATOM     26  C   UNK A   0      -0.301  10.164  18.423  0.00  0.00    +0.000 C 
ATOM     27  O   UNK A   0      -0.798   9.529  17.497  0.00  0.00    +0.000 OA
ATOM     28  H   UNK A   0       1.056  10.348  19.957  0.00  0.00    +0.000 HD
BRANCH  26  29
ATOM     29  C   UNK A   0      -0.987  11.410  18.949  0.00  0.00    +0.000 C 
BRANCH  29  30
ATOM     30  C   UNK A   0      -1.060  11.414  20.438  0.00  0.00    +0.000 A 
ATOM     31  C   UNK A   0      -1.368  12.487  21.255  0.00  0.00    +0.000 A 
ATOM     32  S   UNK A   0      -1.267  12.017  22.899  0.00  0.00    +0.000 S 
ATOM     33  C   UNK A   0      -0.808  10.438  22.410  0.00  0.00    +0.000 A 
ATOM     34  N   UNK A   0      -0.507   9.486  23.307  0.00  0.00    +0.000 N 
ATOM     35  N   UNK A   0      -0.751  10.245  21.117  0.00  0.00    +0.000 NA
ATOM     36  H   UNK A   0      -0.208   9.792  24.224  0.00  0.00    +0.000 HD
ATOM     37  H   UNK A   0       0.025   8.707  22.940  0.00  0.00    +0.000 HD
ENDBRANCH  29  30
ENDBRANCH  26  29
ENDBRANCH   4  25
TORSDOF 11
ENDMDL
MODEL 3
REMARK VINA RESULT:      -7.9      1.556      1.866
REMARK  Name = 
REMARK  12 active torsions:
REMARK  status: ('A' for Active; 'I' for Inactive)
REMARK    1  A    between atoms: CE_1  and  SD_2
REMARK    2  A    between atoms: SD_2  and  CG_3
REMARK    3  A    between atoms: CG_3  and  CB_4
REMARK    4  A    between atoms: CB_4  and  CA_5
REMARK    5  A    between atoms: CA_5  and  N_6
REMARK    6  A    between atoms: CA_5  and  C_30
REMARK    7  A    between atoms: C_7  and  C_9
REMARK    8  A    between atoms: C_12  and  N_13
REMARK    9  A    between atoms: C_14  and  C_16
REMARK   10  A    between atoms: C_16  and  C_17
REMARK   11  A    between atoms: C_24  and  C_25
REMARK   12  A    between atoms: C_30  and  OXT_32
REMARK                            x       y       z     vdW  Elec       q    Type
REMARK                         _______ _______ _______ _____ _____    ______ ____
ROOT
ATOM      1  C   UNK A   0       2.822   6.530  18.542  0.00  0.00    +0.000 A 
ATOM      2  C   UNK A   0       2.773   7.831  18.012  0.00  0.00    +0.000 A 
ATOM      3  C   UNK A   0       2.084   8.853  18.669  0.00  0.00    +0.000 A 
ATOM      4  C   UNK A   0       1.438   8.605  19.876  0.00  0.00    +0.000 A 
ATOM      5  C   UNK A   0       1.474   7.306  20.403  0.00  0.00    +0.000 A 
ATOM      6  C   UNK A   0       2.148   6.239  19.753  0.00  0.00    +0.000 A 
ENDROOT
BRANCH   6   7
ATOM      7  C   UNK A   0       2.068   4.876  20.342  0.00  0.00    +0.000 A 
ATOM      8  C   UNK A   0       2.841   4.294  21.336  0.00  0.00    +0.000 A 
ATOM      9  C   UNK A   0       2.441   2.965  21.659  0.00  0.00    +0.000 A 
ATOM     10  C   UNK A   0       1.402   2.536  20.868  0.00  0.00    +0.000 A 
ATOM     11  S   UNK A   0       0.880   3.751  19.789  0.00  0.00    +0.000 S 
ENDBRANCH   6   7
BRANCH   1  13
ATOM     12  N   MET A   1       5.045   5.811  17.785  0.00  0.00    +0.000 N 
ATOM     13  C   UNK A   0       3.692   5.537  17.844  0.00  0.00    +0.000 C 
ATOM     14  O   UNK A   0       3.218   4.519  17.351  0.00  0.00    +0.000 OA
ATOM     15  H   MET A   1       5.441   6.648  18.200  0.00  0.00    +0.000 HD
BRANCH  12  16
ATOM     16  CA  MET A   1       5.957   4.919  17.064  0.00  0.00    +0.000 C 
BRANCH  16  17
ATOM     17  C   MET A   1       7.393   5.150  17.536  0.00  0.00    +0.000 C 
ATOM     18  O   MET A   1       7.865   6.256  17.761  0.00  0.00    +0.000 OA
BRANCH  17  19
ATOM     19  OXT MET A   1       8.131   4.015  17.622  0.00  0.00    +0.000 OA
ATOM     20  HXT MET A   1       8.831   3.930  16.939  0.00  0.00    +0.000 HD
ENDBRANCH  17  19
ENDBRANCH  16  17
BRANCH  16  21
ATOM     21  CB  MET A   1       5.832   5.179  15.558  0.00  0.00    +0.000 C 
BRANCH  21  22
ATOM     22  CG  MET A   1       5.753   3.931  14.679  0.00  0.00    +0.000 C 
BRANCH  22  24
ATOM     23  CE  MET A   1       5.578   3.073  12.047  0.00  0.00    +0.000 C 
ATOM     24  SD  MET A   1       6.670   4.063  13.109  0.00  0.00    +0.000 S 
ENDBRANCH  22  24
ENDBRANCH  21  22
ENDBRANCH  16  21
ENDBRANCH  12  16
ENDBRANCH   1  13
BRANCH   4  25
ATOM     25  N   UNK A   0       0.765   9.605  20.614  0.00  0.00    +0.000 N 
ATOM     26  C   UNK A   0      -0.390  10.271  20.230  0.00  0.00    +0.000 C 
ATOM     27  O   UNK A   0      -1.063  10.029  19.232  0.00  0.00    +0.000 OA
ATOM     28  H   UNK A   0       1.112   9.792  21.549  0.00  0.00    +0.000 HD
BRANCH  26  29
ATOM     29  C   UNK A   0      -0.821  11.359  21.196  0.00  0.00    +0.000 C 
BRANCH  29  30
ATOM     30  C   UNK A   0      -0.028  12.607  21.013  0.00  0.00    +0.000 A 
ATOM     31  C   UNK A   0      -0.501  13.849  20.629  0.00  0.00    +0.000 A 
ATOM     32  S   UNK A   0       0.799  14.956  20.498  0.00  0.00    +0.000 S 
ATOM     33  C   UNK A   0       1.892  13.711  20.942  0.00  0.00    +0.000 A 
ATOM     34  N   UNK A   0       3.216  13.926  20.993  0.00  0.00    +0.000 N 
ATOM     35  N   UNK A   0       1.346  12.549  21.197  0.00  0.00    +0.000 NA
ATOM     36  H   UNK A   0       3.583  14.688  20.439  0.00  0.00    +0.000 HD
ATOM     37  H   UNK A   0       3.785  13.088  20.970  0.00  0.00    +0.000 HD
ENDBRANCH  29  30
ENDBRANCH  26  29
ENDBRANCH   4  25
TORSDOF 11
ENDMDL
MODEL 4
REMARK VINA RESULT:      -7.8      1.585      1.660
REMARK  Name = 
REMARK  12 active torsions:
REMARK  status: ('A' for Active; 'I' for Inactive)
REMARK    1  A    between atoms: CE_1  and  SD_2
REMARK    2  A    between atoms: SD_2  and  CG_3
REMARK    3  A    between atoms: CG_3  and  CB_4
REMARK    4  A    between atoms: CB_4  and  CA_5
REMARK    5  A    between atoms: CA_5  and  N_6
REMARK    6  A    between atoms: CA_5  and  C_30
REMARK    7  A    between atoms: C_7  and  C_9
REMARK    8  A    between atoms: C_12  and  N_13
REMARK    9  A    between atoms: C_14  and  C_16
REMARK   10  A    between atoms: C_16  and  C_17
REMARK   11  A    between atoms: C_24  and  C_25
REMARK   12  A    between atoms: C_30  and  OXT_32
REMARK                            x       y       z     vdW  Elec       q    Type
REMARK                         _______ _______ _______ _____ _____    ______ ____
ROOT
ATOM      1  C   UNK A   0       2.920   6.491  18.467  0.00  0.00    +0.000 A 
ATOM      2  C   UNK A   0       2.810   7.796  17.955  0.00  0.00    +0.000 A 
ATOM      3  C   UNK A   0       2.035   8.762  18.602  0.00  0.00    +0.000 A 
ATOM      4  C   UNK A   0       1.362   8.453  19.779  0.00  0.00    +0.000 A 
ATOM      5  C   UNK A   0       1.459   7.149  20.287  0.00  0.00    +0.000 A 
ATOM      6  C   UNK A   0       2.222   6.138  19.647  0.00  0.00    +0.000 A 
ENDROOT
BRANCH   6   7
ATOM      7  C   UNK A   0       2.205   4.762  20.211  0.00  0.00    +0.000 A 
ATOM      8  C   UNK A   0       3.166   4.103  20.964  0.00  0.00    +0.000 A 
ATOM      9  C   UNK A   0       2.775   2.789  21.353  0.00  0.00    +0.000 A 
ATOM     10  C   UNK A   0       1.544   2.449  20.846  0.00  0.00    +0.000 A 
ATOM     11  S   UNK A   0       0.846   3.728  19.959  0.00  0.00    +0.000 S 
ENDBRANCH   6   7
BRANCH   1  13
ATOM     12  N   MET A   1       5.222   5.860  17.888  0.00  0.00    +0.000 N 
ATOM     13  C   UNK A   0       3.875   5.567  17.787  0.00  0.00    +0.000 C 
ATOM     14  O   UNK A   0       3.474   4.585  17.171  0.00  0.00    +0.000 OA
ATOM     15  H   MET A   1       5.558   6.666  18.405  0.00  0.00    +0.000 HD
BRANCH  12  16
ATOM     16  CA  MET A   1       6.220   5.038  17.198  0.00  0.00    +0.000 C 
BRANCH  16  17
ATOM     17  C   MET A   1       7.511   4.991  18.015  0.00  0.00    +0.000 C 
ATOM     18  O   MET A   1       8.368   4.127  17.885  0.00  0.00    +0.000 OA
BRANCH  17  19
ATOM     19  OXT MET A   1       7.599   5.963  18.956  0.00  0.00    +0.000 OA
ATOM     20  HXT MET A   1       7.054   6.759  18.773  0.00  0.00    +0.000 HD
ENDBRANCH  17  19
ENDBRANCH  16  17
BRANCH  16  21
ATOM     21  CB  MET A   1       6.480   5.624  15.804  0.00  0.00    +0.000 C 
BRANCH  21  22
ATOM     22  CG  MET A   1       6.938   4.623  14.745  0.00  0.00    +0.000 C 
BRANCH  22  24
ATOM     23  CE  MET A   1       6.475   3.524  12.240  0.00  0.00    +0.000 C 
ATOM     24  SD  MET A   1       5.581   3.881  13.780  0.00  0.00    +0.000 S 
ENDBRANCH  22  24
ENDBRANCH  21  22
ENDBRANCH  16  21
ENDBRANCH  12  16
ENDBRANCH   1  13
BRANCH   4  25
ATOM     25  N   UNK A   0       0.601   9.396  20.507  0.00  0.00    +0.000 N 
ATOM     26  C   UNK A   0       0.790   9.757  21.833  0.00  0.00    +0.000 C 
ATOM     27  O   UNK A   0       1.710   9.384  22.556  0.00  0.00    +0.000 OA
ATOM     28  H   UNK A   0      -0.096   9.919  19.985  0.00  0.00    +0.000 HD
BRANCH  26  29
ATOM     29  C   UNK A   0      -0.249  10.729  22.359  0.00  0.00    +0.000 C 
BRANCH  29  30
ATOM     30  C   UNK A   0      -0.134  12.066  21.711  0.00  0.00    +0.000 A 
ATOM     31  C   UNK A   0      -1.134  13.010  21.562  0.00  0.00    +0.000 A 
ATOM     32  S   UNK A   0      -0.537  14.364  20.699  0.00  0.00    +0.000 S 
ATOM     33  C   UNK A   0       0.992  13.595  20.571  0.00  0.00    +0.000 A 
ATOM     34  N   UNK A   0       2.008  14.163  19.902  0.00  0.00    +0.000 N 
ATOM     35  N   UNK A   0       1.081  12.422  21.145  0.00  0.00    +0.000 NA
ATOM     36  H   UNK A   0       1.772  14.845  19.193  0.00  0.00    +0.000 HD
ATOM     37  H   UNK A   0       2.749  13.527  19.631  0.00  0.00    +0.000 HD
ENDBRANCH  29  30
ENDBRANCH  26  29
ENDBRANCH   4  25
TORSDOF 11
ENDMDL
MODEL 5
REMARK VINA RESULT:      -7.7      1.772      2.268
REMARK  Name = 
REMARK  12 active torsions:
REMARK  status: ('A' for Active; 'I' for Inactive)
REMARK    1  A    between atoms: CE_1  and  SD_2
REMARK    2  A    between atoms: SD_2  and  CG_3
REMARK    3  A    between atoms: CG_3  and  CB_4
REMARK    4  A    between atoms: CB_4  and  CA_5
REMARK    5  A    between atoms: CA_5  and  N_6
REMARK    6  A    between atoms: CA_5  and  C_30
REMARK    7  A    between atoms: C_7  and  C_9
REMARK    8  A    between atoms: C_12  and  N_13
REMARK    9  A    between atoms: C_14  and  C_16
REMARK   10  A    between atoms: C_16  and  C_17
REMARK   11  A    between atoms: C_24  and  C_25
REMARK   12  A    between atoms: C_30  and  OXT_32
REMARK                            x       y       z     vdW  Elec       q    Type
REMARK                         _______ _______ _______ _____ _____    ______ ____
ROOT
ATOM      1  C   UNK A   0       3.491   6.493  18.125  0.00  0.00    +0.000 A 
ATOM      2  C   UNK A   0       3.712   7.761  17.560  0.00  0.00    +0.000 A 
ATOM      3  C   UNK A   0       2.779   8.790  17.711  0.00  0.00    +0.000 A 
ATOM      4  C   UNK A   0       1.611   8.582  18.438  0.00  0.00    +0.000 A 
ATOM      5  C   UNK A   0       1.382   7.315  18.993  0.00  0.00    +0.000 A 
ATOM      6  C   UNK A   0       2.297   6.241  18.844  0.00  0.00    +0.000 A 
ENDROOT
BRANCH   6   7
ATOM      7  C   UNK A   0       1.937   4.909  19.397  0.00  0.00    +0.000 A 
ATOM      8  C   UNK A   0       1.412   3.796  18.755  0.00  0.00    +0.000 A 
ATOM      9  C   UNK A   0       1.226   2.679  19.620  0.00  0.00    +0.000 A 
ATOM     10  C   UNK A   0       1.562   2.976  20.919  0.00  0.00    +0.000 A 
ATOM     11  S   UNK A   0       2.152   4.569  21.076  0.00  0.00    +0.000 S 
ENDBRANCH   6   7
BRANCH   1  13
ATOM     12  N   MET A   1       4.960   5.070  16.765  0.00  0.00    +0.000 N 
ATOM     13  C   UNK A   0       4.600   5.498  18.029  0.00  0.00    +0.000 C 
ATOM     14  O   UNK A   0       5.170   5.087  19.034  0.00  0.00    +0.000 OA
ATOM     15  H   MET A   1       4.497   5.415  15.930  0.00  0.00    +0.000 HD
BRANCH  12  16
ATOM     16  CA  MET A   1       5.997   4.048  16.588  0.00  0.00    +0.000 C 
BRANCH  16  17
ATOM     17  C   MET A   1       7.381   4.685  16.715  0.00  0.00    +0.000 C 
ATOM     18  O   MET A   1       8.301   4.192  17.353  0.00  0.00    +0.000 OA
BRANCH  17  19
ATOM     19  OXT MET A   1       7.486   5.892  16.106  0.00  0.00    +0.000 OA
ATOM     20  HXT MET A   1       8.212   6.459  16.444  0.00  0.00    +0.000 HD
ENDBRANCH  17  19
ENDBRANCH  16  17
BRANCH  16  21
ATOM     21  CB  MET A   1       5.826   3.388  15.215  0.00  0.00    +0.000 C 
BRANCH  21  22
ATOM     22  CG  MET A   1       5.762   4.346  14.027  0.00  0.00    +0.000 C 
BRANCH  22  24
ATOM     23  CE  MET A   1       4.605   3.232  11.766  0.00  0.00    +0.000 C 
ATOM     24  SD  MET A   1       6.251   3.601  12.437  0.00  0.00    +0.000 S 
ENDBRANCH  22  24
ENDBRANCH  21  22
ENDBRANCH  16  21
ENDBRANCH  12  16
ENDBRANCH   1  13
BRANCH   4  25
ATOM     25  N   UNK A   0       0.651   9.594  18.667  0.00  0.00    +0.000 N 
ATOM     26  C   UNK A   0       0.909  10.944  18.857  0.00  0.00    +0.000 C 
ATOM     27  O   UNK A   0       2.006  11.487  18.760  0.00  0.00    +0.000 OA
ATOM     28  H   UNK A   0      -0.325   9.319  18.603  0.00  0.00    +0.000 HD
BRANCH  26  29
ATOM     29  C   UNK A   0      -0.326  11.766  19.174  0.00  0.00    +0.000 C 
BRANCH  29  30
ATOM     30  C   UNK A   0      -0.746  11.609  20.595  0.00  0.00    +0.000 A 
ATOM     31  C   UNK A   0      -1.480  12.504  21.353  0.00  0.00    +0.000 A 
ATOM     32  S   UNK A   0      -1.661  11.909  22.949  0.00  0.00    +0.000 S 
ATOM     33  C   UNK A   0      -0.741  10.524  22.526  0.00  0.00    +0.000 A 
ATOM     34  N   UNK A   0      -0.444   9.578  23.431  0.00  0.00    +0.000 N 
ATOM     35  N   UNK A   0      -0.338  10.475  21.282  0.00  0.00    +0.000 NA
ATOM     36  H   UNK A   0      -0.450   9.850  24.405  0.00  0.00    +0.000 HD
ATOM     37  H   UNK A   0       0.328   8.972  23.177  0.00  0.00    +0.000 HD
ENDBRANCH  29  30
ENDBRANCH  26  29
ENDBRANCH   4  25
TORSDOF 11
ENDMDL
MODEL 6
REMARK VINA RESULT:      -7.7      1.604      1.858
REMARK  Name = 
REMARK  12 active torsions:
REMARK  status: ('A' for Active; 'I' for Inactive)
REMARK    1  A    between atoms: CE_1  and  SD_2
REMARK    2  A    between atoms: SD_2  and  CG_3
REMARK    3  A    between atoms: CG_3  and  CB_4
REMARK    4  A    between atoms: CB_4  and  CA_5
REMARK    5  A    between atoms: CA_5  and  N_6
REMARK    6  A    between atoms: CA_5  and  C_30
REMARK    7  A    between atoms: C_7  and  C_9
REMARK    8  A    between atoms: C_12  and  N_13
REMARK    9  A    between atoms: C_14  and  C_16
REMARK   10  A    between atoms: C_16  and  C_17
REMARK   11  A    between atoms: C_24  and  C_25
REMARK   12  A    between atoms: C_30  and  OXT_32
REMARK                            x       y       z     vdW  Elec       q    Type
REMARK                         _______ _______ _______ _____ _____    ______ ____
ROOT
ATOM      1  C   UNK A   0       3.504   6.239  17.814  0.00  0.00    +0.000 A 
ATOM      2  C   UNK A   0       3.724   7.588  17.488  0.00  0.00    +0.000 A 
ATOM      3  C   UNK A   0       2.929   8.600  18.031  0.00  0.00    +0.000 A 
ATOM      4  C   UNK A   0       1.904   8.292  18.919  0.00  0.00    +0.000 A 
ATOM      5  C   UNK A   0       1.673   6.946  19.238  0.00  0.00    +0.000 A 
ATOM      6  C   UNK A   0       2.448   5.891  18.691  0.00  0.00    +0.000 A 
ENDROOT
BRANCH   6   7
ATOM      7  C   UNK A   0       2.084   4.487  19.021  0.00  0.00    +0.000 A 
ATOM      8  C   UNK A   0       1.476   3.522  18.232  0.00  0.00    +0.000 A 
ATOM      9  C   UNK A   0       1.315   2.270  18.893  0.00  0.00    +0.000 A 
ATOM     10  C   UNK A   0       1.754   2.317  20.194  0.00  0.00    +0.000 A 
ATOM     11  S   UNK A   0       2.408   3.843  20.590  0.00  0.00    +0.000 S 
ENDBRANCH   6   7
BRANCH   1  13
ATOM     12  N   MET A   1       4.811   5.309  15.954  0.00  0.00    +0.000 N 
ATOM     13  C   UNK A   0       4.485   5.240  17.295  0.00  0.00    +0.000 C 
ATOM     14  O   UNK A   0       4.983   4.399  18.037  0.00  0.00    +0.000 OA
ATOM     15  H   MET A   1       4.408   6.009  15.340  0.00  0.00    +0.000 HD
BRANCH  12  16
ATOM     16  CA  MET A   1       5.718   4.326  15.354  0.00  0.00    +0.000 C 
BRANCH  16  17
ATOM     17  C   MET A   1       7.170   4.740  15.599  0.00  0.00    +0.000 C 
ATOM     18  O   MET A   1       7.767   5.564  14.920  0.00  0.00    +0.000 OA
BRANCH  17  19
ATOM     19  OXT MET A   1       7.770   4.059  16.607  0.00  0.00    +0.000 OA
ATOM     20  HXT MET A   1       7.541   4.375  17.508  0.00  0.00    +0.000 HD
ENDBRANCH  17  19
ENDBRANCH  16  17
BRANCH  16  21
ATOM     21  CB  MET A   1       5.429   4.225  13.851  0.00  0.00    +0.000 C 
BRANCH  21  22
ATOM     22  CG  MET A   1       6.471   3.466  13.031  0.00  0.00    +0.000 C 
BRANCH  22  24
ATOM     23  CE  MET A   1       4.188   3.314  11.463  0.00  0.00    +0.000 C 
ATOM     24  SD  MET A   1       5.771   2.453  11.686  0.00  0.00    +0.000 S 
ENDBRANCH  22  24
ENDBRANCH  21  22
ENDBRANCH  16  21
ENDBRANCH  12  16
ENDBRANCH   1  13
BRANCH   4  25
ATOM     25  N   UNK A   0       1.095   9.272  19.539  0.00  0.00    +0.000 N 
ATOM     26  C   UNK A   0       0.883   9.419  20.903  0.00  0.00    +0.000 C 
ATOM     27  O   UNK A   0       1.441   8.781  21.791  0.00  0.00    +0.000 OA
ATOM     28  H   UNK A   0       0.700   9.985  18.935  0.00  0.00    +0.000 HD
BRANCH  26  29
ATOM     29  C   UNK A   0      -0.113  10.508  21.255  0.00  0.00    +0.000 C 
BRANCH  29  30
ATOM     30  C   UNK A   0       0.356  11.851  20.811  0.00  0.00    +0.000 A 
ATOM     31  C   UNK A   0      -0.366  12.796  20.105  0.00  0.00    +0.000 A 
ATOM     32  S   UNK A   0       0.618  14.158  19.774  0.00  0.00    +0.000 S 
ATOM     33  C   UNK A   0       1.929  13.392  20.574  0.00  0.00    +0.000 A 
ATOM     34  N   UNK A   0       3.140  13.967  20.643  0.00  0.00    +0.000 N 
ATOM     35  N   UNK A   0       1.667  12.213  21.079  0.00  0.00    +0.000 NA
ATOM     36  H   UNK A   0       3.367  14.655  19.937  0.00  0.00    +0.000 HD
ATOM     37  H   UNK A   0       3.901  13.334  20.860  0.00  0.00    +0.000 HD
ENDBRANCH  29  30
ENDBRANCH  26  29
ENDBRANCH   4  25
TORSDOF 11
ENDMDL
MODEL 7
REMARK VINA RESULT:      -7.7      1.188      1.411
REMARK  Name = 
REMARK  12 active torsions:
REMARK  status: ('A' for Active; 'I' for Inactive)
REMARK    1  A    between atoms: CE_1  and  SD_2
REMARK    2  A    between atoms: SD_2  and  CG_3
REMARK    3  A    between atoms: CG_3  and  CB_4
REMARK    4  A    between atoms: CB_4  and  CA_5
REMARK    5  A    between atoms: CA_5  and  N_6
REMARK    6  A    between atoms: CA_5  and  C_30
REMARK    7  A    between atoms: C_7  and  C_9
REMARK    8  A    between atoms: C_12  and  N_13
REMARK    9  A    between atoms: C_14  and  C_16
REMARK   10  A    between atoms: C_16  and  C_17
REMARK   11  A    between atoms: C_24  and  C_25
REMARK   12  A    between atoms: C_30  and  OXT_32
REMARK                            x       y       z     vdW  Elec       q    Type
REMARK                         _______ _______ _______ _____ _____    ______ ____
ROOT
ATOM      1  C   UNK A   0       2.858   6.306  18.595  0.00  0.00    +0.000 A 
ATOM      2  C   UNK A   0       2.889   7.552  17.945  0.00  0.00    +0.000 A 
ATOM      3  C   UNK A   0       2.196   8.651  18.458  0.00  0.00    +0.000 A 
ATOM      4  C   UNK A   0       1.468   8.538  19.637  0.00  0.00    +0.000 A 
ATOM      5  C   UNK A   0       1.424   7.293  20.283  0.00  0.00    +0.000 A 
ATOM      6  C   UNK A   0       2.099   6.151  19.781  0.00  0.00    +0.000 A 
ENDROOT
BRANCH   6   7
ATOM      7  C   UNK A   0       1.934   4.852  20.486  0.00  0.00    +0.000 A 
ATOM      8  C   UNK A   0       2.607   4.354  21.593  0.00  0.00    +0.000 A 
ATOM      9  C   UNK A   0       2.145   3.070  22.005  0.00  0.00    +0.000 A 
ATOM     10  C   UNK A   0       1.164   2.587  21.172  0.00  0.00    +0.000 A 
ATOM     11  S   UNK A   0       0.766   3.703  19.944  0.00  0.00    +0.000 S 
ENDBRANCH   6   7
BRANCH   1  13
ATOM     12  N   MET A   1       5.100   5.389  18.190  0.00  0.00    +0.000 N 
ATOM     13  C   UNK A   0       3.734   5.227  18.051  0.00  0.00    +0.000 C 
ATOM     14  O   UNK A   0       3.255   4.236  17.510  0.00  0.00    +0.000 OA
ATOM     15  H   MET A   1       5.500   6.202  18.645  0.00  0.00    +0.000 HD
BRANCH  12  16
ATOM     16  CA  MET A   1       6.030   4.405  17.627  0.00  0.00    +0.000 C 
BRANCH  16  17
ATOM     17  C   MET A   1       7.466   4.917  17.749  0.00  0.00    +0.000 C 
ATOM     18  O   MET A   1       7.755   6.064  18.063  0.00  0.00    +0.000 OA
BRANCH  17  19
ATOM     19  OXT MET A   1       8.405   3.999  17.411  0.00  0.00    +0.000 OA
ATOM     20  HXT MET A   1       8.072   3.257  16.861  0.00  0.00    +0.000 HD
ENDBRANCH  17  19
ENDBRANCH  16  17
BRANCH  16  21
ATOM     21  CB  MET A   1       5.667   4.149  16.159  0.00  0.00    +0.000 C 
BRANCH  21  22
ATOM     22  CG  MET A   1       5.992   5.288  15.193  0.00  0.00    +0.000 C 
BRANCH  22  24
ATOM     23  CE  MET A   1       6.226   3.701  12.930  0.00  0.00    +0.000 C 
ATOM     24  SD  MET A   1       7.220   4.858  13.916  0.00  0.00    +0.000 S 
ENDBRANCH  22  24
ENDBRANCH  21  22
ENDBRANCH  16  21
ENDBRANCH  12  16
ENDBRANCH   1  13
BRANCH   4  25
ATOM     25  N   UNK A   0       0.785   9.622  20.234  0.00  0.00    +0.000 N 
ATOM     26  C   UNK A   0       0.836   9.989  21.571  0.00  0.00    +0.000 C 
ATOM     27  O   UNK A   0       1.558   9.487  22.428  0.00  0.00    +0.000 OA
ATOM     28  H   UNK A   0       0.277  10.240  19.608  0.00  0.00    +0.000 HD
BRANCH  26  29
ATOM     29  C   UNK A   0      -0.083  11.144  21.926  0.00  0.00    +0.000 C 
BRANCH  29  30
ATOM     30  C   UNK A   0      -0.076  12.199  20.874  0.00  0.00    +0.000 A 
ATOM     31  C   UNK A   0       0.381  13.499  20.999  0.00  0.00    +0.000 A 
ATOM     32  S   UNK A   0       0.125  14.352  19.536  0.00  0.00    +0.000 S 
ATOM     33  C   UNK A   0      -0.585  12.948  18.853  0.00  0.00    +0.000 A 
ATOM     34  N   UNK A   0      -1.090  12.953  17.609  0.00  0.00    +0.000 N 
ATOM     35  N   UNK A   0      -0.618  11.898  19.634  0.00  0.00    +0.000 NA
ATOM     36  H   UNK A   0      -1.370  13.846  17.226  0.00  0.00    +0.000 HD
ATOM     37  H   UNK A   0      -1.735  12.198  17.408  0.00  0.00    +0.000 HD
ENDBRANCH  29  30
ENDBRANCH  26  29
ENDBRANCH   4  25
TORSDOF 11
ENDMDL
MODEL 8
REMARK VINA RESULT:      -7.7      1.583      1.742
REMARK  Name = 
REMARK  12 active torsions:
REMARK  status: ('A' for Active; 'I' for Inactive)
REMARK    1  A    between atoms: CE_1  and  SD_2
REMARK    2  A    between atoms: SD_2  and  CG_3
REMARK    3  A    between atoms: CG_3  and  CB_4
REMARK    4  A    between atoms: CB_4  and  CA_5
REMARK    5  A    between atoms: CA_5  and  N_6
REMARK    6  A    between atoms: CA_5  and  C_30
REMARK    7  A    between atoms: C_7  and  C_9
REMARK    8  A    between atoms: C_12  and  N_13
REMARK    9  A    between atoms: C_14  and  C_16
REMARK   10  A    between atoms: C_16  and  C_17
REMARK   11  A    between atoms: C_24  and  C_25
REMARK   12  A    between atoms: C_30  and  OXT_32
REMARK                            x       y       z     vdW  Elec       q    Type
REMARK                         _______ _______ _______ _____ _____    ______ ____
ROOT
ATOM      1  C   UNK A   0       3.019   6.574  18.357  0.00  0.00    +0.000 A 
ATOM      2  C   UNK A   0       2.979   7.881  17.839  0.00  0.00    +0.000 A 
ATOM      3  C   UNK A   0       2.226   8.880  18.460  0.00  0.00    +0.000 A 
ATOM      4  C   UNK A   0       1.506   8.605  19.617  0.00  0.00    +0.000 A 
ATOM      5  C   UNK A   0       1.533   7.299  20.131  0.00  0.00    +0.000 A 
ATOM      6  C   UNK A   0       2.271   6.255  19.517  0.00  0.00    +0.000 A 
ENDROOT
BRANCH   6   7
ATOM      7  C   UNK A   0       2.181   4.883  20.084  0.00  0.00    +0.000 A 
ATOM      8  C   UNK A   0       2.826   4.335  21.183  0.00  0.00    +0.000 A 
ATOM      9  C   UNK A   0       2.458   2.982  21.439  0.00  0.00    +0.000 A 
ATOM     10  C   UNK A   0       1.577   2.505  20.498  0.00  0.00    +0.000 A 
ATOM     11  S   UNK A   0       1.157   3.700  19.355  0.00  0.00    +0.000 S 
ENDBRANCH   6   7
BRANCH   1  13
ATOM     12  N   MET A   1       5.308   5.859  17.828  0.00  0.00    +0.000 N 
ATOM     13  C   UNK A   0       3.954   5.608  17.709  0.00  0.00    +0.000 C 
ATOM     14  O   UNK A   0       3.532   4.630  17.101  0.00  0.00    +0.000 OA
ATOM     15  H   MET A   1       5.662   6.662  18.338  0.00  0.00    +0.000 HD
BRANCH  12  16
ATOM     16  CA  MET A   1       6.290   4.993  17.168  0.00  0.00    +0.000 C 
BRANCH  16  17
ATOM     17  C   MET A   1       7.430   4.668  18.134  0.00  0.00    +0.000 C 
ATOM     18  O   MET A   1       8.453   4.083  17.807  0.00  0.00    +0.000 OA
BRANCH  17  19
ATOM     19  OXT MET A   1       7.178   5.028  19.418  0.00  0.00    +0.000 OA
ATOM     20  HXT MET A   1       6.582   5.801  19.516  0.00  0.00    +0.000 HD
ENDBRANCH  17  19
ENDBRANCH  16  17
BRANCH  16  21
ATOM     21  CB  MET A   1       6.825   5.700  15.916  0.00  0.00    +0.000 C 
BRANCH  21  22
ATOM     22  CG  MET A   1       7.064   4.800  14.705  0.00  0.00    +0.000 C 
BRANCH  22  24
ATOM     23  CE  MET A   1       6.105   3.460  12.473  0.00  0.00    +0.000 C 
ATOM     24  SD  MET A   1       5.596   3.860  14.171  0.00  0.00    +0.000 S 
ENDBRANCH  22  24
ENDBRANCH  21  22
ENDBRANCH  16  21
ENDBRANCH  12  16
ENDBRANCH   1  13
BRANCH   4  25
ATOM     25  N   UNK A   0       0.763   9.581  20.319  0.00  0.00    +0.000 N 
ATOM     26  C   UNK A   0      -0.332  10.284  19.837  0.00  0.00    +0.000 C 
ATOM     27  O   UNK A   0      -0.888  10.098  18.758  0.00  0.00    +0.000 OA
ATOM     28  H   UNK A   0       1.002   9.720  21.296  0.00  0.00    +0.000 HD
BRANCH  26  29
ATOM     29  C   UNK A   0      -0.859  11.334  20.797  0.00  0.00    +0.000 C 
BRANCH  29  30
ATOM     30  C   UNK A   0      -0.509  12.713  20.355  0.00  0.00    +0.000 A 
ATOM     31  C   UNK A   0       0.747  13.191  20.025  0.00  0.00    +0.000 A 
ATOM     32  S   UNK A   0       0.656  14.856  19.636  0.00  0.00    +0.000 S 
ATOM     33  C   UNK A   0      -1.031  14.827  19.947  0.00  0.00    +0.000 A 
ATOM     34  N   UNK A   0      -1.779  15.938  19.860  0.00  0.00    +0.000 N 
ATOM     35  N   UNK A   0      -1.518  13.663  20.296  0.00  0.00    +0.000 NA
ATOM     36  H   UNK A   0      -1.304  16.826  19.964  0.00  0.00    +0.000 HD
ATOM     37  H   UNK A   0      -2.671  15.890  20.337  0.00  0.00    +0.000 HD
ENDBRANCH  29  30
ENDBRANCH  26  29
ENDBRANCH   4  25
TORSDOF 11
ENDMDL
MODEL 9
REMARK VINA RESULT:      -7.7      1.895      2.194
REMARK  Name = 
REMARK  12 active torsions:
REMARK  status: ('A' for Active; 'I' for Inactive)
REMARK    1  A    between atoms: CE_1  and  SD_2
REMARK    2  A    between atoms: SD_2  and  CG_3
REMARK    3  A    between atoms: CG_3  and  CB_4
REMARK    4  A    between atoms: CB_4  and  CA_5
REMARK    5  A    between atoms: CA_5  and  N_6
REMARK    6  A    between atoms: CA_5  and  C_30
REMARK    7  A    between atoms: C_7  and  C_9
REMARK    8  A    between atoms: C_12  and  N_13
REMARK    9  A    between atoms: C_14  and  C_16
REMARK   10  A    between atoms: C_16  and  C_17
REMARK   11  A    between atoms: C_24  and  C_25
REMARK   12  A    between atoms: C_30  and  OXT_32
REMARK                            x       y       z     vdW  Elec       q    Type
REMARK                         _______ _______ _______ _____ _____    ______ ____
ROOT
ATOM      1  C   UNK A   0       3.457   6.598  18.412  0.00  0.00    +0.000 A 
ATOM      2  C   UNK A   0       3.548   7.833  17.745  0.00  0.00    +0.000 A 
ATOM      3  C   UNK A   0       2.596   8.834  17.949  0.00  0.00    +0.000 A 
ATOM      4  C   UNK A   0       1.539   8.634  18.831  0.00  0.00    +0.000 A 
ATOM      5  C   UNK A   0       1.438   7.399  19.489  0.00  0.00    +0.000 A 
ATOM      6  C   UNK A   0       2.375   6.353  19.292  0.00  0.00    +0.000 A 
ENDROOT
BRANCH   6   7
ATOM      7  C   UNK A   0       2.147   5.048  19.969  0.00  0.00    +0.000 A 
ATOM      8  C   UNK A   0       2.403   4.675  21.280  0.00  0.00    +0.000 A 
ATOM      9  C   UNK A   0       2.018   3.335  21.573  0.00  0.00    +0.000 A 
ATOM     10  C   UNK A   0       1.522   2.691  20.464  0.00  0.00    +0.000 A 
ATOM     11  S   UNK A   0       1.470   3.717  19.102  0.00  0.00    +0.000 S 
ENDBRANCH   6   7
BRANCH   1  13
ATOM     12  N   MET A   1       4.808   5.142  16.967  0.00  0.00    +0.000 N 
ATOM     13  C   UNK A   0       4.589   5.640  18.238  0.00  0.00    +0.000 C 
ATOM     14  O   UNK A   0       5.297   5.319  19.186  0.00  0.00    +0.000 OA
ATOM     15  H   MET A   1       4.230   5.413  16.179  0.00  0.00    +0.000 HD
BRANCH  12  16
ATOM     16  CA  MET A   1       5.859   4.149  16.725  0.00  0.00    +0.000 C 
BRANCH  16  17
ATOM     17  C   MET A   1       7.228   4.831  16.726  0.00  0.00    +0.000 C 
ATOM     18  O   MET A   1       7.445   5.923  16.220  0.00  0.00    +0.000 OA
BRANCH  17  19
ATOM     19  OXT MET A   1       8.211   4.082  17.285  0.00  0.00    +0.000 OA
ATOM     20  HXT MET A   1       9.100   4.216  16.892  0.00  0.00    +0.000 HD
ENDBRANCH  17  19
ENDBRANCH  16  17
BRANCH  16  21
ATOM     21  CB  MET A   1       5.599   3.456  15.381  0.00  0.00    +0.000 C 
BRANCH  21  22
ATOM     22  CG  MET A   1       5.595   4.372  14.159  0.00  0.00    +0.000 C 
BRANCH  22  24
ATOM     23  CE  MET A   1       7.360   4.500  12.022  0.00  0.00    +0.000 C 
ATOM     24  SD  MET A   1       5.939   3.518  12.584  0.00  0.00    +0.000 S 
ENDBRANCH  22  24
ENDBRANCH  21  22
ENDBRANCH  16  21
ENDBRANCH  12  16
ENDBRANCH   1  13
BRANCH   4  25
ATOM     25  N   UNK A   0       0.570   9.623  19.117  0.00  0.00    +0.000 N 
ATOM     26  C   UNK A   0       0.778  10.995  19.137  0.00  0.00    +0.000 C 
ATOM     27  O   UNK A   0       1.814  11.570  18.816  0.00  0.00    +0.000 OA
ATOM     28  H   UNK A   0      -0.386   9.303  19.236  0.00  0.00    +0.000 HD
BRANCH  26  29
ATOM     29  C   UNK A   0      -0.437  11.793  19.571  0.00  0.00    +0.000 C 
BRANCH  29  30
ATOM     30  C   UNK A   0      -1.592  11.584  18.655  0.00  0.00    +0.000 A 
ATOM     31  C   UNK A   0      -2.935  11.716  18.960  0.00  0.00    +0.000 A 
ATOM     32  S   UNK A   0      -3.889  11.312  17.596  0.00  0.00    +0.000 S 
ATOM     33  C   UNK A   0      -2.459  10.976  16.709  0.00  0.00    +0.000 A 
ATOM     34  N   UNK A   0      -2.508  10.524  15.446  0.00  0.00    +0.000 N 
ATOM     35  N   UNK A   0      -1.338  11.167  17.356  0.00  0.00    +0.000 NA
ATOM     36  H   UNK A   0      -3.355  10.052  15.155  0.00  0.00    +0.000 HD
ATOM     37  H   UNK A   0      -1.658  10.081  15.118  0.00  0.00    +0.000 HD
ENDBRANCH  29  30
ENDBRANCH  26  29
ENDBRANCH   4  25
TORSDOF 11
ENDMDL
