MODEL 1
REMARK VINA RESULT:      -8.3      0.000      0.000
REMARK  Name = 
REMARK  4 active torsions:
REMARK  status: ('A' for Active; 'I' for Inactive)
REMARK    1  A    between atoms: C_1  and  N_2
REMARK    2  A    between atoms: C_4  and  C_5
REMARK    3  A    between atoms: N_11  and  C_12
REMARK    4  A    between atoms: C_12  and  C_13
REMARK                            x       y       z     vdW  Elec       q    Type
REMARK                         _______ _______ _______ _____ _____    ______ ____
ROOT
ATOM      1  C   UNL     1       6.352   4.529  15.501  0.00  0.00    +0.000 A 
ATOM      2  C   UNL     1       7.519   4.201  16.198  0.00  0.00    +0.000 A 
ATOM      3  N   UNL     1       7.727   4.424  17.519  0.00  0.00    +0.000 NA
ATOM      4  C   UNL     1       6.667   5.018  18.113  0.00  0.00    +0.000 A 
ATOM      5  N   UNL     1       6.537   5.387  19.426  0.00  0.00    +0.000 NA
ATOM      6  N   UNL     1       5.355   5.976  19.571  0.00  0.00    +0.000 NA
ATOM      7  N   UNL     1       4.732   5.973  18.364  0.00  0.00    +0.000 N 
ATOM      8  C   UNL     1       5.516   5.363  17.407  0.00  0.00    +0.000 A 
ATOM      9  N   UNL     1       5.286   5.148  16.090  0.00  0.00    +0.000 NA
ENDROOT
BRANCH   1  13
ATOM     10  C   UNL     1       4.506   2.964  11.158  0.00  0.00    +0.000 C 
ATOM     11  N   UNL     1       5.381   3.494  12.170  0.00  0.00    +0.000 N 
ATOM     12  C   UNL     1       5.076   3.716  13.485  0.00  0.00    +0.000 A 
ATOM     13  C   UNL     1       6.227   4.194  14.085  0.00  0.00    +0.000 A 
ATOM     14  C   UNL     1       7.157   4.235  13.014  0.00  0.00    +0.000 A 
ATOM     15  N   UNL     1       6.645   3.809  11.862  0.00  0.00    +0.000 NA
ENDBRANCH   1  13
BRANCH   7  16
ATOM     16  C   UNL     1       3.451   6.649  18.200  0.00  0.00    +0.000 C 
BRANCH  16  17
ATOM     17  C   UNL     1       2.345   5.824  18.805  0.00  0.00    +0.000 A 
ATOM     18  C   UNL     1       1.977   6.026  20.161  0.00  0.00    +0.000 A 
ATOM     19  C   UNL     1       1.417   4.983  20.892  0.00  0.00    +0.000 A 
ATOM     20  C   UNL     1       1.243   3.798  20.217  0.00  0.00    +0.000 A 
ATOM     21  C   UNL     1       1.289   3.693  18.832  0.00  0.00    +0.000 A 
ATOM     22  C   UNL     1       1.877   4.704  18.101  0.00  0.00    +0.000 A 
ATOM     23  C   UNL     1       1.109   2.256  18.492  0.00  0.00    +0.000 C 
ATOM     24  C   UNL     1       1.938   1.789  19.678  0.00  0.00    +0.000 C 
ATOM     25  O   UNL     1       1.406   2.550  20.810  0.00  0.00    +0.000 OA
ENDBRANCH  16  17
ENDBRANCH   7  16
TORSDOF 3
ENDMDL
MODEL 2
REMARK VINA RESULT:      -8.0      4.111      8.335
REMARK  Name = 
REMARK  4 active torsions:
REMARK  status: ('A' for Active; 'I' for Inactive)
REMARK    1  A    between atoms: C_1  and  N_2
REMARK    2  A    between atoms: C_4  and  C_5
REMARK    3  A    between atoms: N_11  and  C_12
REMARK    4  A    between atoms: C_12  and  C_13
REMARK                            x       y       z     vdW  Elec       q    Type
REMARK                         _______ _______ _______ _____ _____    ______ ____
ROOT
ATOM      1  C   UNL     1       1.215   9.206  20.096  0.00  0.00    +0.000 A 
ATOM      2  C   UNL     1       1.179   9.985  18.935  0.00  0.00    +0.000 A 
ATOM      3  N   UNL     1       1.759   9.653  17.756  0.00  0.00    +0.000 NA
ATOM      4  C   UNL     1       2.402   8.464  17.815  0.00  0.00    +0.000 A 
ATOM      5  N   UNL     1       3.093   7.831  16.816  0.00  0.00    +0.000 NA
ATOM      6  N   UNL     1       3.602   6.711  17.315  0.00  0.00    +0.000 NA
ATOM      7  N   UNL     1       3.230   6.624  18.619  0.00  0.00    +0.000 N 
ATOM      8  C   UNL     1       2.454   7.704  18.982  0.00  0.00    +0.000 A 
ATOM      9  N   UNL     1       1.881   8.014  20.169  0.00  0.00    +0.000 NA
ENDROOT
BRANCH   1  13
ATOM     10  C   UNL     1      -1.854  11.658  23.142  0.00  0.00    +0.000 C 
ATOM     11  N   UNL     1      -0.865  10.752  22.625  0.00  0.00    +0.000 N 
ATOM     12  C   UNL     1      -0.495  10.598  21.316  0.00  0.00    +0.000 A 
ATOM     13  C   UNL     1       0.509   9.647  21.296  0.00  0.00    +0.000 A 
ATOM     14  C   UNL     1       0.641   9.286  22.662  0.00  0.00    +0.000 A 
ATOM     15  N   UNL     1      -0.186   9.956  23.460  0.00  0.00    +0.000 NA
ENDBRANCH   1  13
BRANCH   7  16
ATOM     16  C   UNL     1       3.733   5.540  19.453  0.00  0.00    +0.000 C 
BRANCH  16  17
ATOM     17  C   UNL     1       4.969   4.938  18.837  0.00  0.00    +0.000 A 
ATOM     18  C   UNL     1       6.252   5.393  19.241  0.00  0.00    +0.000 A 
ATOM     19  C   UNL     1       7.328   5.309  18.364  0.00  0.00    +0.000 A 
ATOM     20  C   UNL     1       7.062   4.759  17.132  0.00  0.00    +0.000 A 
ATOM     21  C   UNL     1       5.916   4.023  16.856  0.00  0.00    +0.000 A 
ATOM     22  C   UNL     1       4.830   4.129  17.699  0.00  0.00    +0.000 A 
ATOM     23  C   UNL     1       5.969   3.647  15.418  0.00  0.00    +0.000 C 
ATOM     24  C   UNL     1       6.567   4.984  15.009  0.00  0.00    +0.000 C 
ATOM     25  O   UNL     1       7.663   5.192  15.956  0.00  0.00    +0.000 OA
ENDBRANCH  16  17
ENDBRANCH   7  16
TORSDOF 3
ENDMDL
MODEL 3
REMARK VINA RESULT:      -7.9      3.541      5.161
REMARK  Name = 
REMARK  4 active torsions:
REMARK  status: ('A' for Active; 'I' for Inactive)
REMARK    1  A    between atoms: C_1  and  N_2
REMARK    2  A    between atoms: C_4  and  C_5
REMARK    3  A    between atoms: N_11  and  C_12
REMARK    4  A    between atoms: C_12  and  C_13
REMARK                            x       y       z     vdW  Elec       q    Type
REMARK                         _______ _______ _______ _____ _____    ______ ____
ROOT
ATOM      1  C   UNL     1       4.338   4.138  17.500  0.00  0.00    +0.000 A 
ATOM      2  C   UNL     1       3.709   2.889  17.501  0.00  0.00    +0.000 A 
ATOM      3  N   UNL     1       2.618   2.565  18.238  0.00  0.00    +0.000 NA
ATOM      4  C   UNL     1       2.189   3.596  19.001  0.00  0.00    +0.000 A 
ATOM      5  N   UNL     1       1.124   3.619  19.863  0.00  0.00    +0.000 NA
ATOM      6  N   UNL     1       1.088   4.815  20.439  0.00  0.00    +0.000 NA
ATOM      7  N   UNL     1       2.115   5.554  19.942  0.00  0.00    +0.000 N 
ATOM      8  C   UNL     1       2.835   4.832  19.014  0.00  0.00    +0.000 A 
ATOM      9  N   UNL     1       3.923   5.177  18.285  0.00  0.00    +0.000 NA
ENDROOT
BRANCH   1  13
ATOM     10  C   UNL     1       7.136   4.725  13.434  0.00  0.00    +0.000 C 
ATOM     11  N   UNL     1       6.699   4.638  14.801  0.00  0.00    +0.000 N 
ATOM     12  C   UNL     1       5.421   4.426  15.243  0.00  0.00    +0.000 A 
ATOM     13  C   UNL     1       5.480   4.381  16.624  0.00  0.00    +0.000 A 
ATOM     14  C   UNL     1       6.856   4.603  16.896  0.00  0.00    +0.000 A 
ATOM     15  N   UNL     1       7.587   4.753  15.795  0.00  0.00    +0.000 NA
ENDBRANCH   1  13
BRANCH   7  16
ATOM     16  C   UNL     1       2.383   6.885  20.472  0.00  0.00    +0.000 C 
BRANCH  16  17
ATOM     17  C   UNL     1       1.646   7.924  19.669  0.00  0.00    +0.000 A 
ATOM     18  C   UNL     1       2.083   8.241  18.356  0.00  0.00    +0.000 A 
ATOM     19  C   UNL     1       1.834   9.502  17.825  0.00  0.00    +0.000 A 
ATOM     20  C   UNL     1       1.147  10.374  18.636  0.00  0.00    +0.000 A 
ATOM     21  C   UNL     1       0.441   9.973  19.764  0.00  0.00    +0.000 A 
ATOM     22  C   UNL     1       0.708   8.740  20.320  0.00  0.00    +0.000 A 
ATOM     23  C   UNL     1      -0.116  11.199  20.396  0.00  0.00    +0.000 C 
ATOM     24  C   UNL     1       1.127  12.019  20.086  0.00  0.00    +0.000 C 
ATOM     25  O   UNL     1       1.397  11.742  18.674  0.00  0.00    +0.000 OA
ENDBRANCH  16  17
ENDBRANCH   7  16
TORSDOF 3
ENDMDL
MODEL 4
REMARK VINA RESULT:      -7.7      2.320      3.381
REMARK  Name = 
REMARK  4 active torsions:
REMARK  status: ('A' for Active; 'I' for Inactive)
REMARK    1  A    between atoms: C_1  and  N_2
REMARK    2  A    between atoms: C_4  and  C_5
REMARK    3  A    between atoms: N_11  and  C_12
REMARK    4  A    between atoms: C_12  and  C_13
REMARK                            x       y       z     vdW  Elec       q    Type
REMARK                         _______ _______ _______ _____ _____    ______ ____
ROOT
ATOM      1  C   UNL     1       6.171   4.417  15.706  0.00  0.00    +0.000 A 
ATOM      2  C   UNL     1       7.371   4.340  16.420  0.00  0.00    +0.000 A 
ATOM      3  N   UNL     1       7.498   4.540  17.755  0.00  0.00    +0.000 NA
ATOM      4  C   UNL     1       6.317   4.836  18.345  0.00  0.00    +0.000 A 
ATOM      5  N   UNL     1       6.081   5.099  19.669  0.00  0.00    +0.000 NA
ATOM      6  N   UNL     1       4.791   5.384  19.807  0.00  0.00    +0.000 NA
ATOM      7  N   UNL     1       4.207   5.294  18.583  0.00  0.00    +0.000 N 
ATOM      8  C   UNL     1       5.129   4.935  17.623  0.00  0.00    +0.000 A 
ATOM      9  N   UNL     1       4.978   4.737  16.292  0.00  0.00    +0.000 NA
ENDROOT
BRANCH   1  13
ATOM     10  C   UNL     1       4.716   2.866  11.213  0.00  0.00    +0.000 C 
ATOM     11  N   UNL     1       5.479   3.435  12.290  0.00  0.00    +0.000 N 
ATOM     12  C   UNL     1       5.087   3.569  13.594  0.00  0.00    +0.000 A 
ATOM     13  C   UNL     1       6.152   4.132  14.273  0.00  0.00    +0.000 A 
ATOM     14  C   UNL     1       7.126   4.311  13.257  0.00  0.00    +0.000 A 
ATOM     15  N   UNL     1       6.719   3.887  12.064  0.00  0.00    +0.000 NA
ENDBRANCH   1  13
BRANCH   7  16
ATOM     16  C   UNL     1       2.805   5.656  18.414  0.00  0.00    +0.000 C 
BRANCH  16  17
ATOM     17  C   UNL     1       2.532   6.997  19.044  0.00  0.00    +0.000 A 
ATOM     18  C   UNL     1       2.040   7.064  20.374  0.00  0.00    +0.000 A 
ATOM     19  C   UNL     1       1.272   8.150  20.777  0.00  0.00    +0.000 A 
ATOM     20  C   UNL     1       1.050   9.120  19.827  0.00  0.00    +0.000 A 
ATOM     21  C   UNL     1       1.788   9.222  18.654  0.00  0.00    +0.000 A 
ATOM     22  C   UNL     1       2.523   8.137  18.226  0.00  0.00    +0.000 A 
ATOM     23  C   UNL     1       1.219  10.353  17.872  0.00  0.00    +0.000 C 
ATOM     24  C   UNL     1      -0.208  10.014  18.270  0.00  0.00    +0.000 C 
ATOM     25  O   UNL     1      -0.142   9.827  19.721  0.00  0.00    +0.000 OA
ENDBRANCH  16  17
ENDBRANCH   7  16
TORSDOF 3
ENDMDL
MODEL 5
REMARK VINA RESULT:      -7.6      1.467      1.952
REMARK  Name = 
REMARK  4 active torsions:
REMARK  status: ('A' for Active; 'I' for Inactive)
REMARK    1  A    between atoms: C_1  and  N_2
REMARK    2  A    between atoms: C_4  and  C_5
REMARK    3  A    between atoms: N_11  and  C_12
REMARK    4  A    between atoms: C_12  and  C_13
REMARK                            x       y       z     vdW  Elec       q    Type
REMARK                         _______ _______ _______ _____ _____    ______ ____
ROOT
ATOM      1  C   UNL     1       5.991   4.430  14.164  0.00  0.00    +0.000 A 
ATOM      2  C   UNL     1       7.339   4.764  14.328  0.00  0.00    +0.000 A 
ATOM      3  N   UNL     1       7.860   5.392  15.410  0.00  0.00    +0.000 NA
ATOM      4  C   UNL     1       6.921   5.679  16.340  0.00  0.00    +0.000 A 
ATOM      5  N   UNL     1       7.095   6.308  17.545  0.00  0.00    +0.000 NA
ATOM      6  N   UNL     1       5.904   6.425  18.122  0.00  0.00    +0.000 NA
ATOM      7  N   UNL     1       4.980   5.867  17.298  0.00  0.00    +0.000 N 
ATOM      8  C   UNL     1       5.575   5.365  16.160  0.00  0.00    +0.000 A 
ATOM      9  N   UNL     1       5.033   4.736  15.090  0.00  0.00    +0.000 NA
ENDROOT
BRANCH   1  13
ATOM     10  C   UNL     1       3.275   2.904  10.290  0.00  0.00    +0.000 C 
ATOM     11  N   UNL     1       4.328   3.051  11.258  0.00  0.00    +0.000 N 
ATOM     12  C   UNL     1       4.384   3.959  12.281  0.00  0.00    +0.000 A 
ATOM     13  C   UNL     1       5.555   3.708  12.971  0.00  0.00    +0.000 A 
ATOM     14  C   UNL     1       6.133   2.631  12.249  0.00  0.00    +0.000 A 
ATOM     15  N   UNL     1       5.389   2.236  11.220  0.00  0.00    +0.000 NA
ENDBRANCH   1  13
BRANCH   7  16
ATOM     16  C   UNL     1       3.563   5.942  17.630  0.00  0.00    +0.000 C 
BRANCH  16  17
ATOM     17  C   UNL     1       3.059   4.593  18.074  0.00  0.00    +0.000 A 
ATOM     18  C   UNL     1       1.802   4.122  17.609  0.00  0.00    +0.000 A 
ATOM     19  C   UNL     1       1.069   3.224  18.376  0.00  0.00    +0.000 A 
ATOM     20  C   UNL     1       1.642   2.836  19.564  0.00  0.00    +0.000 A 
ATOM     21  C   UNL     1       2.986   3.026  19.862  0.00  0.00    +0.000 A 
ATOM     22  C   UNL     1       3.713   3.943  19.132  0.00  0.00    +0.000 A 
ATOM     23  C   UNL     1       3.207   2.524  21.245  0.00  0.00    +0.000 C 
ATOM     24  C   UNL     1       1.866   3.048  21.735  0.00  0.00    +0.000 C 
ATOM     25  O   UNL     1       0.911   2.594  20.722  0.00  0.00    +0.000 OA
ENDBRANCH  16  17
ENDBRANCH   7  16
TORSDOF 3
ENDMDL
MODEL 6
REMARK VINA RESULT:      -7.5      4.855      8.567
REMARK  Name = 
REMARK  4 active torsions:
REMARK  status: ('A' for Active; 'I' for Inactive)
REMARK    1  A    between atoms: C_1  and  N_2
REMARK    2  A    between atoms: C_4  and  C_5
REMARK    3  A    between atoms: N_11  and  C_12
REMARK    4  A    between atoms: C_12  and  C_13
REMARK                            x       y       z     vdW  Elec       q    Type
REMARK                         _______ _______ _______ _____ _____    ______ ____
ROOT
ATOM      1  C   UNL     1       0.184  10.459  20.356  0.00  0.00    +0.000 A 
ATOM      2  C   UNL     1       0.324  11.227  19.196  0.00  0.00    +0.000 A 
ATOM      3  N   UNL     1       1.024  10.859  18.096  0.00  0.00    +0.000 NA
ATOM      4  C   UNL     1       1.599   9.642  18.236  0.00  0.00    +0.000 A 
ATOM      5  N   UNL     1       2.373   8.968  17.329  0.00  0.00    +0.000 NA
ATOM      6  N   UNL     1       2.766   7.830  17.890  0.00  0.00    +0.000 NA
ATOM      7  N   UNL     1       2.237   7.773  19.140  0.00  0.00    +0.000 N 
ATOM      8  C   UNL     1       1.475   8.891  19.404  0.00  0.00    +0.000 A 
ATOM      9  N   UNL     1       0.780   9.238  20.513  0.00  0.00    +0.000 NA
ENDROOT
BRANCH   1  13
ATOM     10  C   UNL     1      -3.065  13.116  23.019  0.00  0.00    +0.000 C 
ATOM     11  N   UNL     1      -2.088  12.140  22.619  0.00  0.00    +0.000 N 
ATOM     12  C   UNL     1      -1.561  11.969  21.367  0.00  0.00    +0.000 A 
ATOM     13  C   UNL     1      -0.638  10.943  21.461  0.00  0.00    +0.000 A 
ATOM     14  C   UNL     1      -0.716  10.561  22.826  0.00  0.00    +0.000 A 
ATOM     15  N   UNL     1      -1.588  11.287  23.521  0.00  0.00    +0.000 NA
ENDBRANCH   1  13
BRANCH   7  16
ATOM     16  C   UNL     1       2.586   6.674  20.032  0.00  0.00    +0.000 C 
BRANCH  16  17
ATOM     17  C   UNL     1       1.907   5.405  19.586  0.00  0.00    +0.000 A 
ATOM     18  C   UNL     1       1.150   4.646  20.517  0.00  0.00    +0.000 A 
ATOM     19  C   UNL     1       1.000   3.275  20.339  0.00  0.00    +0.000 A 
ATOM     20  C   UNL     1       1.607   2.741  19.227  0.00  0.00    +0.000 A 
ATOM     21  C   UNL     1       2.056   3.508  18.159  0.00  0.00    +0.000 A 
ATOM     22  C   UNL     1       2.245   4.862  18.337  0.00  0.00    +0.000 A 
ATOM     23  C   UNL     1       2.694   2.581  17.186  0.00  0.00    +0.000 C 
ATOM     24  C   UNL     1       3.304   1.722  18.283  0.00  0.00    +0.000 C 
ATOM     25  O   UNL     1       2.195   1.481  19.209  0.00  0.00    +0.000 OA
ENDBRANCH  16  17
ENDBRANCH   7  16
TORSDOF 3
ENDMDL
MODEL 7
REMARK VINA RESULT:      -7.5      6.138      8.566
REMARK  Name = 
REMARK  4 active torsions:
REMARK  status: ('A' for Active; 'I' for Inactive)
REMARK    1  A    between atoms: C_1  and  N_2
REMARK    2  A    between atoms: C_4  and  C_5
REMARK    3  A    between atoms: N_11  and  C_12
REMARK    4  A    between atoms: C_12  and  C_13
REMARK                            x       y       z     vdW  Elec       q    Type
REMARK                         _______ _______ _______ _____ _____    ______ ____
ROOT
ATOM      1  C   UNL     1      -1.642  11.401  18.583  0.00  0.00    +0.000 A 
ATOM      2  C   UNL     1      -1.255  12.703  18.916  0.00  0.00    +0.000 A 
ATOM      3  N   UNL     1      -0.337  13.025  19.861  0.00  0.00    +0.000 NA
ATOM      4  C   UNL     1       0.177  11.933  20.472  0.00  0.00    +0.000 A 
ATOM      5  N   UNL     1       1.117  11.891  21.467  0.00  0.00    +0.000 NA
ATOM      6  N   UNL     1       1.300  10.620  21.805  0.00  0.00    +0.000 NA
ATOM      7  N   UNL     1       0.492   9.856  21.025  0.00  0.00    +0.000 N 
ATOM      8  C   UNL     1      -0.231  10.640  20.151  0.00  0.00    +0.000 A 
ATOM      9  N   UNL     1      -1.143  10.295  19.211  0.00  0.00    +0.000 NA
ENDROOT
BRANCH   1  13
ATOM     10  C   UNL     1      -3.676  10.005  14.267  0.00  0.00    +0.000 C 
ATOM     11  N   UNL     1      -3.485  10.545  15.586  0.00  0.00    +0.000 N 
ATOM     12  C   UNL     1      -2.339  10.506  16.333  0.00  0.00    +0.000 A 
ATOM     13  C   UNL     1      -2.609  11.178  17.511  0.00  0.00    +0.000 A 
ATOM     14  C   UNL     1      -3.967  11.560  17.362  0.00  0.00    +0.000 A 
ATOM     15  N   UNL     1      -4.491  11.180  16.200  0.00  0.00    +0.000 NA
ENDBRANCH   1  13
BRANCH   7  16
ATOM     16  C   UNL     1       0.408   8.418  21.246  0.00  0.00    +0.000 C 
BRANCH  16  17
ATOM     17  C   UNL     1       1.486   7.707  20.471  0.00  0.00    +0.000 A 
ATOM     18  C   UNL     1       1.942   8.247  19.240  0.00  0.00    +0.000 A 
ATOM     19  C   UNL     1       2.470   7.408  18.265  0.00  0.00    +0.000 A 
ATOM     20  C   UNL     1       2.524   6.071  18.583  0.00  0.00    +0.000 A 
ATOM     21  C   UNL     1       2.393   5.589  19.880  0.00  0.00    +0.000 A 
ATOM     22  C   UNL     1       1.837   6.400  20.846  0.00  0.00    +0.000 A 
ATOM     23  C   UNL     1       2.455   4.104  19.808  0.00  0.00    +0.000 C 
ATOM     24  C   UNL     1       1.664   4.056  18.510  0.00  0.00    +0.000 C 
ATOM     25  O   UNL     1       2.310   5.056  17.658  0.00  0.00    +0.000 OA
ENDBRANCH  16  17
ENDBRANCH   7  16
TORSDOF 3
ENDMDL
MODEL 8
REMARK VINA RESULT:      -7.5      1.520      2.070
REMARK  Name = 
REMARK  4 active torsions:
REMARK  status: ('A' for Active; 'I' for Inactive)
REMARK    1  A    between atoms: C_1  and  N_2
REMARK    2  A    between atoms: C_4  and  C_5
REMARK    3  A    between atoms: N_11  and  C_12
REMARK    4  A    between atoms: C_12  and  C_13
REMARK                            x       y       z     vdW  Elec       q    Type
REMARK                         _______ _______ _______ _____ _____    ______ ____
ROOT
ATOM      1  C   UNL     1       5.939   4.426  14.255  0.00  0.00    +0.000 A 
ATOM      2  C   UNL     1       7.250   4.878  14.431  0.00  0.00    +0.000 A 
ATOM      3  N   UNL     1       7.687   5.614  15.482  0.00  0.00    +0.000 NA
ATOM      4  C   UNL     1       6.700   5.881  16.368  0.00  0.00    +0.000 A 
ATOM      5  N   UNL     1       6.787   6.595  17.533  0.00  0.00    +0.000 NA
ATOM      6  N   UNL     1       5.574   6.651  18.072  0.00  0.00    +0.000 NA
ATOM      7  N   UNL     1       4.723   5.968  17.263  0.00  0.00    +0.000 N 
ATOM      8  C   UNL     1       5.390   5.447  16.175  0.00  0.00    +0.000 A 
ATOM      9  N   UNL     1       4.932   4.710  15.135  0.00  0.00    +0.000 NA
ENDROOT
BRANCH   1  13
ATOM     10  C   UNL     1       6.139   0.948  10.708  0.00  0.00    +0.000 C 
ATOM     11  N   UNL     1       5.714   2.043  11.538  0.00  0.00    +0.000 N 
ATOM     12  C   UNL     1       6.345   2.522  12.654  0.00  0.00    +0.000 A 
ATOM     13  C   UNL     1       5.599   3.597  13.101  0.00  0.00    +0.000 A 
ATOM     14  C   UNL     1       4.524   3.653  12.176  0.00  0.00    +0.000 A 
ATOM     15  N   UNL     1       4.598   2.717  11.234  0.00  0.00    +0.000 NA
ENDBRANCH   1  13
BRANCH   7  16
ATOM     16  C   UNL     1       3.295   5.948  17.555  0.00  0.00    +0.000 C 
BRANCH  16  17
ATOM     17  C   UNL     1       2.879   4.580  18.031  0.00  0.00    +0.000 A 
ATOM     18  C   UNL     1       1.609   4.062  17.664  0.00  0.00    +0.000 A 
ATOM     19  C   UNL     1       0.973   3.136  18.484  0.00  0.00    +0.000 A 
ATOM     20  C   UNL     1       1.652   2.769  19.622  0.00  0.00    +0.000 A 
ATOM     21  C   UNL     1       3.007   3.012  19.814  0.00  0.00    +0.000 A 
ATOM     22  C   UNL     1       3.638   3.955  19.032  0.00  0.00    +0.000 A 
ATOM     23  C   UNL     1       3.355   2.518  21.174  0.00  0.00    +0.000 C 
ATOM     24  C   UNL     1       2.038   2.990  21.769  0.00  0.00    +0.000 C 
ATOM     25  O   UNL     1       1.024   2.499  20.833  0.00  0.00    +0.000 OA
ENDBRANCH  16  17
ENDBRANCH   7  16
TORSDOF 3
ENDMDL
MODEL 9
REMARK VINA RESULT:      -7.2      4.387      5.738
REMARK  Name = 
REMARK  4 active torsions:
REMARK  status: ('A' for Active; 'I' for Inactive)
REMARK    1  A    between atoms: C_1  and  N_2
REMARK    2  A    between atoms: C_4  and  C_5
REMARK    3  A    between atoms: N_11  and  C_12
REMARK    4  A    between atoms: C_12  and  C_13
REMARK                            x       y       z     vdW  Elec       q    Type
REMARK                         _______ _______ _______ _____ _____    ______ ____
ROOT
ATOM      1  C   UNL     1       4.674   5.530  17.419  0.00  0.00    +0.000 A 
ATOM      2  C   UNL     1       4.562   4.607  18.464  0.00  0.00    +0.000 A 
ATOM      3  N   UNL     1       3.740   4.737  19.534  0.00  0.00    +0.000 NA
ATOM      4  C   UNL     1       3.022   5.883  19.495  0.00  0.00    +0.000 A 
ATOM      5  N   UNL     1       2.105   6.332  20.408  0.00  0.00    +0.000 NA
ATOM      6  N   UNL     1       1.672   7.522  20.004  0.00  0.00    +0.000 NA
ATOM      7  N   UNL     1       2.300   7.824  18.838  0.00  0.00    +0.000 N 
ATOM      8  C   UNL     1       3.156   6.810  18.463  0.00  0.00    +0.000 A 
ATOM      9  N   UNL     1       3.968   6.701  17.385  0.00  0.00    +0.000 NA
ENDROOT
BRANCH   1  13
ATOM     10  C   UNL     1       6.437   3.823  13.097  0.00  0.00    +0.000 C 
ATOM     11  N   UNL     1       6.318   4.486  14.367  0.00  0.00    +0.000 N 
ATOM     12  C   UNL     1       5.202   4.555  15.157  0.00  0.00    +0.000 A 
ATOM     13  C   UNL     1       5.562   5.256  16.293  0.00  0.00    +0.000 A 
ATOM     14  C   UNL     1       6.924   5.577  16.058  0.00  0.00    +0.000 A 
ATOM     15  N   UNL     1       7.377   5.107  14.899  0.00  0.00    +0.000 NA
ENDBRANCH   1  13
BRANCH   7  16
ATOM     16  C   UNL     1       2.094   9.124  18.212  0.00  0.00    +0.000 C 
BRANCH  16  17
ATOM     17  C   UNL     1       0.837   9.764  18.740  0.00  0.00    +0.000 A 
ATOM     18  C   UNL     1      -0.345   9.749  17.954  0.00  0.00    +0.000 A 
ATOM     19  C   UNL     1      -1.298  10.750  18.111  0.00  0.00    +0.000 A 
ATOM     20  C   UNL     1      -1.018  11.707  19.059  0.00  0.00    +0.000 A 
ATOM     21  C   UNL     1      -0.048  11.548  20.041  0.00  0.00    +0.000 A 
ATOM     22  C   UNL     1       0.923  10.583  19.876  0.00  0.00    +0.000 A 
ATOM     23  C   UNL     1      -0.012  12.807  20.833  0.00  0.00    +0.000 C 
ATOM     24  C   UNL     1      -0.231  13.678  19.607  0.00  0.00    +0.000 C 
ATOM     25  O   UNL     1      -1.357  13.048  18.914  0.00  0.00    +0.000 OA
ENDBRANCH  16  17
ENDBRANCH   7  16
TORSDOF 3
ENDMDL
