MODEL 1
REMARK VINA RESULT:      -7.8      0.000      0.000
REMARK  Name = 
REMARK  1 active torsions:
REMARK  status: ('A' for Active; 'I' for Inactive)
REMARK    1  A    between atoms: C_7  and  C_8
REMARK                            x       y       z     vdW  Elec       q    Type
REMARK                         _______ _______ _______ _____ _____    ______ ____
ROOT
ATOM      1  O   UNL     1       2.272   9.270  22.185  0.00  0.00    +0.000 OA
ATOM      2  C   UNL     1       1.228   9.513  21.625  0.00  0.00    +0.000 C 
ATOM      3  C   UNL     1       0.098  10.205  22.318  0.00  0.00    +0.000 C 
ATOM      4  O   UNL     1      -0.110  10.208  23.521  0.00  0.00    +0.000 OA
ATOM      5  N   UNL     1      -0.517  10.853  21.293  0.00  0.00    +0.000 N 
ATOM      6  C   UNL     1      -0.195  10.243  20.057  0.00  0.00    +0.000 C 
ATOM      7  C   UNL     1       0.892   9.417  20.147  0.00  0.00    +0.000 C 
ATOM      8  C   UNL     1      -1.203  10.553  18.993  0.00  0.00    +0.000 A 
ATOM      9  C   UNL     1      -1.772   9.587  18.158  0.00  0.00    +0.000 A 
ATOM     10  C   UNL     1      -2.902   9.894  17.366  0.00  0.00    +0.000 A 
ATOM     11  C   UNL     1      -3.465  11.169  17.370  0.00  0.00    +0.000 A 
ATOM     12  C   UNL     1      -2.933  12.140  18.201  0.00  0.00    +0.000 A 
ATOM     13  C   UNL     1      -1.853  11.818  19.042  0.00  0.00    +0.000 A 
ATOM     14  C   UNL     1      -1.468  12.791  20.125  0.00  0.00    +0.000 C 
ATOM     15  C   UNL     1      -1.366  12.040  21.472  0.00  0.00    +0.000 C 
ATOM     16  C   UNL     1      -0.733  13.025  22.501  0.00  0.00    +0.000 C 
ATOM     17  C   UNL     1      -1.898  13.594  23.289  0.00  0.00    +0.000 C 
ATOM     18  C   UNL     1      -2.841  12.415  23.422  0.00  0.00    +0.000 C 
ATOM     19  C   UNL     1      -2.766  11.710  22.067  0.00  0.00    +0.000 C 
ENDROOT
BRANCH   7  20
ATOM     20  C   UNL     1       1.799   8.428  19.459  0.00  0.00    +0.000 C 
ATOM     21  O   UNL     1       2.492   8.915  18.548  0.00  0.00    +0.000 OA
ATOM     22  N   UNL     1       1.851   7.052  19.663  0.00  0.00    +0.000 N 
ATOM     23  C   UNL     1       2.594   6.268  18.641  0.00  0.00    +0.000 C 
ATOM     24  C   UNL     1       1.751   5.213  17.928  0.00  0.00    +0.000 C 
ATOM     25  C   UNL     1       1.660   3.887  18.671  0.00  0.00    +0.000 C 
ATOM     26  C   UNL     1       1.016   4.006  20.049  0.00  0.00    +0.000 C 
ATOM     27  C   UNL     1       1.805   4.883  21.020  0.00  0.00    +0.000 C 
ATOM     28  C   UNL     1       1.520   6.397  20.918  0.00  0.00    +0.000 C 
ENDBRANCH   7  20
TORSDOF 1
ENDMDL
MODEL 2
REMARK VINA RESULT:      -7.8      2.571      8.011
REMARK  Name = 
REMARK  1 active torsions:
REMARK  status: ('A' for Active; 'I' for Inactive)
REMARK    1  A    between atoms: C_7  and  C_8
REMARK                            x       y       z     vdW  Elec       q    Type
REMARK                         _______ _______ _______ _____ _____    ______ ____
ROOT
ATOM      1  O   UNL     1       3.345   9.444  17.284  0.00  0.00    +0.000 OA
ATOM      2  C   UNL     1       3.150   8.290  17.587  0.00  0.00    +0.000 C 
ATOM      3  C   UNL     1       4.028   7.182  17.099  0.00  0.00    +0.000 C 
ATOM      4  O   UNL     1       4.699   7.195  16.080  0.00  0.00    +0.000 OA
ATOM      5  N   UNL     1       3.931   6.273  18.106  0.00  0.00    +0.000 N 
ATOM      6  C   UNL     1       2.753   6.490  18.859  0.00  0.00    +0.000 C 
ATOM      7  C   UNL     1       2.206   7.724  18.634  0.00  0.00    +0.000 C 
ATOM      8  C   UNL     1       2.328   5.266  19.612  0.00  0.00    +0.000 A 
ATOM      9  C   UNL     1       1.021   4.772  19.616  0.00  0.00    +0.000 A 
ATOM     10  C   UNL     1       0.738   3.481  20.117  0.00  0.00    +0.000 A 
ATOM     11  C   UNL     1       1.745   2.673  20.645  0.00  0.00    +0.000 A 
ATOM     12  C   UNL     1       3.052   3.130  20.636  0.00  0.00    +0.000 A 
ATOM     13  C   UNL     1       3.345   4.385  20.076  0.00  0.00    +0.000 A 
ATOM     14  C   UNL     1       4.786   4.745  19.826  0.00  0.00    +0.000 C 
ATOM     15  C   UNL     1       4.943   5.240  18.370  0.00  0.00    +0.000 C 
ATOM     16  C   UNL     1       6.381   5.825  18.237  0.00  0.00    +0.000 C 
ATOM     17  C   UNL     1       7.211   4.727  17.599  0.00  0.00    +0.000 C 
ATOM     18  C   UNL     1       6.251   4.091  16.613  0.00  0.00    +0.000 C 
ATOM     19  C   UNL     1       4.909   4.069  17.345  0.00  0.00    +0.000 C 
ENDROOT
BRANCH   7  20
ATOM     20  C   UNL     1       1.072   8.681  18.899  0.00  0.00    +0.000 C 
ATOM     21  O   UNL     1       0.707   9.333  17.905  0.00  0.00    +0.000 OA
ATOM     22  N   UNL     1       0.490   8.974  20.130  0.00  0.00    +0.000 N 
ATOM     23  C   UNL     1      -0.384  10.177  20.169  0.00  0.00    +0.000 C 
ATOM     24  C   UNL     1       0.073  11.249  21.156  0.00  0.00    +0.000 C 
ATOM     25  C   UNL     1      -0.414  11.026  22.581  0.00  0.00    +0.000 C 
ATOM     26  C   UNL     1       0.084   9.722  23.195  0.00  0.00    +0.000 C 
ATOM     27  C   UNL     1      -0.416   8.473  22.470  0.00  0.00    +0.000 C 
ATOM     28  C   UNL     1       0.423   8.045  21.246  0.00  0.00    +0.000 C 
ENDBRANCH   7  20
TORSDOF 1
ENDMDL
MODEL 3
REMARK VINA RESULT:      -7.6      3.065      4.763
REMARK  Name = 
REMARK  1 active torsions:
REMARK  status: ('A' for Active; 'I' for Inactive)
REMARK    1  A    between atoms: C_7  and  C_8
REMARK                            x       y       z     vdW  Elec       q    Type
REMARK                         _______ _______ _______ _____ _____    ______ ____
ROOT
ATOM      1  O   UNL     1      -1.572  13.094  23.484  0.00  0.00    +0.000 OA
ATOM      2  C   UNL     1      -2.483  12.794  22.747  0.00  0.00    +0.000 C 
ATOM      3  C   UNL     1      -3.892  12.676  23.234  0.00  0.00    +0.000 C 
ATOM      4  O   UNL     1      -4.236  12.428  24.378  0.00  0.00    +0.000 OA
ATOM      5  N   UNL     1      -4.608  13.000  22.124  0.00  0.00    +0.000 N 
ATOM      6  C   UNL     1      -3.830  12.810  20.958  0.00  0.00    +0.000 C 
ATOM      7  C   UNL     1      -2.493  12.702  21.231  0.00  0.00    +0.000 C 
ATOM      8  C   UNL     1      -4.677  12.642  19.733  0.00  0.00    +0.000 A 
ATOM      9  C   UNL     1      -4.489  11.626  18.792  0.00  0.00    +0.000 A 
ATOM     10  C   UNL     1      -5.472  11.359  17.812  0.00  0.00    +0.000 A 
ATOM     11  C   UNL     1      -6.641  12.114  17.735  0.00  0.00    +0.000 A 
ATOM     12  C   UNL     1      -6.862  13.115  18.665  0.00  0.00    +0.000 A 
ATOM     13  C   UNL     1      -5.918  13.337  19.683  0.00  0.00    +0.000 A 
ATOM     14  C   UNL     1      -6.296  14.230  20.835  0.00  0.00    +0.000 C 
ATOM     15  C   UNL     1      -5.988  13.506  22.165  0.00  0.00    +0.000 C 
ATOM     16  C   UNL     1      -6.163  14.550  23.309  0.00  0.00    +0.000 C 
ATOM     17  C   UNL     1      -7.546  14.302  23.881  0.00  0.00    +0.000 C 
ATOM     18  C   UNL     1      -7.684  12.794  23.820  0.00  0.00    +0.000 C 
ATOM     19  C   UNL     1      -7.038  12.403  22.489  0.00  0.00    +0.000 C 
ENDROOT
BRANCH   7  20
ATOM     20  C   UNL     1      -1.103  12.450  20.704  0.00  0.00    +0.000 C 
ATOM     21  O   UNL     1      -0.683  13.326  19.928  0.00  0.00    +0.000 OA
ATOM     22  N   UNL     1      -0.319  11.317  20.907  0.00  0.00    +0.000 N 
ATOM     23  C   UNL     1       0.869  11.179  20.023  0.00  0.00    +0.000 C 
ATOM     24  C   UNL     1       0.870   9.912  19.171  0.00  0.00    +0.000 C 
ATOM     25  C   UNL     1       1.434   8.689  19.882  0.00  0.00    +0.000 C 
ATOM     26  C   UNL     1       0.649   8.296  21.129  0.00  0.00    +0.000 C 
ATOM     27  C   UNL     1       0.668   9.360  22.226  0.00  0.00    +0.000 C 
ATOM     28  C   UNL     1      -0.398  10.467  22.084  0.00  0.00    +0.000 C 
ENDBRANCH   7  20
TORSDOF 1
ENDMDL
MODEL 4
REMARK VINA RESULT:      -7.6      4.421      6.104
REMARK  Name = 
REMARK  1 active torsions:
REMARK  status: ('A' for Active; 'I' for Inactive)
REMARK    1  A    between atoms: C_7  and  C_8
REMARK                            x       y       z     vdW  Elec       q    Type
REMARK                         _______ _______ _______ _____ _____    ______ ____
ROOT
ATOM      1  O   UNL     1      -1.495  12.762  23.181  0.00  0.00    +0.000 OA
ATOM      2  C   UNL     1      -2.466  12.552  22.493  0.00  0.00    +0.000 C 
ATOM      3  C   UNL     1      -3.847  12.491  23.064  0.00  0.00    +0.000 C 
ATOM      4  O   UNL     1      -4.134  12.207  24.215  0.00  0.00    +0.000 OA
ATOM      5  N   UNL     1      -4.610  12.910  22.019  0.00  0.00    +0.000 N 
ATOM      6  C   UNL     1      -3.919  12.734  20.797  0.00  0.00    +0.000 C 
ATOM      7  C   UNL     1      -2.576  12.536  20.978  0.00  0.00    +0.000 C 
ATOM      8  C   UNL     1      -4.848  12.676  19.623  0.00  0.00    +0.000 A 
ATOM      9  C   UNL     1      -4.780  11.699  18.627  0.00  0.00    +0.000 A 
ATOM     10  C   UNL     1      -5.836  11.537  17.701  0.00  0.00    +0.000 A 
ATOM     11  C   UNL     1      -6.961  12.361  17.735  0.00  0.00    +0.000 A 
ATOM     12  C   UNL     1      -7.063  13.326  18.723  0.00  0.00    +0.000 A 
ATOM     13  C   UNL     1      -6.046  13.442  19.686  0.00  0.00    +0.000 A 
ATOM     14  C   UNL     1      -6.297  14.297  20.900  0.00  0.00    +0.000 C 
ATOM     15  C   UNL     1      -5.952  13.492  22.173  0.00  0.00    +0.000 C 
ATOM     16  C   UNL     1      -5.992  14.486  23.372  0.00  0.00    +0.000 C 
ATOM     17  C   UNL     1      -7.349  14.289  24.020  0.00  0.00    +0.000 C 
ATOM     18  C   UNL     1      -7.581  12.796  23.899  0.00  0.00    +0.000 C 
ATOM     19  C   UNL     1      -7.044  12.436  22.513  0.00  0.00    +0.000 C 
ENDROOT
BRANCH   7  20
ATOM     20  C   UNL     1      -1.240  12.232  20.351  0.00  0.00    +0.000 C 
ATOM     21  O   UNL     1      -0.963  11.021  20.294  0.00  0.00    +0.000 OA
ATOM     22  N   UNL     1      -0.272  13.149  19.948  0.00  0.00    +0.000 N 
ATOM     23  C   UNL     1       1.077  12.591  19.661  0.00  0.00    +0.000 C 
ATOM     24  C   UNL     1       2.191  13.174  20.527  0.00  0.00    +0.000 C 
ATOM     25  C   UNL     1       2.773  14.476  19.993  0.00  0.00    +0.000 C 
ATOM     26  C   UNL     1       1.750  15.604  19.898  0.00  0.00    +0.000 C 
ATOM     27  C   UNL     1       0.613  15.318  18.918  0.00  0.00    +0.000 C 
ATOM     28  C   UNL     1      -0.562  14.501  19.498  0.00  0.00    +0.000 C 
ENDBRANCH   7  20
TORSDOF 1
ENDMDL
MODEL 5
REMARK VINA RESULT:      -7.4      4.155      6.664
REMARK  Name = 
REMARK  1 active torsions:
REMARK  status: ('A' for Active; 'I' for Inactive)
REMARK    1  A    between atoms: C_7  and  C_8
REMARK                            x       y       z     vdW  Elec       q    Type
REMARK                         _______ _______ _______ _____ _____    ______ ____
ROOT
ATOM      1  O   UNL     1      -2.512  13.918  22.267  0.00  0.00    +0.000 OA
ATOM      2  C   UNL     1      -2.765  13.123  21.392  0.00  0.00    +0.000 C 
ATOM      3  C   UNL     1      -4.122  12.513  21.241  0.00  0.00    +0.000 C 
ATOM      4  O   UNL     1      -4.945  12.368  22.131  0.00  0.00    +0.000 OA
ATOM      5  N   UNL     1      -4.187  12.280  19.903  0.00  0.00    +0.000 N 
ATOM      6  C   UNL     1      -2.888  12.218  19.346  0.00  0.00    +0.000 C 
ATOM      7  C   UNL     1      -1.936  12.745  20.177  0.00  0.00    +0.000 C 
ATOM      8  C   UNL     1      -2.863  11.474  18.046  0.00  0.00    +0.000 A 
ATOM      9  C   UNL     1      -1.935  10.474  17.742  0.00  0.00    +0.000 A 
ATOM     10  C   UNL     1      -2.124   9.631  16.623  0.00  0.00    +0.000 A 
ATOM     11  C   UNL     1      -3.221   9.786  15.777  0.00  0.00    +0.000 A 
ATOM     12  C   UNL     1      -4.166  10.756  16.065  0.00  0.00    +0.000 A 
ATOM     13  C   UNL     1      -4.016  11.550  17.215  0.00  0.00    +0.000 A 
ATOM     14  C   UNL     1      -5.176  12.401  17.660  0.00  0.00    +0.000 C 
ATOM     15  C   UNL     1      -5.449  12.148  19.160  0.00  0.00    +0.000 C 
ATOM     16  C   UNL     1      -6.482  13.217  19.626  0.00  0.00    +0.000 C 
ATOM     17  C   UNL     1      -7.829  12.519  19.607  0.00  0.00    +0.000 C 
ATOM     18  C   UNL     1      -7.502  11.115  20.076  0.00  0.00    +0.000 C 
ATOM     19  C   UNL     1      -6.167  10.789  19.405  0.00  0.00    +0.000 C 
ENDROOT
BRANCH   7  20
ATOM     20  C   UNL     1      -0.474  13.013  20.427  0.00  0.00    +0.000 C 
ATOM     21  O   UNL     1       0.100  12.140  21.102  0.00  0.00    +0.000 OA
ATOM     22  N   UNL     1       0.242  14.157  20.084  0.00  0.00    +0.000 N 
ATOM     23  C   UNL     1       1.578  14.308  20.722  0.00  0.00    +0.000 C 
ATOM     24  C   UNL     1       1.727  15.572  21.566  0.00  0.00    +0.000 C 
ATOM     25  C   UNL     1       2.128  16.805  20.767  0.00  0.00    +0.000 C 
ATOM     26  C   UNL     1       1.112  17.192  19.698  0.00  0.00    +0.000 C 
ATOM     27  C   UNL     1       0.932  16.133  18.612  0.00  0.00    +0.000 C 
ATOM     28  C   UNL     1      -0.073  15.011  18.950  0.00  0.00    +0.000 C 
ENDBRANCH   7  20
TORSDOF 1
ENDMDL
MODEL 6
REMARK VINA RESULT:      -7.4      3.026      5.032
REMARK  Name = 
REMARK  1 active torsions:
REMARK  status: ('A' for Active; 'I' for Inactive)
REMARK    1  A    between atoms: C_7  and  C_8
REMARK                            x       y       z     vdW  Elec       q    Type
REMARK                         _______ _______ _______ _____ _____    ______ ____
ROOT
ATOM      1  O   UNL     1      -2.402   9.874  17.549  0.00  0.00    +0.000 OA
ATOM      2  C   UNL     1      -2.652  10.890  18.154  0.00  0.00    +0.000 C 
ATOM      3  C   UNL     1      -4.010  11.516  18.129  0.00  0.00    +0.000 C 
ATOM      4  O   UNL     1      -4.839  11.393  17.243  0.00  0.00    +0.000 OA
ATOM      5  N   UNL     1      -4.066  12.132  19.341  0.00  0.00    +0.000 N 
ATOM      6  C   UNL     1      -2.763  12.355  19.845  0.00  0.00    +0.000 C 
ATOM      7  C   UNL     1      -1.816  11.609  19.198  0.00  0.00    +0.000 C 
ATOM      8  C   UNL     1      -2.732  13.449  20.869  0.00  0.00    +0.000 A 
ATOM      9  C   UNL     1      -1.805  14.495  20.859  0.00  0.00    +0.000 A 
ATOM     10  C   UNL     1      -1.989  15.629  21.682  0.00  0.00    +0.000 A 
ATOM     11  C   UNL     1      -3.079  15.729  22.546  0.00  0.00    +0.000 A 
ATOM     12  C   UNL     1      -4.023  14.715  22.562  0.00  0.00    +0.000 A 
ATOM     13  C   UNL     1      -3.879  13.619  21.695  0.00  0.00    +0.000 A 
ATOM     14  C   UNL     1      -5.039  12.673  21.528  0.00  0.00    +0.000 C 
ATOM     15  C   UNL     1      -5.323  12.474  20.022  0.00  0.00    +0.000 C 
ATOM     16  C   UNL     1      -6.356  11.314  19.898  0.00  0.00    +0.000 C 
ATOM     17  C   UNL     1      -7.705  11.986  19.722  0.00  0.00    +0.000 C 
ATOM     18  C   UNL     1      -7.386  13.191  18.860  0.00  0.00    +0.000 C 
ATOM     19  C   UNL     1      -6.048  13.702  19.395  0.00  0.00    +0.000 C 
ENDROOT
BRANCH   7  20
ATOM     20  C   UNL     1      -0.354  11.281  19.026  0.00  0.00    +0.000 C 
ATOM     21  O   UNL     1       0.225  11.960  18.160  0.00  0.00    +0.000 OA
ATOM     22  N   UNL     1       0.355  10.252  19.641  0.00  0.00    +0.000 N 
ATOM     23  C   UNL     1       1.691   9.944  19.064  0.00  0.00    +0.000 C 
ATOM     24  C   UNL     1       1.835   8.512  18.555  0.00  0.00    +0.000 C 
ATOM     25  C   UNL     1       2.228   7.509  19.631  0.00  0.00    +0.000 C 
ATOM     26  C   UNL     1       1.207   7.399  20.759  0.00  0.00    +0.000 C 
ATOM     27  C   UNL     1       1.030   8.693  21.553  0.00  0.00    +0.000 C 
ATOM     28  C   UNL     1       0.032   9.703  20.948  0.00  0.00    +0.000 C 
ENDBRANCH   7  20
TORSDOF 1
ENDMDL
MODEL 7
REMARK VINA RESULT:      -7.3      9.726     11.903
REMARK  Name = 
REMARK  1 active torsions:
REMARK  status: ('A' for Active; 'I' for Inactive)
REMARK    1  A    between atoms: C_7  and  C_8
REMARK                            x       y       z     vdW  Elec       q    Type
REMARK                         _______ _______ _______ _____ _____    ______ ____
ROOT
ATOM      1  O   UNL     1       6.229  17.815  19.019  0.00  0.00    +0.000 OA
ATOM      2  C   UNL     1       7.123  17.049  18.742  0.00  0.00    +0.000 C 
ATOM      3  C   UNL     1       8.508  17.521  18.434  0.00  0.00    +0.000 C 
ATOM      4  O   UNL     1       8.809  18.621  18.002  0.00  0.00    +0.000 OA
ATOM      5  N   UNL     1       9.268  16.470  18.840  0.00  0.00    +0.000 N 
ATOM      6  C   UNL     1       8.496  15.285  18.881  0.00  0.00    +0.000 C 
ATOM      7  C   UNL     1       7.151  15.535  18.857  0.00  0.00    +0.000 C 
ATOM      8  C   UNL     1       9.345  14.052  18.807  0.00  0.00    +0.000 A 
ATOM      9  C   UNL     1       9.084  12.980  17.950  0.00  0.00    +0.000 A 
ATOM     10  C   UNL     1      10.056  11.977  17.732  0.00  0.00    +0.000 A 
ATOM     11  C   UNL     1      11.289  12.010  18.383  0.00  0.00    +0.000 A 
ATOM     12  C   UNL     1      11.581  13.070  19.224  0.00  0.00    +0.000 A 
ATOM     13  C   UNL     1      10.644  14.104  19.389  0.00  0.00    +0.000 A 
ATOM     14  C   UNL     1      11.079  15.370  20.079  0.00  0.00    +0.000 C 
ATOM     15  C   UNL     1      10.686  16.586  19.211  0.00  0.00    +0.000 C 
ATOM     16  C   UNL     1      10.933  17.863  20.069  0.00  0.00    +0.000 C 
ATOM     17  C   UNL     1      12.279  18.402  19.622  0.00  0.00    +0.000 C 
ATOM     18  C   UNL     1      12.285  18.135  18.130  0.00  0.00    +0.000 C 
ATOM     19  C   UNL     1      11.630  16.760  17.984  0.00  0.00    +0.000 C 
ENDROOT
BRANCH   7  20
ATOM     20  C   UNL     1       5.753  14.971  18.805  0.00  0.00    +0.000 C 
ATOM     21  O   UNL     1       5.397  14.585  17.678  0.00  0.00    +0.000 OA
ATOM     22  N   UNL     1       4.818  14.948  19.837  0.00  0.00    +0.000 N 
ATOM     23  C   UNL     1       3.418  14.634  19.442  0.00  0.00    +0.000 C 
ATOM     24  C   UNL     1       2.413  15.733  19.780  0.00  0.00    +0.000 C 
ATOM     25  C   UNL     1       1.876  15.662  21.203  0.00  0.00    +0.000 C 
ATOM     26  C   UNL     1       2.957  15.810  22.268  0.00  0.00    +0.000 C 
ATOM     27  C   UNL     1       3.996  14.689  22.246  0.00  0.00    +0.000 C 
ATOM     28  C   UNL     1       5.158  14.891  21.249  0.00  0.00    +0.000 C 
ENDBRANCH   7  20
TORSDOF 1
ENDMDL
MODEL 8
REMARK VINA RESULT:      -7.2      3.186      5.882
REMARK  Name = 
REMARK  1 active torsions:
REMARK  status: ('A' for Active; 'I' for Inactive)
REMARK    1  A    between atoms: C_7  and  C_8
REMARK                            x       y       z     vdW  Elec       q    Type
REMARK                         _______ _______ _______ _____ _____    ______ ____
ROOT
ATOM      1  O   UNL     1      -3.527  11.881  18.950  0.00  0.00    +0.000 OA
ATOM      2  C   UNL     1      -3.443  12.599  19.920  0.00  0.00    +0.000 C 
ATOM      3  C   UNL     1      -4.632  13.297  20.497  0.00  0.00    +0.000 C 
ATOM      4  O   UNL     1      -5.648  13.600  19.893  0.00  0.00    +0.000 OA
ATOM      5  N   UNL     1      -4.300  13.395  21.812  0.00  0.00    +0.000 N 
ATOM      6  C   UNL     1      -2.898  13.294  21.978  0.00  0.00    +0.000 C 
ATOM      7  C   UNL     1      -2.275  12.781  20.873  0.00  0.00    +0.000 C 
ATOM      8  C   UNL     1      -2.436  13.895  23.271  0.00  0.00    +0.000 A 
ATOM      9  C   UNL     1      -1.360  14.780  23.374  0.00  0.00    +0.000 A 
ATOM     10  C   UNL     1      -1.141  15.515  24.562  0.00  0.00    +0.000 A 
ATOM     11  C   UNL     1      -1.972  15.362  25.671  0.00  0.00    +0.000 A 
ATOM     12  C   UNL     1      -3.057  14.506  25.590  0.00  0.00    +0.000 A 
ATOM     13  C   UNL     1      -3.316  13.826  24.388  0.00  0.00    +0.000 A 
ATOM     14  C   UNL     1      -4.638  13.122  24.228  0.00  0.00    +0.000 C 
ATOM     15  C   UNL     1      -5.286  13.550  22.891  0.00  0.00    +0.000 C 
ATOM     16  C   UNL     1      -6.516  12.622  22.658  0.00  0.00    +0.000 C 
ATOM     17  C   UNL     1      -7.722  13.421  23.114  0.00  0.00    +0.000 C 
ATOM     18  C   UNL     1      -7.390  14.835  22.681  0.00  0.00    +0.000 C 
ATOM     19  C   UNL     1      -5.894  14.981  22.967  0.00  0.00    +0.000 C 
ENDROOT
BRANCH   7  20
ATOM     20  C   UNL     1      -0.976  12.423  20.197  0.00  0.00    +0.000 C 
ATOM     21  O   UNL     1      -0.686  13.146  19.227  0.00  0.00    +0.000 OA
ATOM     22  N   UNL     1      -0.156  11.332  20.474  0.00  0.00    +0.000 N 
ATOM     23  C   UNL     1       0.890  11.027  19.461  0.00  0.00    +0.000 C 
ATOM     24  C   UNL     1       0.780   9.632  18.851  0.00  0.00    +0.000 C 
ATOM     25  C   UNL     1       1.459   8.543  19.670  0.00  0.00    +0.000 C 
ATOM     26  C   UNL     1       0.873   8.381  21.069  0.00  0.00    +0.000 C 
ATOM     27  C   UNL     1       1.041   9.619  21.950  0.00  0.00    +0.000 C 
ATOM     28  C   UNL     1      -0.049  10.699  21.779  0.00  0.00    +0.000 C 
ENDBRANCH   7  20
TORSDOF 1
ENDMDL
MODEL 9
REMARK VINA RESULT:      -7.1      4.073      8.501
REMARK  Name = 
REMARK  1 active torsions:
REMARK  status: ('A' for Active; 'I' for Inactive)
REMARK    1  A    between atoms: C_7  and  C_8
REMARK                            x       y       z     vdW  Elec       q    Type
REMARK                         _______ _______ _______ _____ _____    ______ ____
ROOT
ATOM      1  O   UNL     1      -4.241  11.352  16.315  0.00  0.00    +0.000 OA
ATOM      2  C   UNL     1      -3.983  11.418  17.494  0.00  0.00    +0.000 C 
ATOM      3  C   UNL     1      -2.777  10.757  18.081  0.00  0.00    +0.000 C 
ATOM      4  O   UNL     1      -2.200   9.784  17.624  0.00  0.00    +0.000 OA
ATOM      5  N   UNL     1      -2.491  11.564  19.137  0.00  0.00    +0.000 N 
ATOM      6  C   UNL     1      -3.634  12.303  19.522  0.00  0.00    +0.000 C 
ATOM      7  C   UNL     1      -4.607  12.302  18.559  0.00  0.00    +0.000 C 
ATOM      8  C   UNL     1      -3.546  12.789  20.937  0.00  0.00    +0.000 A 
ATOM      9  C   UNL     1      -4.576  12.652  21.870  0.00  0.00    +0.000 A 
ATOM     10  C   UNL     1      -4.340  12.883  23.245  0.00  0.00    +0.000 A 
ATOM     11  C   UNL     1      -3.086  13.279  23.707  0.00  0.00    +0.000 A 
ATOM     12  C   UNL     1      -2.042  13.405  22.807  0.00  0.00    +0.000 A 
ATOM     13  C   UNL     1      -2.257  13.109  21.449  0.00  0.00    +0.000 A 
ATOM     14  C   UNL     1      -1.063  12.984  20.540  0.00  0.00    +0.000 C 
ATOM     15  C   UNL     1      -1.158  11.659  19.751  0.00  0.00    +0.000 C 
ATOM     16  C   UNL     1      -0.045  11.692  18.661  0.00  0.00    +0.000 C 
ATOM     17  C   UNL     1       1.106  10.883  19.228  0.00  0.00    +0.000 C 
ATOM     18  C   UNL     1       0.412   9.760  19.972  0.00  0.00    +0.000 C 
ATOM     19  C   UNL     1      -0.797  10.426  20.631  0.00  0.00    +0.000 C 
ENDROOT
BRANCH   7  20
ATOM     20  C   UNL     1      -6.004  12.707  18.162  0.00  0.00    +0.000 C 
ATOM     21  O   UNL     1      -6.726  11.765  17.793  0.00  0.00    +0.000 OA
ATOM     22  N   UNL     1      -6.508  14.002  18.065  0.00  0.00    +0.000 N 
ATOM     23  C   UNL     1      -7.804  14.146  17.349  0.00  0.00    +0.000 C 
ATOM     24  C   UNL     1      -7.742  15.054  16.123  0.00  0.00    +0.000 C 
ATOM     25  C   UNL     1      -7.916  16.533  16.439  0.00  0.00    +0.000 C 
ATOM     26  C   UNL     1      -6.837  17.087  17.364  0.00  0.00    +0.000 C 
ATOM     27  C   UNL     1      -6.831  16.445  18.751  0.00  0.00    +0.000 C 
ATOM     28  C   UNL     1      -6.038  15.125  18.860  0.00  0.00    +0.000 C 
ENDBRANCH   7  20
TORSDOF 1
ENDMDL
