MODEL 1
REMARK VINA RESULT:      -7.9      0.000      0.000
REMARK  Name = 
REMARK  11 active torsions:
REMARK  status: ('A' for Active; 'I' for Inactive)
REMARK    1  A    between atoms: C_1  and  C_2
REMARK    2  A    between atoms: N_4  and  CA_5
REMARK    3  A    between atoms: CA_5  and  CB_6
REMARK    4  A    between atoms: CA_5  and  C_12
REMARK    5  A    between atoms: CB_6  and  CG_7
REMARK    6  A    between atoms: CA_18  and  C_19
REMARK    7  A    between atoms: N_21  and  CA_22
REMARK    8  A    between atoms: CA_22  and  CB_23
REMARK    9  A    between atoms: CA_22  and  C_30
REMARK   10  A    between atoms: CB_23  and  CG_24
REMARK   11  A    between atoms: C_30  and  OXT_32
REMARK                            x       y       z     vdW  Elec       q    Type
REMARK                         _______ _______ _______ _____ _____    ______ ____
ROOT
ATOM      1  C   HIS A   1       2.786   6.490  19.493  0.00  0.00    +0.000 C 
ATOM      2  O   HIS A   1       3.982   6.796  19.408  0.00  0.00    +0.000 OA
ATOM      3  N   PRO A   2       2.420   5.161  19.577  0.00  0.00    +0.000 N 
ATOM      4  CD  PRO A   2       1.093   4.582  19.707  0.00  0.00    +0.000 C 
ATOM      5  CG  PRO A   2       1.290   3.399  20.636  0.00  0.00    +0.000 C 
ATOM      6  CB  PRO A   2       2.716   2.929  20.369  0.00  0.00    +0.000 C 
ATOM      7  CA  PRO A   2       3.459   4.139  19.788  0.00  0.00    +0.000 C 
ENDROOT
BRANCH   7   8
ATOM      8  C   PRO A   2       4.175   3.734  18.482  0.00  0.00    +0.000 C 
ATOM      9  O   PRO A   2       3.811   2.779  17.799  0.00  0.00    +0.000 OA
ATOM     10  N   PHE A   3       5.110   4.641  18.038  0.00  0.00    +0.000 N 
ATOM     11  H   PHE A   3       5.470   5.290  18.730  0.00  0.00    +0.000 HD
BRANCH  10  12
ATOM     12  CA  PHE A   3       5.917   4.443  16.836  0.00  0.00    +0.000 C 
BRANCH  12  13
ATOM     13  C   PHE A   3       7.357   4.862  17.155  0.00  0.00    +0.000 C 
ATOM     14  O   PHE A   3       8.261   4.068  17.406  0.00  0.00    +0.000 OA
BRANCH  13  15
ATOM     15  OXT PHE A   3       7.581   6.195  17.108  0.00  0.00    +0.000 OA
ATOM     16  HXT PHE A   3       7.703   6.564  16.210  0.00  0.00    +0.000 HD
ENDBRANCH  13  15
ENDBRANCH  12  13
BRANCH  12  17
ATOM     17  CB  PHE A   3       5.398   5.174  15.588  0.00  0.00    +0.000 C 
BRANCH  17  18
ATOM     18  CG  PHE A   3       5.951   4.694  14.266  0.00  0.00    +0.000 A 
ATOM     19  CD1 PHE A   3       7.172   5.178  13.776  0.00  0.00    +0.000 A 
ATOM     20  CE1 PHE A   3       7.703   4.684  12.583  0.00  0.00    +0.000 A 
ATOM     21  CZ  PHE A   3       7.015   3.710  11.863  0.00  0.00    +0.000 A 
ATOM     22  CE2 PHE A   3       5.789   3.237  12.329  0.00  0.00    +0.000 A 
ATOM     23  CD2 PHE A   3       5.262   3.725  13.525  0.00  0.00    +0.000 A 
ENDBRANCH  17  18
ENDBRANCH  12  17
ENDBRANCH  10  12
ENDBRANCH   7   8
BRANCH   1  24
ATOM     24  CA  HIS A   1       1.704   7.594  19.544  0.00  0.00    +0.000 C 
BRANCH  24  28
ATOM     25  C   UNK A   0       1.017   9.295  22.884  0.00  0.00    +0.000 C 
ATOM     26  C   UNK A   0       0.702   8.546  21.617  0.00  0.00    +0.000 C 
ATOM     27  O   UNK A   0      -0.440   8.227  21.303  0.00  0.00    +0.000 OA
ATOM     28  N   HIS A   1       1.798   8.246  20.858  0.00  0.00    +0.000 N 
ATOM     29  H   HIS A   1       2.735   8.469  21.183  0.00  0.00    +0.000 HD
ENDBRANCH  24  28
BRANCH  24  30
ATOM     30  CB  HIS A   1       1.772   8.614  18.393  0.00  0.00    +0.000 C 
BRANCH  30  31
ATOM     31  CG  HIS A   1       0.973   9.863  18.588  0.00  0.00    +0.000 A 
ATOM     32  CD2 HIS A   1       1.327  11.160  18.896  0.00  0.00    +0.000 A 
ATOM     33  NE2 HIS A   1       0.224  11.968  19.012  0.00  0.00    +0.000 NA
ATOM     34  CE1 HIS A   1      -0.801  11.169  18.818  0.00  0.00    +0.000 A 
ATOM     35  ND1 HIS A   1      -0.402   9.888  18.566  0.00  0.00    +0.000 N 
ATOM     36  HD1 HIS A   1      -1.037   9.124  18.362  0.00  0.00    +0.000 HD
ENDBRANCH  30  31
ENDBRANCH  24  30
ENDBRANCH   1  24
TORSDOF 10
ENDMDL
MODEL 2
REMARK VINA RESULT:      -7.5      2.788      5.405
REMARK  Name = 
REMARK  11 active torsions:
REMARK  status: ('A' for Active; 'I' for Inactive)
REMARK    1  A    between atoms: C_1  and  C_2
REMARK    2  A    between atoms: N_4  and  CA_5
REMARK    3  A    between atoms: CA_5  and  CB_6
REMARK    4  A    between atoms: CA_5  and  C_12
REMARK    5  A    between atoms: CB_6  and  CG_7
REMARK    6  A    between atoms: CA_18  and  C_19
REMARK    7  A    between atoms: N_21  and  CA_22
REMARK    8  A    between atoms: CA_22  and  CB_23
REMARK    9  A    between atoms: CA_22  and  C_30
REMARK   10  A    between atoms: CB_23  and  CG_24
REMARK   11  A    between atoms: C_30  and  OXT_32
REMARK                            x       y       z     vdW  Elec       q    Type
REMARK                         _______ _______ _______ _____ _____    ______ ____
ROOT
ATOM      1  C   HIS A   1       0.394  10.749  19.151  0.00  0.00    +0.000 C 
ATOM      2  O   HIS A   1       1.394  10.786  18.422  0.00  0.00    +0.000 OA
ATOM      3  N   PRO A   2       0.353   9.873  20.218  0.00  0.00    +0.000 N 
ATOM      4  CD  PRO A   2      -0.695   9.681  21.205  0.00  0.00    +0.000 C 
ATOM      5  CG  PRO A   2       0.052   9.420  22.500  0.00  0.00    +0.000 C 
ATOM      6  CB  PRO A   2       1.348   8.741  22.069  0.00  0.00    +0.000 C 
ATOM      7  CA  PRO A   2       1.578   9.155  20.609  0.00  0.00    +0.000 C 
ENDROOT
BRANCH   7   8
ATOM      8  C   PRO A   2       1.839   7.901  19.747  0.00  0.00    +0.000 C 
ATOM      9  O   PRO A   2       1.935   7.950  18.522  0.00  0.00    +0.000 OA
ATOM     10  N   PHE A   3       2.162   6.772  20.464  0.00  0.00    +0.000 N 
ATOM     11  H   PHE A   3       1.890   6.768  21.441  0.00  0.00    +0.000 HD
BRANCH  10  12
ATOM     12  CA  PHE A   3       2.424   5.473  19.847  0.00  0.00    +0.000 C 
BRANCH  12  13
ATOM     13  C   PHE A   3       1.758   4.393  20.707  0.00  0.00    +0.000 C 
ATOM     14  O   PHE A   3       2.281   3.887  21.697  0.00  0.00    +0.000 OA
BRANCH  13  15
ATOM     15  OXT PHE A   3       0.510   4.049  20.314  0.00  0.00    +0.000 OA
ATOM     16  HXT PHE A   3       0.455   3.615  19.440  0.00  0.00    +0.000 HD
ENDBRANCH  13  15
ENDBRANCH  12  13
BRANCH  12  17
ATOM     17  CB  PHE A   3       3.913   5.158  19.627  0.00  0.00    +0.000 C 
BRANCH  17  18
ATOM     18  CG  PHE A   3       4.395   5.225  18.196  0.00  0.00    +0.000 A 
ATOM     19  CD1 PHE A   3       4.810   6.439  17.631  0.00  0.00    +0.000 A 
ATOM     20  CE1 PHE A   3       5.310   6.479  16.328  0.00  0.00    +0.000 A 
ATOM     21  CZ  PHE A   3       5.390   5.310  15.574  0.00  0.00    +0.000 A 
ATOM     22  CE2 PHE A   3       4.960   4.102  16.118  0.00  0.00    +0.000 A 
ATOM     23  CD2 PHE A   3       4.467   4.060  17.422  0.00  0.00    +0.000 A 
ENDBRANCH  17  18
ENDBRANCH  12  17
ENDBRANCH  10  12
ENDBRANCH   7   8
BRANCH   1  24
ATOM     24  CA  HIS A   1      -0.790  11.709  18.892  0.00  0.00    +0.000 C 
BRANCH  24  28
ATOM     25  C   UNK A   0      -0.086  15.453  18.998  0.00  0.00    +0.000 C 
ATOM     26  C   UNK A   0      -0.739  14.151  19.382  0.00  0.00    +0.000 C 
ATOM     27  O   UNK A   0      -1.636  14.080  20.215  0.00  0.00    +0.000 OA
ATOM     28  N   HIS A   1      -0.237  13.060  18.728  0.00  0.00    +0.000 N 
ATOM     29  H   HIS A   1       0.551  13.150  18.092  0.00  0.00    +0.000 HD
ENDBRANCH  24  28
BRANCH  24  30
ATOM     30  CB  HIS A   1      -1.692  11.312  17.710  0.00  0.00    +0.000 C 
BRANCH  30  31
ATOM     31  CG  HIS A   1      -3.163  11.347  17.980  0.00  0.00    +0.000 A 
ATOM     32  CD2 HIS A   1      -4.226  10.641  17.456  0.00  0.00    +0.000 A 
ATOM     33  NE2 HIS A   1      -5.419  11.054  17.996  0.00  0.00    +0.000 NA
ATOM     34  CE1 HIS A   1      -5.098  12.031  18.813  0.00  0.00    +0.000 A 
ATOM     35  ND1 HIS A   1      -3.751  12.251  18.834  0.00  0.00    +0.000 N 
ATOM     36  HD1 HIS A   1      -3.296  12.943  19.419  0.00  0.00    +0.000 HD
ENDBRANCH  30  31
ENDBRANCH  24  30
ENDBRANCH   1  24
TORSDOF 10
ENDMDL
MODEL 3
REMARK VINA RESULT:      -7.5      2.236      4.645
REMARK  Name = 
REMARK  11 active torsions:
REMARK  status: ('A' for Active; 'I' for Inactive)
REMARK    1  A    between atoms: C_1  and  C_2
REMARK    2  A    between atoms: N_4  and  CA_5
REMARK    3  A    between atoms: CA_5  and  CB_6
REMARK    4  A    between atoms: CA_5  and  C_12
REMARK    5  A    between atoms: CB_6  and  CG_7
REMARK    6  A    between atoms: CA_18  and  C_19
REMARK    7  A    between atoms: N_21  and  CA_22
REMARK    8  A    between atoms: CA_22  and  CB_23
REMARK    9  A    between atoms: CA_22  and  C_30
REMARK   10  A    between atoms: CB_23  and  CG_24
REMARK   11  A    between atoms: C_30  and  OXT_32
REMARK                            x       y       z     vdW  Elec       q    Type
REMARK                         _______ _______ _______ _____ _____    ______ ____
ROOT
ATOM      1  C   HIS A   1       4.453   6.466  17.493  0.00  0.00    +0.000 C 
ATOM      2  O   HIS A   1       4.553   7.023  16.392  0.00  0.00    +0.000 OA
ATOM      3  N   PRO A   2       5.546   5.825  18.042  0.00  0.00    +0.000 N 
ATOM      4  CD  PRO A   2       5.661   5.137  19.316  0.00  0.00    +0.000 C 
ATOM      5  CG  PRO A   2       7.059   5.474  19.800  0.00  0.00    +0.000 C 
ATOM      6  CB  PRO A   2       7.877   5.653  18.526  0.00  0.00    +0.000 C 
ATOM      7  CA  PRO A   2       6.870   5.999  17.421  0.00  0.00    +0.000 C 
ENDROOT
BRANCH   7   8
ATOM      8  C   PRO A   2       7.089   5.071  16.206  0.00  0.00    +0.000 C 
ATOM      9  O   PRO A   2       6.987   3.849  16.282  0.00  0.00    +0.000 OA
ATOM     10  N   PHE A   3       7.196   5.725  15.000  0.00  0.00    +0.000 N 
ATOM     11  H   PHE A   3       7.446   6.708  15.043  0.00  0.00    +0.000 HD
BRANCH  10  12
ATOM     12  CA  PHE A   3       7.429   5.041  13.730  0.00  0.00    +0.000 C 
BRANCH  12  13
ATOM     13  C   PHE A   3       8.396   5.892  12.899  0.00  0.00    +0.000 C 
ATOM     14  O   PHE A   3       9.554   6.134  13.232  0.00  0.00    +0.000 OA
BRANCH  13  15
ATOM     15  OXT PHE A   3       7.888   6.344  11.729  0.00  0.00    +0.000 OA
ATOM     16  HXT PHE A   3       8.548   6.701  11.102  0.00  0.00    +0.000 HD
ENDBRANCH  13  15
ENDBRANCH  12  13
BRANCH  12  17
ATOM     17  CB  PHE A   3       6.154   4.722  12.932  0.00  0.00    +0.000 C 
BRANCH  17  18
ATOM     18  CG  PHE A   3       6.154   3.404  12.192  0.00  0.00    +0.000 A 
ATOM     19  CD1 PHE A   3       4.951   2.789  11.815  0.00  0.00    +0.000 A 
ATOM     20  CE1 PHE A   3       4.962   1.602  11.081  0.00  0.00    +0.000 A 
ATOM     21  CZ  PHE A   3       6.173   1.013  10.724  0.00  0.00    +0.000 A 
ATOM     22  CE2 PHE A   3       7.374   1.603  11.112  0.00  0.00    +0.000 A 
ATOM     23  CD2 PHE A   3       7.364   2.793  11.840  0.00  0.00    +0.000 A 
ENDBRANCH  17  18
ENDBRANCH  12  17
ENDBRANCH  10  12
ENDBRANCH   7   8
BRANCH   1  24
ATOM     24  CA  HIS A   1       3.118   6.522  18.272  0.00  0.00    +0.000 C 
BRANCH  24  28
ATOM     25  C   UNK A   0       1.072   9.736  18.225  0.00  0.00    +0.000 C 
ATOM     26  C   UNK A   0       1.759   8.537  18.820  0.00  0.00    +0.000 C 
ATOM     27  O   UNK A   0       1.707   8.270  20.017  0.00  0.00    +0.000 OA
ATOM     28  N   HIS A   1       2.449   7.780  17.915  0.00  0.00    +0.000 N 
ATOM     29  H   HIS A   1       2.523   8.069  16.943  0.00  0.00    +0.000 HD
ENDBRANCH  24  28
BRANCH  24  30
ATOM     30  CB  HIS A   1       2.200   5.305  18.061  0.00  0.00    +0.000 C 
BRANCH  30  31
ATOM     31  CG  HIS A   1       1.928   4.481  19.280  0.00  0.00    +0.000 A 
ATOM     32  CD2 HIS A   1       2.031   4.749  20.630  0.00  0.00    +0.000 A 
ATOM     33  NE2 HIS A   1       1.705   3.650  21.385  0.00  0.00    +0.000 NA
ATOM     34  CE1 HIS A   1       1.443   2.705  20.511  0.00  0.00    +0.000 A 
ATOM     35  ND1 HIS A   1       1.571   3.154  19.228  0.00  0.00    +0.000 N 
ATOM     36  HD1 HIS A   1       1.387   2.590  18.406  0.00  0.00    +0.000 HD
ENDBRANCH  30  31
ENDBRANCH  24  30
ENDBRANCH   1  24
TORSDOF 10
ENDMDL
MODEL 4
REMARK VINA RESULT:      -7.4      2.720      5.318
REMARK  Name = 
REMARK  11 active torsions:
REMARK  status: ('A' for Active; 'I' for Inactive)
REMARK    1  A    between atoms: C_1  and  C_2
REMARK    2  A    between atoms: N_4  and  CA_5
REMARK    3  A    between atoms: CA_5  and  CB_6
REMARK    4  A    between atoms: CA_5  and  C_12
REMARK    5  A    between atoms: CB_6  and  CG_7
REMARK    6  A    between atoms: CA_18  and  C_19
REMARK    7  A    between atoms: N_21  and  CA_22
REMARK    8  A    between atoms: CA_22  and  CB_23
REMARK    9  A    between atoms: CA_22  and  C_30
REMARK   10  A    between atoms: CB_23  and  CG_24
REMARK   11  A    between atoms: C_30  and  OXT_32
REMARK                            x       y       z     vdW  Elec       q    Type
REMARK                         _______ _______ _______ _____ _____    ______ ____
ROOT
ATOM      1  C   HIS A   1       0.401  10.186  18.895  0.00  0.00    +0.000 C 
ATOM      2  O   HIS A   1       1.374  10.210  18.129  0.00  0.00    +0.000 OA
ATOM      3  N   PRO A   2       0.452   9.426  20.047  0.00  0.00    +0.000 N 
ATOM      4  CD  PRO A   2      -0.550   9.272  21.088  0.00  0.00    +0.000 C 
ATOM      5  CG  PRO A   2       0.252   9.198  22.374  0.00  0.00    +0.000 C 
ATOM      6  CB  PRO A   2       1.578   8.563  21.967  0.00  0.00    +0.000 C 
ATOM      7  CA  PRO A   2       1.734   8.834  20.464  0.00  0.00    +0.000 C 
ENDROOT
BRANCH   7   8
ATOM      8  C   PRO A   2       2.054   7.516  19.727  0.00  0.00    +0.000 C 
ATOM      9  O   PRO A   2       2.308   7.477  18.525  0.00  0.00    +0.000 OA
ATOM     10  N   PHE A   3       2.238   6.430  20.552  0.00  0.00    +0.000 N 
ATOM     11  H   PHE A   3       1.844   6.503  21.484  0.00  0.00    +0.000 HD
BRANCH  10  12
ATOM     12  CA  PHE A   3       2.526   5.084  20.061  0.00  0.00    +0.000 C 
BRANCH  12  13
ATOM     13  C   PHE A   3       1.719   4.087  20.900  0.00  0.00    +0.000 C 
ATOM     14  O   PHE A   3       2.121   3.594  21.951  0.00  0.00    +0.000 OA
BRANCH  13  15
ATOM     15  OXT PHE A   3       0.489   3.805  20.412  0.00  0.00    +0.000 OA
ATOM     16  HXT PHE A   3       0.047   4.543  19.948  0.00  0.00    +0.000 HD
ENDBRANCH  13  15
ENDBRANCH  12  13
BRANCH  12  17
ATOM     17  CB  PHE A   3       4.017   4.712  20.051  0.00  0.00    +0.000 C 
BRANCH  17  18
ATOM     18  CG  PHE A   3       4.649   4.557  18.686  0.00  0.00    +0.000 A 
ATOM     19  CD1 PHE A   3       3.873   4.224  17.566  0.00  0.00    +0.000 A 
ATOM     20  CE1 PHE A   3       4.455   4.142  16.301  0.00  0.00    +0.000 A 
ATOM     21  CZ  PHE A   3       5.819   4.381  16.143  0.00  0.00    +0.000 A 
ATOM     22  CE2 PHE A   3       6.603   4.691  17.252  0.00  0.00    +0.000 A 
ATOM     23  CD2 PHE A   3       6.020   4.780  18.516  0.00  0.00    +0.000 A 
ENDBRANCH  17  18
ENDBRANCH  12  17
ENDBRANCH  10  12
ENDBRANCH   7   8
BRANCH   1  24
ATOM     24  CA  HIS A   1      -0.853  11.035  18.583  0.00  0.00    +0.000 C 
BRANCH  24  28
ATOM     25  C   UNK A   0      -0.071  14.762  18.713  0.00  0.00    +0.000 C 
ATOM     26  C   UNK A   0      -0.502  13.415  19.229  0.00  0.00    +0.000 C 
ATOM     27  O   UNK A   0      -0.900  13.242  20.376  0.00  0.00    +0.000 OA
ATOM     28  N   HIS A   1      -0.404  12.406  18.311  0.00  0.00    +0.000 N 
ATOM     29  H   HIS A   1      -0.008  12.576  17.390  0.00  0.00    +0.000 HD
ENDBRANCH  24  28
BRANCH  24  30
ATOM     30  CB  HIS A   1      -1.734  10.485  17.447  0.00  0.00    +0.000 C 
BRANCH  30  31
ATOM     31  CG  HIS A   1      -3.141  10.992  17.417  0.00  0.00    +0.000 A 
ATOM     32  CD2 HIS A   1      -4.049  11.170  16.393  0.00  0.00    +0.000 A 
ATOM     33  NE2 HIS A   1      -5.224  11.709  16.852  0.00  0.00    +0.000 NA
ATOM     34  CE1 HIS A   1      -5.029  11.899  18.137  0.00  0.00    +0.000 A 
ATOM     35  ND1 HIS A   1      -3.786  11.490  18.525  0.00  0.00    +0.000 N 
ATOM     36  HD1 HIS A   1      -3.447  11.525  19.480  0.00  0.00    +0.000 HD
ENDBRANCH  30  31
ENDBRANCH  24  30
ENDBRANCH   1  24
TORSDOF 10
ENDMDL
MODEL 5
REMARK VINA RESULT:      -7.3      2.758      5.349
REMARK  Name = 
REMARK  11 active torsions:
REMARK  status: ('A' for Active; 'I' for Inactive)
REMARK    1  A    between atoms: C_1  and  C_2
REMARK    2  A    between atoms: N_4  and  CA_5
REMARK    3  A    between atoms: CA_5  and  CB_6
REMARK    4  A    between atoms: CA_5  and  C_12
REMARK    5  A    between atoms: CB_6  and  CG_7
REMARK    6  A    between atoms: CA_18  and  C_19
REMARK    7  A    between atoms: N_21  and  CA_22
REMARK    8  A    between atoms: CA_22  and  CB_23
REMARK    9  A    between atoms: CA_22  and  C_30
REMARK   10  A    between atoms: CB_23  and  CG_24
REMARK   11  A    between atoms: C_30  and  OXT_32
REMARK                            x       y       z     vdW  Elec       q    Type
REMARK                         _______ _______ _______ _____ _____    ______ ____
ROOT
ATOM      1  C   HIS A   1       0.353  10.798  19.075  0.00  0.00    +0.000 C 
ATOM      2  O   HIS A   1       1.388  10.936  18.409  0.00  0.00    +0.000 OA
ATOM      3  N   PRO A   2       0.305   9.859  20.086  0.00  0.00    +0.000 N 
ATOM      4  CD  PRO A   2      -0.783   9.549  20.997  0.00  0.00    +0.000 C 
ATOM      5  CG  PRO A   2      -0.095   9.253  22.316  0.00  0.00    +0.000 C 
ATOM      6  CB  PRO A   2       1.261   8.676  21.925  0.00  0.00    +0.000 C 
ATOM      7  CA  PRO A   2       1.547   9.189  20.507  0.00  0.00    +0.000 C 
ENDROOT
BRANCH   7   8
ATOM      8  C   PRO A   2       1.930   8.006  19.592  0.00  0.00    +0.000 C 
ATOM      9  O   PRO A   2       2.079   8.131  18.378  0.00  0.00    +0.000 OA
ATOM     10  N   PHE A   3       2.296   6.860  20.262  0.00  0.00    +0.000 N 
ATOM     11  H   PHE A   3       1.981   6.783  21.223  0.00  0.00    +0.000 HD
BRANCH  10  12
ATOM     12  CA  PHE A   3       2.672   5.619  19.589  0.00  0.00    +0.000 C 
BRANCH  12  13
ATOM     13  C   PHE A   3       2.047   4.450  20.360  0.00  0.00    +0.000 C 
ATOM     14  O   PHE A   3       0.838   4.316  20.536  0.00  0.00    +0.000 OA
BRANCH  13  15
ATOM     15  OXT PHE A   3       2.934   3.536  20.815  0.00  0.00    +0.000 OA
ATOM     16  HXT PHE A   3       2.550   2.667  21.049  0.00  0.00    +0.000 HD
ENDBRANCH  13  15
ENDBRANCH  12  13
BRANCH  12  17
ATOM     17  CB  PHE A   3       4.186   5.416  19.420  0.00  0.00    +0.000 C 
BRANCH  17  18
ATOM     18  CG  PHE A   3       4.679   5.299  17.996  0.00  0.00    +0.000 A 
ATOM     19  CD1 PHE A   3       4.947   4.046  17.426  0.00  0.00    +0.000 A 
ATOM     20  CE1 PHE A   3       5.345   3.945  16.092  0.00  0.00    +0.000 A 
ATOM     21  CZ  PHE A   3       5.490   5.094  15.317  0.00  0.00    +0.000 A 
ATOM     22  CE2 PHE A   3       5.248   6.346  15.879  0.00  0.00    +0.000 A 
ATOM     23  CD2 PHE A   3       4.843   6.447  17.210  0.00  0.00    +0.000 A 
ENDBRANCH  17  18
ENDBRANCH  12  17
ENDBRANCH  10  12
ENDBRANCH   7   8
BRANCH   1  24
ATOM     24  CA  HIS A   1      -0.870  11.704  18.801  0.00  0.00    +0.000 C 
BRANCH  24  28
ATOM     25  C   UNK A   0      -0.143  15.444  18.800  0.00  0.00    +0.000 C 
ATOM     26  C   UNK A   0      -0.688  14.136  19.308  0.00  0.00    +0.000 C 
ATOM     27  O   UNK A   0      -1.354  14.050  20.334  0.00  0.00    +0.000 OA
ATOM     28  N   HIS A   1      -0.368  13.058  18.531  0.00  0.00    +0.000 N 
ATOM     29  H   HIS A   1       0.241  13.159  17.723  0.00  0.00    +0.000 HD
ENDBRANCH  24  28
BRANCH  24  30
ATOM     30  CB  HIS A   1      -1.801  11.204  17.682  0.00  0.00    +0.000 C 
BRANCH  30  31
ATOM     31  CG  HIS A   1      -3.237  11.604  17.810  0.00  0.00    +0.000 A 
ATOM     32  CD2 HIS A   1      -4.053  11.822  18.901  0.00  0.00    +0.000 A 
ATOM     33  NE2 HIS A   1      -5.331  12.140  18.517  0.00  0.00    +0.000 NA
ATOM     34  CE1 HIS A   1      -5.314  12.079  17.205  0.00  0.00    +0.000 A 
ATOM     35  ND1 HIS A   1      -4.077  11.752  16.731  0.00  0.00    +0.000 N 
ATOM     36  HD1 HIS A   1      -3.845  11.680  15.746  0.00  0.00    +0.000 HD
ENDBRANCH  30  31
ENDBRANCH  24  30
ENDBRANCH   1  24
TORSDOF 10
ENDMDL
MODEL 6
REMARK VINA RESULT:      -7.3      3.060      5.396
REMARK  Name = 
REMARK  11 active torsions:
REMARK  status: ('A' for Active; 'I' for Inactive)
REMARK    1  A    between atoms: C_1  and  C_2
REMARK    2  A    between atoms: N_4  and  CA_5
REMARK    3  A    between atoms: CA_5  and  CB_6
REMARK    4  A    between atoms: CA_5  and  C_12
REMARK    5  A    between atoms: CB_6  and  CG_7
REMARK    6  A    between atoms: CA_18  and  C_19
REMARK    7  A    between atoms: N_21  and  CA_22
REMARK    8  A    between atoms: CA_22  and  CB_23
REMARK    9  A    between atoms: CA_22  and  C_30
REMARK   10  A    between atoms: CB_23  and  CG_24
REMARK   11  A    between atoms: C_30  and  OXT_32
REMARK                            x       y       z     vdW  Elec       q    Type
REMARK                         _______ _______ _______ _____ _____    ______ ____
ROOT
ATOM      1  C   HIS A   1       0.469  10.528  18.840  0.00  0.00    +0.000 C 
ATOM      2  O   HIS A   1       1.478  10.642  18.133  0.00  0.00    +0.000 OA
ATOM      3  N   PRO A   2       0.450   9.606  19.868  0.00  0.00    +0.000 N 
ATOM      4  CD  PRO A   2      -0.605   9.324  20.827  0.00  0.00    +0.000 C 
ATOM      5  CG  PRO A   2       0.131   9.042  22.123  0.00  0.00    +0.000 C 
ATOM      6  CB  PRO A   2       1.465   8.444  21.690  0.00  0.00    +0.000 C 
ATOM      7  CA  PRO A   2       1.700   8.929  20.253  0.00  0.00    +0.000 C 
ENDROOT
BRANCH   7   8
ATOM      8  C   PRO A   2       2.035   7.727  19.344  0.00  0.00    +0.000 C 
ATOM      9  O   PRO A   2       2.102   7.823  18.121  0.00  0.00    +0.000 OA
ATOM     10  N   PHE A   3       2.457   6.603  20.017  0.00  0.00    +0.000 N 
ATOM     11  H   PHE A   3       2.207   6.547  20.999  0.00  0.00    +0.000 HD
BRANCH  10  12
ATOM     12  CA  PHE A   3       2.801   5.348  19.352  0.00  0.00    +0.000 C 
BRANCH  12  13
ATOM     13  C   PHE A   3       1.762   4.294  19.753  0.00  0.00    +0.000 C 
ATOM     14  O   PHE A   3       0.826   4.513  20.518  0.00  0.00    +0.000 OA
BRANCH  13  15
ATOM     15  OXT PHE A   3       1.929   3.085  19.169  0.00  0.00    +0.000 OA
ATOM     16  HXT PHE A   3       2.368   3.105  18.295  0.00  0.00    +0.000 HD
ENDBRANCH  13  15
ENDBRANCH  12  13
BRANCH  12  17
ATOM     17  CB  PHE A   3       4.227   4.846  19.631  0.00  0.00    +0.000 C 
BRANCH  17  18
ATOM     18  CG  PHE A   3       5.330   5.532  18.857  0.00  0.00    +0.000 A 
ATOM     19  CD1 PHE A   3       6.654   5.514  19.319  0.00  0.00    +0.000 A 
ATOM     20  CE1 PHE A   3       7.673   6.100  18.566  0.00  0.00    +0.000 A 
ATOM     21  CZ  PHE A   3       7.380   6.717  17.352  0.00  0.00    +0.000 A 
ATOM     22  CE2 PHE A   3       6.064   6.760  16.895  0.00  0.00    +0.000 A 
ATOM     23  CD2 PHE A   3       5.046   6.168  17.643  0.00  0.00    +0.000 A 
ENDBRANCH  17  18
ENDBRANCH  12  17
ENDBRANCH  10  12
ENDBRANCH   7   8
BRANCH   1  24
ATOM     24  CA  HIS A   1      -0.755  11.442  18.599  0.00  0.00    +0.000 C 
BRANCH  24  28
ATOM     25  C   UNK A   0       0.313  15.097  18.754  0.00  0.00    +0.000 C 
ATOM     26  C   UNK A   0      -0.136  13.758  19.277  0.00  0.00    +0.000 C 
ATOM     27  O   UNK A   0      -0.370  13.555  20.464  0.00  0.00    +0.000 OA
ATOM     28  N   HIS A   1      -0.250  12.792  18.316  0.00  0.00    +0.000 N 
ATOM     29  H   HIS A   1       0.015  12.981  17.352  0.00  0.00    +0.000 HD
ENDBRANCH  24  28
BRANCH  24  30
ATOM     30  CB  HIS A   1      -1.718  10.950  17.504  0.00  0.00    +0.000 C 
BRANCH  30  31
ATOM     31  CG  HIS A   1      -3.130  11.432  17.621  0.00  0.00    +0.000 A 
ATOM     32  CD2 HIS A   1      -3.920  11.755  18.705  0.00  0.00    +0.000 A 
ATOM     33  NE2 HIS A   1      -5.184  12.119  18.314  0.00  0.00    +0.000 NA
ATOM     34  CE1 HIS A   1      -5.185  11.983  17.007  0.00  0.00    +0.000 A 
ATOM     35  ND1 HIS A   1      -3.972  11.564  16.542  0.00  0.00    +0.000 N 
ATOM     36  HD1 HIS A   1      -3.755  11.425  15.561  0.00  0.00    +0.000 HD
ENDBRANCH  30  31
ENDBRANCH  24  30
ENDBRANCH   1  24
TORSDOF 10
ENDMDL
MODEL 7
REMARK VINA RESULT:      -7.3      2.641      5.168
REMARK  Name = 
REMARK  11 active torsions:
REMARK  status: ('A' for Active; 'I' for Inactive)
REMARK    1  A    between atoms: C_1  and  C_2
REMARK    2  A    between atoms: N_4  and  CA_5
REMARK    3  A    between atoms: CA_5  and  CB_6
REMARK    4  A    between atoms: CA_5  and  C_12
REMARK    5  A    between atoms: CB_6  and  CG_7
REMARK    6  A    between atoms: CA_18  and  C_19
REMARK    7  A    between atoms: N_21  and  CA_22
REMARK    8  A    between atoms: CA_22  and  CB_23
REMARK    9  A    between atoms: CA_22  and  C_30
REMARK   10  A    between atoms: CB_23  and  CG_24
REMARK   11  A    between atoms: C_30  and  OXT_32
REMARK                            x       y       z     vdW  Elec       q    Type
REMARK                         _______ _______ _______ _____ _____    ______ ____
ROOT
ATOM      1  C   HIS A   1       0.582  10.719  18.829  0.00  0.00    +0.000 C 
ATOM      2  O   HIS A   1       1.622  10.891  18.180  0.00  0.00    +0.000 OA
ATOM      3  N   PRO A   2       0.487   9.661  19.712  0.00  0.00    +0.000 N 
ATOM      4  CD  PRO A   2      -0.615   9.290  20.582  0.00  0.00    +0.000 C 
ATOM      5  CG  PRO A   2       0.058   8.794  21.849  0.00  0.00    +0.000 C 
ATOM      6  CB  PRO A   2       1.385   8.208  21.378  0.00  0.00    +0.000 C 
ATOM      7  CA  PRO A   2       1.695   8.884  20.036  0.00  0.00    +0.000 C 
ENDROOT
BRANCH   7   8
ATOM      8  C   PRO A   2       2.020   7.811  18.975  0.00  0.00    +0.000 C 
ATOM      9  O   PRO A   2       2.066   8.064  17.773  0.00  0.00    +0.000 OA
ATOM     10  N   PHE A   3       2.459   6.612  19.490  0.00  0.00    +0.000 N 
ATOM     11  H   PHE A   3       2.226   6.429  20.460  0.00  0.00    +0.000 HD
BRANCH  10  12
ATOM     12  CA  PHE A   3       2.799   5.456  18.663  0.00  0.00    +0.000 C 
BRANCH  12  13
ATOM     13  C   PHE A   3       1.613   4.484  18.691  0.00  0.00    +0.000 C 
ATOM     14  O   PHE A   3       1.076   4.091  19.724  0.00  0.00    +0.000 OA
BRANCH  13  15
ATOM     15  OXT PHE A   3       1.165   4.105  17.473  0.00  0.00    +0.000 OA
ATOM     16  HXT PHE A   3       1.860   3.972  16.798  0.00  0.00    +0.000 HD
ENDBRANCH  13  15
ENDBRANCH  12  13
BRANCH  12  17
ATOM     17  CB  PHE A   3       4.101   4.744  19.063  0.00  0.00    +0.000 C 
BRANCH  17  18
ATOM     18  CG  PHE A   3       5.119   4.565  17.960  0.00  0.00    +0.000 A 
ATOM     19  CD1 PHE A   3       4.723   4.196  16.666  0.00  0.00    +0.000 A 
ATOM     20  CE1 PHE A   3       5.664   4.092  15.640  0.00  0.00    +0.000 A 
ATOM     21  CZ  PHE A   3       7.009   4.344  15.898  0.00  0.00    +0.000 A 
ATOM     22  CE2 PHE A   3       7.417   4.689  17.185  0.00  0.00    +0.000 A 
ATOM     23  CD2 PHE A   3       6.476   4.801  18.209  0.00  0.00    +0.000 A 
ENDBRANCH  17  18
ENDBRANCH  12  17
ENDBRANCH  10  12
ENDBRANCH   7   8
BRANCH   1  24
ATOM     24  CA  HIS A   1      -0.596  11.711  18.681  0.00  0.00    +0.000 C 
BRANCH  24  28
ATOM     25  C   UNK A   0       0.233  15.429  18.606  0.00  0.00    +0.000 C 
ATOM     26  C   UNK A   0      -0.404  14.159  19.101  0.00  0.00    +0.000 C 
ATOM     27  O   UNK A   0      -1.188  14.135  20.045  0.00  0.00    +0.000 OA
ATOM     28  N   HIS A   1      -0.027  13.039  18.415  0.00  0.00    +0.000 N 
ATOM     29  H   HIS A   1       0.674  13.088  17.680  0.00  0.00    +0.000 HD
ENDBRANCH  24  28
BRANCH  24  30
ATOM     30  CB  HIS A   1      -1.641  11.313  17.624  0.00  0.00    +0.000 C 
BRANCH  30  31
ATOM     31  CG  HIS A   1      -3.071  11.497  18.027  0.00  0.00    +0.000 A 
ATOM     32  CD2 HIS A   1      -4.262  11.118  17.444  0.00  0.00    +0.000 A 
ATOM     33  NE2 HIS A   1      -5.339  11.552  18.175  0.00  0.00    +0.000 NA
ATOM     34  CE1 HIS A   1      -4.819  12.224  19.176  0.00  0.00    +0.000 A 
ATOM     35  ND1 HIS A   1      -3.455  12.227  19.128  0.00  0.00    +0.000 N 
ATOM     36  HD1 HIS A   1      -2.861  12.666  19.822  0.00  0.00    +0.000 HD
ENDBRANCH  30  31
ENDBRANCH  24  30
ENDBRANCH   1  24
TORSDOF 10
ENDMDL
MODEL 8
REMARK VINA RESULT:      -7.1      3.419      9.172
REMARK  Name = 
REMARK  11 active torsions:
REMARK  status: ('A' for Active; 'I' for Inactive)
REMARK    1  A    between atoms: C_1  and  C_2
REMARK    2  A    between atoms: N_4  and  CA_5
REMARK    3  A    between atoms: CA_5  and  CB_6
REMARK    4  A    between atoms: CA_5  and  C_12
REMARK    5  A    between atoms: CB_6  and  CG_7
REMARK    6  A    between atoms: CA_18  and  C_19
REMARK    7  A    between atoms: N_21  and  CA_22
REMARK    8  A    between atoms: CA_22  and  CB_23
REMARK    9  A    between atoms: CA_22  and  C_30
REMARK   10  A    between atoms: CB_23  and  CG_24
REMARK   11  A    between atoms: C_30  and  OXT_32
REMARK                            x       y       z     vdW  Elec       q    Type
REMARK                         _______ _______ _______ _____ _____    ______ ____
ROOT
ATOM      1  C   HIS A   1       2.266   8.202  18.311  0.00  0.00    +0.000 C 
ATOM      2  O   HIS A   1       2.124   8.803  17.237  0.00  0.00    +0.000 OA
ATOM      3  N   PRO A   2       1.623   8.659  19.445  0.00  0.00    +0.000 N 
ATOM      4  CD  PRO A   2       1.627   8.102  20.787  0.00  0.00    +0.000 C 
ATOM      5  CG  PRO A   2       0.212   8.322  21.289  0.00  0.00    +0.000 C 
ATOM      6  CB  PRO A   2      -0.256   9.590  20.584  0.00  0.00    +0.000 C 
ATOM      7  CA  PRO A   2       0.606   9.716  19.320  0.00  0.00    +0.000 C 
ENDROOT
BRANCH   7   8
ATOM      8  C   PRO A   2       1.219  11.131  19.246  0.00  0.00    +0.000 C 
ATOM      9  O   PRO A   2       1.949  11.487  18.323  0.00  0.00    +0.000 OA
ATOM     10  N   PHE A   3       0.718  12.020  20.170  0.00  0.00    +0.000 N 
ATOM     11  H   PHE A   3       0.270  11.615  20.985  0.00  0.00    +0.000 HD
BRANCH  10  12
ATOM     12  CA  PHE A   3       1.176  13.403  20.288  0.00  0.00    +0.000 C 
BRANCH  12  13
ATOM     13  C   PHE A   3       1.061  13.819  21.759  0.00  0.00    +0.000 C 
ATOM     14  O   PHE A   3       0.155  13.453  22.505  0.00  0.00    +0.000 OA
BRANCH  13  15
ATOM     15  OXT PHE A   3       2.065  14.609  22.203  0.00  0.00    +0.000 OA
ATOM     16  HXT PHE A   3       2.023  15.540  21.905  0.00  0.00    +0.000 HD
ENDBRANCH  13  15
ENDBRANCH  12  13
BRANCH  12  17
ATOM     17  CB  PHE A   3       0.442  14.400  19.377  0.00  0.00    +0.000 C 
BRANCH  17  18
ATOM     18  CG  PHE A   3       1.323  15.336  18.582  0.00  0.00    +0.000 A 
ATOM     19  CD1 PHE A   3       0.927  16.657  18.326  0.00  0.00    +0.000 A 
ATOM     20  CE1 PHE A   3       1.774  17.530  17.642  0.00  0.00    +0.000 A 
ATOM     21  CZ  PHE A   3       3.019  17.092  17.199  0.00  0.00    +0.000 A 
ATOM     22  CE2 PHE A   3       3.415  15.775  17.428  0.00  0.00    +0.000 A 
ATOM     23  CD2 PHE A   3       2.572  14.904  18.118  0.00  0.00    +0.000 A 
ENDBRANCH  17  18
ENDBRANCH  12  17
ENDBRANCH  10  12
ENDBRANCH   7   8
BRANCH   1  24
ATOM     24  CA  HIS A   1       3.129   6.921  18.374  0.00  0.00    +0.000 C 
BRANCH  24  28
ATOM     25  C   UNK A   0       1.203   3.636  18.536  0.00  0.00    +0.000 C 
ATOM     26  C   UNK A   0       2.086   4.753  19.024  0.00  0.00    +0.000 C 
ATOM     27  O   UNK A   0       2.613   4.744  20.132  0.00  0.00    +0.000 OA
ATOM     28  N   HIS A   1       2.241   5.776  18.130  0.00  0.00    +0.000 N 
ATOM     29  H   HIS A   1       1.736   5.778  17.248  0.00  0.00    +0.000 HD
ENDBRANCH  24  28
BRANCH  24  30
ATOM     30  CB  HIS A   1       4.342   6.916  17.427  0.00  0.00    +0.000 C 
BRANCH  30  31
ATOM     31  CG  HIS A   1       5.494   6.064  17.858  0.00  0.00    +0.000 A 
ATOM     32  CD2 HIS A   1       5.748   5.349  19.010  0.00  0.00    +0.000 A 
ATOM     33  NE2 HIS A   1       6.978   4.743  18.963  0.00  0.00    +0.000 NA
ATOM     34  CE1 HIS A   1       7.494   5.114  17.814  0.00  0.00    +0.000 A 
ATOM     35  ND1 HIS A   1       6.641   5.917  17.113  0.00  0.00    +0.000 N 
ATOM     36  HD1 HIS A   1       6.838   6.289  16.190  0.00  0.00    +0.000 HD
ENDBRANCH  30  31
ENDBRANCH  24  30
ENDBRANCH   1  24
TORSDOF 10
ENDMDL
MODEL 9
REMARK VINA RESULT:      -7.1      3.597      9.440
REMARK  Name = 
REMARK  11 active torsions:
REMARK  status: ('A' for Active; 'I' for Inactive)
REMARK    1  A    between atoms: C_1  and  C_2
REMARK    2  A    between atoms: N_4  and  CA_5
REMARK    3  A    between atoms: CA_5  and  CB_6
REMARK    4  A    between atoms: CA_5  and  C_12
REMARK    5  A    between atoms: CB_6  and  CG_7
REMARK    6  A    between atoms: CA_18  and  C_19
REMARK    7  A    between atoms: N_21  and  CA_22
REMARK    8  A    between atoms: CA_22  and  CB_23
REMARK    9  A    between atoms: CA_22  and  C_30
REMARK   10  A    between atoms: CB_23  and  CG_24
REMARK   11  A    between atoms: C_30  and  OXT_32
REMARK                            x       y       z     vdW  Elec       q    Type
REMARK                         _______ _______ _______ _____ _____    ______ ____
ROOT
ATOM      1  C   HIS A   1       2.182   8.369  18.301  0.00  0.00    +0.000 C 
ATOM      2  O   HIS A   1       2.011   8.967  17.230  0.00  0.00    +0.000 OA
ATOM      3  N   PRO A   2       1.545   8.810  19.444  0.00  0.00    +0.000 N 
ATOM      4  CD  PRO A   2       1.581   8.253  20.786  0.00  0.00    +0.000 C 
ATOM      5  CG  PRO A   2       0.169   8.441  21.308  0.00  0.00    +0.000 C 
ATOM      6  CB  PRO A   2      -0.338   9.699  20.611  0.00  0.00    +0.000 C 
ATOM      7  CA  PRO A   2       0.503   9.845  19.336  0.00  0.00    +0.000 C 
ENDROOT
BRANCH   7   8
ATOM      8  C   PRO A   2       1.083  11.273  19.253  0.00  0.00    +0.000 C 
ATOM      9  O   PRO A   2       1.932  11.594  18.425  0.00  0.00    +0.000 OA
ATOM     10  N   PHE A   3       0.428  12.201  20.031  0.00  0.00    +0.000 N 
ATOM     11  H   PHE A   3      -0.126  11.833  20.798  0.00  0.00    +0.000 HD
BRANCH  10  12
ATOM     12  CA  PHE A   3       0.826  13.604  20.119  0.00  0.00    +0.000 C 
BRANCH  12  13
ATOM     13  C   PHE A   3       1.121  13.925  21.589  0.00  0.00    +0.000 C 
ATOM     14  O   PHE A   3       0.266  13.934  22.472  0.00  0.00    +0.000 OA
BRANCH  13  15
ATOM     15  OXT PHE A   3       2.422  14.172  21.863  0.00  0.00    +0.000 OA
ATOM     16  HXT PHE A   3       2.828  13.574  22.521  0.00  0.00    +0.000 HD
ENDBRANCH  13  15
ENDBRANCH  12  13
BRANCH  12  17
ATOM     17  CB  PHE A   3      -0.192  14.597  19.534  0.00  0.00    +0.000 C 
BRANCH  17  18
ATOM     18  CG  PHE A   3       0.392  15.776  18.791  0.00  0.00    +0.000 A 
ATOM     19  CD1 PHE A   3       1.770  15.865  18.546  0.00  0.00    +0.000 A 
ATOM     20  CE1 PHE A   3       2.291  16.928  17.807  0.00  0.00    +0.000 A 
ATOM     21  CZ  PHE A   3       1.443  17.918  17.315  0.00  0.00    +0.000 A 
ATOM     22  CE2 PHE A   3       0.075  17.852  17.571  0.00  0.00    +0.000 A 
ATOM     23  CD2 PHE A   3      -0.447  16.786  18.303  0.00  0.00    +0.000 A 
ENDBRANCH  17  18
ENDBRANCH  12  17
ENDBRANCH  10  12
ENDBRANCH   7   8
BRANCH   1  24
ATOM     24  CA  HIS A   1       3.074   7.107  18.351  0.00  0.00    +0.000 C 
BRANCH  24  28
ATOM     25  C   UNK A   0       1.327   3.748  18.781  0.00  0.00    +0.000 C 
ATOM     26  C   UNK A   0       2.255   4.883  19.120  0.00  0.00    +0.000 C 
ATOM     27  O   UNK A   0       2.997   4.863  20.097  0.00  0.00    +0.000 OA
ATOM     28  N   HIS A   1       2.192   5.936  18.251  0.00  0.00    +0.000 N 
ATOM     29  H   HIS A   1       1.518   5.944  17.489  0.00  0.00    +0.000 HD
ENDBRANCH  24  28
BRANCH  24  30
ATOM     30  CB  HIS A   1       4.195   7.071  17.296  0.00  0.00    +0.000 C 
BRANCH  30  31
ATOM     31  CG  HIS A   1       5.527   6.597  17.785  0.00  0.00    +0.000 A 
ATOM     32  CD2 HIS A   1       6.818   6.849  17.370  0.00  0.00    +0.000 A 
ATOM     33  NE2 HIS A   1       7.731   6.145  18.114  0.00  0.00    +0.000 NA
ATOM     34  CE1 HIS A   1       7.009   5.436  18.952  0.00  0.00    +0.000 A 
ATOM     35  ND1 HIS A   1       5.674   5.668  18.789  0.00  0.00    +0.000 N 
ATOM     36  HD1 HIS A   1       4.948   5.242  19.355  0.00  0.00    +0.000 HD
ENDBRANCH  30  31
ENDBRANCH  24  30
ENDBRANCH   1  24
TORSDOF 10
ENDMDL
