MODEL 1
REMARK VINA RESULT:      -8.1      0.000      0.000
REMARK  Name = 
REMARK  7 active torsions:
REMARK  status: ('A' for Active; 'I' for Inactive)
REMARK    1  A    between atoms: C_2  and  C_13
REMARK    2  A    between atoms: N_3  and  C_4
REMARK    3  A    between atoms: C_7  and  C_8
REMARK    4  A    between atoms: C_8  and  O_10
REMARK    5  A    between atoms: C_13  and  N_24
REMARK    6  A    between atoms: C_14  and  C_15
REMARK    7  A    between atoms: C_25  and  C_27
REMARK                            x       y       z     vdW  Elec       q    Type
REMARK                         _______ _______ _______ _____ _____    ______ ____
ROOT
ATOM      1  C   UNL     1       1.372  10.043  18.137  0.00  0.00    +0.000 C 
ATOM      2  C   UNL     1       2.116  11.178  18.206  0.00  0.00    +0.000 C 
ENDROOT
BRANCH   2   3
ATOM      3  C   UNL     1       1.736  12.354  18.992  0.00  0.00    +0.000 A 
ATOM      4  C   UNL     1       1.370  13.589  18.417  0.00  0.00    +0.000 A 
ATOM      5  C   UNL     1       0.614  14.506  19.155  0.00  0.00    +0.000 A 
ATOM      6  C   UNL     1       0.242  14.130  20.427  0.00  0.00    +0.000 A 
ATOM      7  C   UNL     1       0.719  12.981  21.020  0.00  0.00    +0.000 A 
ATOM      8  C   UNL     1       1.518  12.096  20.350  0.00  0.00    +0.000 A 
ATOM      9  O   UNL     1       0.141  12.741  22.230  0.00  0.00    +0.000 OA
ATOM     10  C   UNL     1      -0.997  13.609  22.088  0.00  0.00    +0.000 C 
ATOM     11  O   UNL     1      -0.727  14.711  21.192  0.00  0.00    +0.000 OA
ENDBRANCH   2   3
BRANCH   1  13
ATOM     12  O   UNL     1      -0.542   9.576  19.473  0.00  0.00    +0.000 OA
ATOM     13  C   UNL     1      -0.124  10.100  18.443  0.00  0.00    +0.000 C 
ATOM     14  N   UNL     1      -0.936  10.786  17.543  0.00  0.00    +0.000 N 
ATOM     15  H   UNL     1      -0.527  11.101  16.673  0.00  0.00    +0.000 HD
BRANCH  14  16
ATOM     16  C   UNL     1      -2.350  10.958  17.701  0.00  0.00    +0.000 A 
ATOM     17  C   UNL     1      -2.914  11.788  18.684  0.00  0.00    +0.000 A 
ATOM     18  C   UNL     1      -4.297  11.933  18.841  0.00  0.00    +0.000 A 
ATOM     19  C   UNL     1      -5.164  11.235  18.009  0.00  0.00    +0.000 A 
ATOM     20  C   UNL     1      -4.630  10.425  16.997  0.00  0.00    +0.000 A 
ATOM     21  C   UNL     1      -3.234  10.288  16.844  0.00  0.00    +0.000 A 
BRANCH  19  22
ATOM     22  C   UNL     1      -6.637  11.387  18.131  0.00  0.00    +0.000 C 
ATOM     23  O   UNL     1      -7.225  12.391  17.764  0.00  0.00    +0.000 OA
BRANCH  22  24
ATOM     24  O   UNL     1      -7.268  10.320  18.666  0.00  0.00    +0.000 OA
ATOM     25  H   UNL     1      -7.868  10.513  19.410  0.00  0.00    +0.000 HD
ENDBRANCH  22  24
ENDBRANCH  19  22
ENDBRANCH  14  16
ENDBRANCH   1  13
BRANCH   1  26
ATOM     26  N   UNL     1       1.925   8.842  17.716  0.00  0.00    +0.000 N 
ATOM     27  C   UNL     1       2.369   7.836  18.567  0.00  0.00    +0.000 C 
ATOM     28  O   UNL     1       2.197   7.832  19.785  0.00  0.00    +0.000 OA
ATOM     29  H   UNL     1       1.918   8.657  16.718  0.00  0.00    +0.000 HD
BRANCH  27  30
ATOM     30  C   UNL     1       3.109   6.685  17.990  0.00  0.00    +0.000 A 
ATOM     31  C   UNL     1       4.229   7.023  17.196  0.00  0.00    +0.000 A 
ATOM     32  C   UNL     1       5.027   6.034  16.624  0.00  0.00    +0.000 A 
ATOM     33  C   UNL     1       4.719   4.694  16.832  0.00  0.00    +0.000 A 
ATOM     34  C   UNL     1       3.617   4.348  17.618  0.00  0.00    +0.000 A 
ATOM     35  C   UNL     1       2.814   5.334  18.203  0.00  0.00    +0.000 A 
ATOM     36 CL   UNL     1       1.520   4.794  19.216  0.00  0.00    +0.000 Cl
ENDBRANCH  27  30
ENDBRANCH   1  26
TORSDOF 7
ENDMDL
MODEL 2
REMARK VINA RESULT:      -8.0      0.418      1.045
REMARK  Name = 
REMARK  7 active torsions:
REMARK  status: ('A' for Active; 'I' for Inactive)
REMARK    1  A    between atoms: C_2  and  C_13
REMARK    2  A    between atoms: N_3  and  C_4
REMARK    3  A    between atoms: C_7  and  C_8
REMARK    4  A    between atoms: C_8  and  O_10
REMARK    5  A    between atoms: C_13  and  N_24
REMARK    6  A    between atoms: C_14  and  C_15
REMARK    7  A    between atoms: C_25  and  C_27
REMARK                            x       y       z     vdW  Elec       q    Type
REMARK                         _______ _______ _______ _____ _____    ______ ____
ROOT
ATOM      1  C   UNL     1       1.298  10.078  18.251  0.00  0.00    +0.000 C 
ATOM      2  C   UNL     1       2.086  11.179  18.366  0.00  0.00    +0.000 C 
ENDROOT
BRANCH   2   3
ATOM      3  C   UNL     1       1.707  12.376  19.119  0.00  0.00    +0.000 A 
ATOM      4  C   UNL     1       1.382  13.608  18.511  0.00  0.00    +0.000 A 
ATOM      5  C   UNL     1       0.623  14.553  19.210  0.00  0.00    +0.000 A 
ATOM      6  C   UNL     1       0.207  14.208  20.477  0.00  0.00    +0.000 A 
ATOM      7  C   UNL     1       0.643  13.061  21.105  0.00  0.00    +0.000 A 
ATOM      8  C   UNL     1       1.443  12.149  20.475  0.00  0.00    +0.000 A 
ATOM      9  O   UNL     1       0.025  12.855  22.301  0.00  0.00    +0.000 OA
ATOM     10  C   UNL     1      -1.091  13.742  22.109  0.00  0.00    +0.000 C 
ATOM     11  O   UNL     1      -0.773  14.822  21.202  0.00  0.00    +0.000 OA
ENDBRANCH   2   3
BRANCH   1  13
ATOM     12  O   UNL     1      -0.725   9.707  19.450  0.00  0.00    +0.000 OA
ATOM     13  C   UNL     1      -0.213  10.206  18.451  0.00  0.00    +0.000 C 
ATOM     14  N   UNL     1      -0.928  10.923  17.496  0.00  0.00    +0.000 N 
ATOM     15  H   UNL     1      -0.445  11.214  16.655  0.00  0.00    +0.000 HD
BRANCH  14  16
ATOM     16  C   UNL     1      -2.339  11.160  17.554  0.00  0.00    +0.000 A 
ATOM     17  C   UNL     1      -3.213  10.838  16.502  0.00  0.00    +0.000 A 
ATOM     18  C   UNL     1      -4.588  11.092  16.563  0.00  0.00    +0.000 A 
ATOM     19  C   UNL     1      -5.131  11.691  17.693  0.00  0.00    +0.000 A 
ATOM     20  C   UNL     1      -4.289  11.993  18.773  0.00  0.00    +0.000 A 
ATOM     21  C   UNL     1      -2.904  11.730  18.704  0.00  0.00    +0.000 A 
BRANCH  19  22
ATOM     22  C   UNL     1      -6.589  11.950  17.802  0.00  0.00    +0.000 C 
ATOM     23  O   UNL     1      -7.259  11.550  18.740  0.00  0.00    +0.000 OA
BRANCH  22  24
ATOM     24  O   UNL     1      -7.106  12.675  16.787  0.00  0.00    +0.000 OA
ATOM     25  H   UNL     1      -6.496  13.309  16.367  0.00  0.00    +0.000 HD
ENDBRANCH  22  24
ENDBRANCH  19  22
ENDBRANCH  14  16
ENDBRANCH   1  13
BRANCH   1  26
ATOM     26  N   UNL     1       1.822   8.851  17.873  0.00  0.00    +0.000 N 
ATOM     27  C   UNL     1       2.270   7.878  18.760  0.00  0.00    +0.000 C 
ATOM     28  O   UNL     1       2.126   7.933  19.980  0.00  0.00    +0.000 OA
ATOM     29  H   UNL     1       1.790   8.620  16.885  0.00  0.00    +0.000 HD
BRANCH  27  30
ATOM     30  C   UNL     1       2.980   6.690  18.221  0.00  0.00    +0.000 A 
ATOM     31  C   UNL     1       4.025   6.971  17.311  0.00  0.00    +0.000 A 
ATOM     32  C   UNL     1       4.790   5.945  16.759  0.00  0.00    +0.000 A 
ATOM     33  C   UNL     1       4.522   4.625  17.103  0.00  0.00    +0.000 A 
ATOM     34  C   UNL     1       3.496   4.335  18.004  0.00  0.00    +0.000 A 
ATOM     35  C   UNL     1       2.726   5.359  18.570  0.00  0.00    +0.000 A 
ATOM     36 CL   UNL     1       1.529   4.894  19.728  0.00  0.00    +0.000 Cl
ENDBRANCH  27  30
ENDBRANCH   1  26
TORSDOF 7
ENDMDL
MODEL 3
REMARK VINA RESULT:      -8.0      1.323      1.864
REMARK  Name = 
REMARK  7 active torsions:
REMARK  status: ('A' for Active; 'I' for Inactive)
REMARK    1  A    between atoms: C_2  and  C_13
REMARK    2  A    between atoms: N_3  and  C_4
REMARK    3  A    between atoms: C_7  and  C_8
REMARK    4  A    between atoms: C_8  and  O_10
REMARK    5  A    between atoms: C_13  and  N_24
REMARK    6  A    between atoms: C_14  and  C_15
REMARK    7  A    between atoms: C_25  and  C_27
REMARK                            x       y       z     vdW  Elec       q    Type
REMARK                         _______ _______ _______ _____ _____    ______ ____
ROOT
ATOM      1  C   UNL     1       1.340   9.990  18.202  0.00  0.00    +0.000 C 
ATOM      2  C   UNL     1       2.155  11.077  18.208  0.00  0.00    +0.000 C 
ENDROOT
BRANCH   2   3
ATOM      3  C   UNL     1       1.831  12.332  18.888  0.00  0.00    +0.000 A 
ATOM      4  C   UNL     1       1.628  12.433  20.281  0.00  0.00    +0.000 A 
ATOM      5  C   UNL     1       1.762  13.671  20.919  0.00  0.00    +0.000 A 
ATOM      6  C   UNL     1       2.115  14.745  20.132  0.00  0.00    +0.000 A 
ATOM      7  C   UNL     1       2.179  14.657  18.758  0.00  0.00    +0.000 A 
ATOM      8  C   UNL     1       1.985  13.476  18.097  0.00  0.00    +0.000 A 
ATOM      9  O   UNL     1       2.654  15.798  18.185  0.00  0.00    +0.000 OA
ATOM     10  C   UNL     1       3.247  16.383  19.357  0.00  0.00    +0.000 C 
ATOM     11  O   UNL     1       2.591  15.946  20.570  0.00  0.00    +0.000 OA
ENDBRANCH   2   3
BRANCH   1  13
ATOM     12  O   UNL     1      -0.635   9.764  19.510  0.00  0.00    +0.000 OA
ATOM     13  C   UNL     1      -0.158  10.166  18.452  0.00  0.00    +0.000 C 
ATOM     14  N   UNL     1      -0.900  10.815  17.469  0.00  0.00    +0.000 N 
ATOM     15  H   UNL     1      -0.448  11.023  16.587  0.00  0.00    +0.000 HD
BRANCH  14  16
ATOM     16  C   UNL     1      -2.303  11.086  17.564  0.00  0.00    +0.000 A 
ATOM     17  C   UNL     1      -2.890  11.692  18.688  0.00  0.00    +0.000 A 
ATOM     18  C   UNL     1      -4.265  11.934  18.778  0.00  0.00    +0.000 A 
ATOM     19  C   UNL     1      -5.102  11.566  17.732  0.00  0.00    +0.000 A 
ATOM     20  C   UNL     1      -4.541  10.990  16.583  0.00  0.00    +0.000 A 
ATOM     21  C   UNL     1      -3.152  10.752  16.500  0.00  0.00    +0.000 A 
BRANCH  19  22
ATOM     22  C   UNL     1      -6.562  11.833  17.783  0.00  0.00    +0.000 C 
ATOM     23  O   UNL     1      -7.076  12.783  17.215  0.00  0.00    +0.000 OA
BRANCH  22  24
ATOM     24  O   UNL     1      -7.272  10.932  18.496  0.00  0.00    +0.000 OA
ATOM     25  H   UNL     1      -6.868  10.049  18.582  0.00  0.00    +0.000 HD
ENDBRANCH  22  24
ENDBRANCH  19  22
ENDBRANCH  14  16
ENDBRANCH   1  13
BRANCH   1  26
ATOM     26  N   UNL     1       1.824   8.727  17.892  0.00  0.00    +0.000 N 
ATOM     27  C   UNL     1       2.253   7.795  18.830  0.00  0.00    +0.000 C 
ATOM     28  O   UNL     1       2.123   7.924  20.046  0.00  0.00    +0.000 OA
ATOM     29  H   UNL     1       1.774   8.440  16.919  0.00  0.00    +0.000 HD
BRANCH  27  30
ATOM     30  C   UNL     1       2.921   6.556  18.355  0.00  0.00    +0.000 A 
ATOM     31  C   UNL     1       3.960   6.751  17.416  0.00  0.00    +0.000 A 
ATOM     32  C   UNL     1       4.688   5.672  16.918  0.00  0.00    +0.000 A 
ATOM     33  C   UNL     1       4.388   4.383  17.345  0.00  0.00    +0.000 A 
ATOM     34  C   UNL     1       3.367   4.178  18.275  0.00  0.00    +0.000 A 
ATOM     35  C   UNL     1       2.634   5.256  18.787  0.00  0.00    +0.000 A 
ATOM     36 CL   UNL     1       1.442   4.896  19.987  0.00  0.00    +0.000 Cl
ENDBRANCH  27  30
ENDBRANCH   1  26
TORSDOF 7
ENDMDL
MODEL 4
REMARK VINA RESULT:      -8.0      1.710      2.386
REMARK  Name = 
REMARK  7 active torsions:
REMARK  status: ('A' for Active; 'I' for Inactive)
REMARK    1  A    between atoms: C_2  and  C_13
REMARK    2  A    between atoms: N_3  and  C_4
REMARK    3  A    between atoms: C_7  and  C_8
REMARK    4  A    between atoms: C_8  and  O_10
REMARK    5  A    between atoms: C_13  and  N_24
REMARK    6  A    between atoms: C_14  and  C_15
REMARK    7  A    between atoms: C_25  and  C_27
REMARK                            x       y       z     vdW  Elec       q    Type
REMARK                         _______ _______ _______ _____ _____    ______ ____
ROOT
ATOM      1  C   UNL     1       1.305   9.771  18.066  0.00  0.00    +0.000 C 
ATOM      2  C   UNL     1       2.196  10.796  18.039  0.00  0.00    +0.000 C 
ENDROOT
BRANCH   2   3
ATOM      3  C   UNL     1       1.990  12.072  18.728  0.00  0.00    +0.000 A 
ATOM      4  C   UNL     1       1.815  12.183  20.124  0.00  0.00    +0.000 A 
ATOM      5  C   UNL     1       2.062  13.402  20.764  0.00  0.00    +0.000 A 
ATOM      6  C   UNL     1       2.495  14.446  19.976  0.00  0.00    +0.000 A 
ATOM      7  C   UNL     1       2.532  14.359  18.600  0.00  0.00    +0.000 A 
ATOM      8  C   UNL     1       2.229  13.202  17.938  0.00  0.00    +0.000 A 
ATOM      9  O   UNL     1       3.095  15.458  18.025  0.00  0.00    +0.000 OA
ATOM     10  C   UNL     1       3.752  15.985  19.190  0.00  0.00    +0.000 C 
ATOM     11  O   UNL     1       3.078  15.601  20.411  0.00  0.00    +0.000 OA
ENDBRANCH   2   3
BRANCH   1  13
ATOM     12  O   UNL     1      -0.604   9.785  19.488  0.00  0.00    +0.000 OA
ATOM     13  C   UNL     1      -0.165  10.055  18.373  0.00  0.00    +0.000 C 
ATOM     14  N   UNL     1      -0.927  10.646  17.368  0.00  0.00    +0.000 N 
ATOM     15  H   UNL     1      -0.515  10.743  16.449  0.00  0.00    +0.000 HD
BRANCH  14  16
ATOM     16  C   UNL     1      -2.307  11.005  17.507  0.00  0.00    +0.000 A 
ATOM     17  C   UNL     1      -2.830  11.597  18.668  0.00  0.00    +0.000 A 
ATOM     18  C   UNL     1      -4.185  11.925  18.800  0.00  0.00    +0.000 A 
ATOM     19  C   UNL     1      -5.064  11.659  17.757  0.00  0.00    +0.000 A 
ATOM     20  C   UNL     1      -4.565  11.099  16.572  0.00  0.00    +0.000 A 
ATOM     21  C   UNL     1      -3.197  10.775  16.449  0.00  0.00    +0.000 A 
BRANCH  19  22
ATOM     22  C   UNL     1      -6.502  12.018  17.853  0.00  0.00    +0.000 C 
ATOM     23  O   UNL     1      -7.166  11.808  18.855  0.00  0.00    +0.000 OA
BRANCH  22  24
ATOM     24  O   UNL     1      -7.007  12.607  16.747  0.00  0.00    +0.000 OA
ATOM     25  H   UNL     1      -7.847  12.238  16.419  0.00  0.00    +0.000 HD
ENDBRANCH  22  24
ENDBRANCH  19  22
ENDBRANCH  14  16
ENDBRANCH   1  13
BRANCH   1  26
ATOM     26  N   UNL     1       1.684   8.476  17.742  0.00  0.00    +0.000 N 
ATOM     27  C   UNL     1       2.176   7.547  18.651  0.00  0.00    +0.000 C 
ATOM     28  O   UNL     1       2.202   7.715  19.869  0.00  0.00    +0.000 OA
ATOM     29  H   UNL     1       1.503   8.168  16.792  0.00  0.00    +0.000 HD
BRANCH  27  30
ATOM     30  C   UNL     1       2.720   6.263  18.139  0.00  0.00    +0.000 A 
ATOM     31  C   UNL     1       1.846   5.157  18.230  0.00  0.00    +0.000 A 
ATOM     32  C   UNL     1       2.223   3.903  17.755  0.00  0.00    +0.000 A 
ATOM     33  C   UNL     1       3.481   3.732  17.185  0.00  0.00    +0.000 A 
ATOM     34  C   UNL     1       4.352   4.819  17.086  0.00  0.00    +0.000 A 
ATOM     35  C   UNL     1       3.979   6.085  17.555  0.00  0.00    +0.000 A 
ATOM     36 CL   UNL     1       5.106   7.374  17.316  0.00  0.00    +0.000 Cl
ENDBRANCH  27  30
ENDBRANCH   1  26
TORSDOF 7
ENDMDL
MODEL 5
REMARK VINA RESULT:      -7.9      0.999      1.316
REMARK  Name = 
REMARK  7 active torsions:
REMARK  status: ('A' for Active; 'I' for Inactive)
REMARK    1  A    between atoms: C_2  and  C_13
REMARK    2  A    between atoms: N_3  and  C_4
REMARK    3  A    between atoms: C_7  and  C_8
REMARK    4  A    between atoms: C_8  and  O_10
REMARK    5  A    between atoms: C_13  and  N_24
REMARK    6  A    between atoms: C_14  and  C_15
REMARK    7  A    between atoms: C_25  and  C_27
REMARK                            x       y       z     vdW  Elec       q    Type
REMARK                         _______ _______ _______ _____ _____    ______ ____
ROOT
ATOM      1  C   UNL     1       1.329   9.748  18.091  0.00  0.00    +0.000 C 
ATOM      2  C   UNL     1       2.188  10.800  18.105  0.00  0.00    +0.000 C 
ENDROOT
BRANCH   2   3
ATOM      3  C   UNL     1       1.929  12.054  18.816  0.00  0.00    +0.000 A 
ATOM      4  C   UNL     1       1.684  13.282  18.165  0.00  0.00    +0.000 A 
ATOM      5  C   UNL     1       1.025  14.313  18.843  0.00  0.00    +0.000 A 
ATOM      6  C   UNL     1       0.622  14.054  20.135  0.00  0.00    +0.000 A 
ATOM      7  C   UNL     1       0.986  12.902  20.799  0.00  0.00    +0.000 A 
ATOM      8  C   UNL     1       1.691  11.904  20.187  0.00  0.00    +0.000 A 
ATOM      9  O   UNL     1       0.391  12.795  22.020  0.00  0.00    +0.000 OA
ATOM     10  C   UNL     1      -0.656  13.761  21.821  0.00  0.00    +0.000 C 
ATOM     11  O   UNL     1      -0.283  14.774  20.860  0.00  0.00    +0.000 OA
ENDBRANCH   2   3
BRANCH   1  13
ATOM     12  O   UNL     1      -0.632   9.579  19.430  0.00  0.00    +0.000 OA
ATOM     13  C   UNL     1      -0.156   9.981  18.371  0.00  0.00    +0.000 C 
ATOM     14  N   UNL     1      -0.887  10.679  17.414  0.00  0.00    +0.000 N 
ATOM     15  H   UNL     1      -0.442  10.886  16.528  0.00  0.00    +0.000 HD
BRANCH  14  16
ATOM     16  C   UNL     1      -2.276  11.007  17.539  0.00  0.00    +0.000 A 
ATOM     17  C   UNL     1      -2.795  11.733  18.624  0.00  0.00    +0.000 A 
ATOM     18  C   UNL     1      -4.158  12.030  18.746  0.00  0.00    +0.000 A 
ATOM     19  C   UNL     1      -5.050  11.596  17.772  0.00  0.00    +0.000 A 
ATOM     20  C   UNL     1      -4.556  10.898  16.661  0.00  0.00    +0.000 A 
ATOM     21  C   UNL     1      -3.180  10.606  16.546  0.00  0.00    +0.000 A 
BRANCH  19  22
ATOM     22  C   UNL     1      -6.497  11.917  17.857  0.00  0.00    +0.000 C 
ATOM     23  O   UNL     1      -6.961  12.967  17.445  0.00  0.00    +0.000 OA
BRANCH  22  24
ATOM     24  O   UNL     1      -7.255  10.946  18.411  0.00  0.00    +0.000 OA
ATOM     25  H   UNL     1      -7.432  11.042  19.365  0.00  0.00    +0.000 HD
ENDBRANCH  22  24
ENDBRANCH  19  22
ENDBRANCH  14  16
ENDBRANCH   1  13
BRANCH   1  26
ATOM     26  N   UNL     1       1.754   8.473  17.747  0.00  0.00    +0.000 N 
ATOM     27  C   UNL     1       2.211   7.523  18.654  0.00  0.00    +0.000 C 
ATOM     28  O   UNL     1       2.161   7.650  19.876  0.00  0.00    +0.000 OA
ATOM     29  H   UNL     1       1.636   8.194  16.779  0.00  0.00    +0.000 HD
BRANCH  27  30
ATOM     30  C   UNL     1       2.811   6.268  18.134  0.00  0.00    +0.000 A 
ATOM     31  C   UNL     1       1.976   5.130  18.190  0.00  0.00    +0.000 A 
ATOM     32  C   UNL     1       2.409   3.898  17.703  0.00  0.00    +0.000 A 
ATOM     33  C   UNL     1       3.682   3.782  17.157  0.00  0.00    +0.000 A 
ATOM     34  C   UNL     1       4.516   4.901  17.093  0.00  0.00    +0.000 A 
ATOM     35  C   UNL     1       4.087   6.145  17.573  0.00  0.00    +0.000 A 
ATOM     36 CL   UNL     1       5.171   7.478  17.377  0.00  0.00    +0.000 Cl
ENDBRANCH  27  30
ENDBRANCH   1  26
TORSDOF 7
ENDMDL
MODEL 6
REMARK VINA RESULT:      -7.8      1.038      1.667
REMARK  Name = 
REMARK  7 active torsions:
REMARK  status: ('A' for Active; 'I' for Inactive)
REMARK    1  A    between atoms: C_2  and  C_13
REMARK    2  A    between atoms: N_3  and  C_4
REMARK    3  A    between atoms: C_7  and  C_8
REMARK    4  A    between atoms: C_8  and  O_10
REMARK    5  A    between atoms: C_13  and  N_24
REMARK    6  A    between atoms: C_14  and  C_15
REMARK    7  A    between atoms: C_25  and  C_27
REMARK                            x       y       z     vdW  Elec       q    Type
REMARK                         _______ _______ _______ _____ _____    ______ ____
ROOT
ATOM      1  C   UNL     1       1.292   9.726  18.105  0.00  0.00    +0.000 C 
ATOM      2  C   UNL     1       2.169  10.763  18.147  0.00  0.00    +0.000 C 
ENDROOT
BRANCH   2   3
ATOM      3  C   UNL     1       1.915  12.015  18.863  0.00  0.00    +0.000 A 
ATOM      4  C   UNL     1       1.722  13.255  18.219  0.00  0.00    +0.000 A 
ATOM      5  C   UNL     1       1.064  14.294  18.885  0.00  0.00    +0.000 A 
ATOM      6  C   UNL     1       0.611  14.032  20.159  0.00  0.00    +0.000 A 
ATOM      7  C   UNL     1       0.923  12.864  20.822  0.00  0.00    +0.000 A 
ATOM      8  C   UNL     1       1.625  11.856  20.223  0.00  0.00    +0.000 A 
ATOM      9  O   UNL     1       0.284  12.758  22.020  0.00  0.00    +0.000 OA
ATOM     10  C   UNL     1      -0.732  13.751  21.797  0.00  0.00    +0.000 C 
ATOM     11  O   UNL     1      -0.301  14.765  20.861  0.00  0.00    +0.000 OA
ENDBRANCH   2   3
BRANCH   1  13
ATOM     12  O   UNL     1      -0.684   9.648  19.430  0.00  0.00    +0.000 OA
ATOM     13  C   UNL     1      -0.195   9.982  18.353  0.00  0.00    +0.000 C 
ATOM     14  N   UNL     1      -0.911  10.623  17.347  0.00  0.00    +0.000 N 
ATOM     15  H   UNL     1      -0.456  10.773  16.455  0.00  0.00    +0.000 HD
BRANCH  14  16
ATOM     16  C   UNL     1      -2.300  10.963  17.436  0.00  0.00    +0.000 A 
ATOM     17  C   UNL     1      -3.219  10.701  16.406  0.00  0.00    +0.000 A 
ATOM     18  C   UNL     1      -4.570  11.056  16.497  0.00  0.00    +0.000 A 
ATOM     19  C   UNL     1      -5.042  11.697  17.636  0.00  0.00    +0.000 A 
ATOM     20  C   UNL     1      -4.155  11.941  18.695  0.00  0.00    +0.000 A 
ATOM     21  C   UNL     1      -2.795  11.577  18.595  0.00  0.00    +0.000 A 
BRANCH  19  22
ATOM     22  C   UNL     1      -6.474  12.063  17.777  0.00  0.00    +0.000 C 
ATOM     23  O   UNL     1      -7.227  11.485  18.544  0.00  0.00    +0.000 OA
BRANCH  22  24
ATOM     24  O   UNL     1      -6.868  13.094  16.998  0.00  0.00    +0.000 OA
ATOM     25  H   UNL     1      -7.354  12.850  16.189  0.00  0.00    +0.000 HD
ENDBRANCH  22  24
ENDBRANCH  19  22
ENDBRANCH  14  16
ENDBRANCH   1  13
BRANCH   1  26
ATOM     26  N   UNL     1       1.703   8.446  17.760  0.00  0.00    +0.000 N 
ATOM     27  C   UNL     1       2.203   7.510  18.657  0.00  0.00    +0.000 C 
ATOM     28  O   UNL     1       2.209   7.654  19.879  0.00  0.00    +0.000 OA
ATOM     29  H   UNL     1       1.541   8.153  16.802  0.00  0.00    +0.000 HD
BRANCH  27  30
ATOM     30  C   UNL     1       2.781   6.248  18.128  0.00  0.00    +0.000 A 
ATOM     31  C   UNL     1       1.938   5.117  18.207  0.00  0.00    +0.000 A 
ATOM     32  C   UNL     1       2.349   3.880  17.714  0.00  0.00    +0.000 A 
ATOM     33  C   UNL     1       3.609   3.752  17.139  0.00  0.00    +0.000 A 
ATOM     34  C   UNL     1       4.449   4.863  17.052  0.00  0.00    +0.000 A 
ATOM     35  C   UNL     1       4.042   6.112  17.537  0.00  0.00    +0.000 A 
ATOM     36 CL   UNL     1       5.132   7.436  17.311  0.00  0.00    +0.000 Cl
ENDBRANCH  27  30
ENDBRANCH   1  26
TORSDOF 7
ENDMDL
MODEL 7
REMARK VINA RESULT:      -7.7      3.941      9.826
REMARK  Name = 
REMARK  7 active torsions:
REMARK  status: ('A' for Active; 'I' for Inactive)
REMARK    1  A    between atoms: C_2  and  C_13
REMARK    2  A    between atoms: N_3  and  C_4
REMARK    3  A    between atoms: C_7  and  C_8
REMARK    4  A    between atoms: C_8  and  O_10
REMARK    5  A    between atoms: C_13  and  N_24
REMARK    6  A    between atoms: C_14  and  C_15
REMARK    7  A    between atoms: C_25  and  C_27
REMARK                            x       y       z     vdW  Elec       q    Type
REMARK                         _______ _______ _______ _____ _____    ______ ____
ROOT
ATOM      1  C   UNL     1       1.657   7.219  20.065  0.00  0.00    +0.000 C 
ATOM      2  C   UNL     1       0.995   6.242  20.737  0.00  0.00    +0.000 C 
ENDROOT
BRANCH   2   3
ATOM      3  C   UNL     1       1.288   4.814  20.595  0.00  0.00    +0.000 A 
ATOM      4  C   UNL     1       0.548   3.947  19.763  0.00  0.00    +0.000 A 
ATOM      5  C   UNL     1       1.114   2.744  19.328  0.00  0.00    +0.000 A 
ATOM      6  C   UNL     1       2.405   2.479  19.730  0.00  0.00    +0.000 A 
ATOM      7  C   UNL     1       3.064   3.269  20.648  0.00  0.00    +0.000 A 
ATOM      8  C   UNL     1       2.511   4.416  21.147  0.00  0.00    +0.000 A 
ATOM      9  O   UNL     1       4.363   2.897  20.819  0.00  0.00    +0.000 OA
ATOM     10  C   UNL     1       4.506   2.106  19.627  0.00  0.00    +0.000 C 
ATOM     11  O   UNL     1       3.245   1.548  19.192  0.00  0.00    +0.000 OA
ENDBRANCH   2   3
BRANCH   1  13
ATOM     12  O   UNL     1       1.910   7.292  17.699  0.00  0.00    +0.000 OA
ATOM     13  C   UNL     1       2.378   6.884  18.759  0.00  0.00    +0.000 C 
ATOM     14  N   UNL     1       3.561   6.156  18.849  0.00  0.00    +0.000 N 
ATOM     15  H   UNL     1       3.822   5.774  19.750  0.00  0.00    +0.000 HD
BRANCH  14  16
ATOM     16  C   UNL     1       4.370   5.789  17.726  0.00  0.00    +0.000 A 
ATOM     17  C   UNL     1       4.174   4.604  16.996  0.00  0.00    +0.000 A 
ATOM     18  C   UNL     1       4.983   4.246  15.912  0.00  0.00    +0.000 A 
ATOM     19  C   UNL     1       6.030   5.075  15.528  0.00  0.00    +0.000 A 
ATOM     20  C   UNL     1       6.230   6.281  16.216  0.00  0.00    +0.000 A 
ATOM     21  C   UNL     1       5.407   6.634  17.306  0.00  0.00    +0.000 A 
BRANCH  19  22
ATOM     22  C   UNL     1       6.892   4.739  14.366  0.00  0.00    +0.000 C 
ATOM     23  O   UNL     1       7.820   5.447  14.012  0.00  0.00    +0.000 OA
BRANCH  22  24
ATOM     24  O   UNL     1       6.571   3.583  13.746  0.00  0.00    +0.000 OA
ATOM     25  H   UNL     1       5.841   3.638  13.102  0.00  0.00    +0.000 HD
ENDBRANCH  22  24
ENDBRANCH  19  22
ENDBRANCH  14  16
ENDBRANCH   1  13
BRANCH   1  26
ATOM     26  N   UNL     1       1.627   8.538  20.494  0.00  0.00    +0.000 N 
ATOM     27  C   UNL     1       0.589   9.427  20.239  0.00  0.00    +0.000 C 
ATOM     28  O   UNL     1      -0.484   9.112  19.726  0.00  0.00    +0.000 OA
ATOM     29  H   UNL     1       2.375   8.839  21.111  0.00  0.00    +0.000 HD
BRANCH  27  30
ATOM     30  C   UNL     1       0.768  10.858  20.594  0.00  0.00    +0.000 A 
ATOM     31  C   UNL     1       1.626  11.590  19.742  0.00  0.00    +0.000 A 
ATOM     32  C   UNL     1       1.852  12.949  19.947  0.00  0.00    +0.000 A 
ATOM     33  C   UNL     1       1.229  13.599  21.007  0.00  0.00    +0.000 A 
ATOM     34  C   UNL     1       0.376  12.888  21.853  0.00  0.00    +0.000 A 
ATOM     35  C   UNL     1       0.137  11.523  21.651  0.00  0.00    +0.000 A 
ATOM     36 CL   UNL     1      -0.993  10.758  22.714  0.00  0.00    +0.000 Cl
ENDBRANCH  27  30
ENDBRANCH   1  26
TORSDOF 7
ENDMDL
MODEL 8
REMARK VINA RESULT:      -7.6      4.037      9.779
REMARK  Name = 
REMARK  7 active torsions:
REMARK  status: ('A' for Active; 'I' for Inactive)
REMARK    1  A    between atoms: C_2  and  C_13
REMARK    2  A    between atoms: N_3  and  C_4
REMARK    3  A    between atoms: C_7  and  C_8
REMARK    4  A    between atoms: C_8  and  O_10
REMARK    5  A    between atoms: C_13  and  N_24
REMARK    6  A    between atoms: C_14  and  C_15
REMARK    7  A    between atoms: C_25  and  C_27
REMARK                            x       y       z     vdW  Elec       q    Type
REMARK                         _______ _______ _______ _____ _____    ______ ____
ROOT
ATOM      1  C   UNL     1       1.831   7.116  19.739  0.00  0.00    +0.000 C 
ATOM      2  C   UNL     1       1.220   6.226  20.563  0.00  0.00    +0.000 C 
ENDROOT
BRANCH   2   3
ATOM      3  C   UNL     1       1.496   4.788  20.556  0.00  0.00    +0.000 A 
ATOM      4  C   UNL     1       0.600   3.825  20.046  0.00  0.00    +0.000 A 
ATOM      5  C   UNL     1       1.071   2.565  19.663  0.00  0.00    +0.000 A 
ATOM      6  C   UNL     1       2.425   2.339  19.789  0.00  0.00    +0.000 A 
ATOM      7  C   UNL     1       3.263   3.239  20.412  0.00  0.00    +0.000 A 
ATOM      8  C   UNL     1       2.820   4.451  20.861  0.00  0.00    +0.000 A 
ATOM      9  O   UNL     1       4.573   2.873  20.329  0.00  0.00    +0.000 OA
ATOM     10  C   UNL     1       4.451   1.922  19.257  0.00  0.00    +0.000 C 
ATOM     11  O   UNL     1       3.134   1.329  19.207  0.00  0.00    +0.000 OA
ENDBRANCH   2   3
BRANCH   1  13
ATOM     12  O   UNL     1       1.736   6.553  17.428  0.00  0.00    +0.000 OA
ATOM     13  C   UNL     1       2.448   6.632  18.427  0.00  0.00    +0.000 C 
ATOM     14  N   UNL     1       3.809   6.339  18.428  0.00  0.00    +0.000 N 
ATOM     15  H   UNL     1       4.297   6.335  19.315  0.00  0.00    +0.000 HD
BRANCH  14  16
ATOM     16  C   UNL     1       4.542   5.906  17.276  0.00  0.00    +0.000 A 
ATOM     17  C   UNL     1       5.240   6.791  16.437  0.00  0.00    +0.000 A 
ATOM     18  C   UNL     1       5.938   6.358  15.303  0.00  0.00    +0.000 A 
ATOM     19  C   UNL     1       5.949   5.008  14.972  0.00  0.00    +0.000 A 
ATOM     20  C   UNL     1       5.289   4.097  15.810  0.00  0.00    +0.000 A 
ATOM     21  C   UNL     1       4.591   4.543  16.952  0.00  0.00    +0.000 A 
BRANCH  19  22
ATOM     22  C   UNL     1       6.701   4.512  13.791  0.00  0.00    +0.000 C 
ATOM     23  O   UNL     1       7.558   5.176  13.233  0.00  0.00    +0.000 OA
BRANCH  22  24
ATOM     24  O   UNL     1       6.368   3.263  13.400  0.00  0.00    +0.000 OA
ATOM     25  H   UNL     1       5.942   2.707  14.078  0.00  0.00    +0.000 HD
ENDBRANCH  22  24
ENDBRANCH  19  22
ENDBRANCH  14  16
ENDBRANCH   1  13
BRANCH   1  26
ATOM     26  N   UNL     1       1.838   8.475  20.022  0.00  0.00    +0.000 N 
ATOM     27  C   UNL     1       1.088   9.426  19.339  0.00  0.00    +0.000 C 
ATOM     28  O   UNL     1       0.229   9.161  18.500  0.00  0.00    +0.000 OA
ATOM     29  H   UNL     1       2.359   8.772  20.841  0.00  0.00    +0.000 HD
BRANCH  27  30
ATOM     30  C   UNL     1       1.331  10.864  19.619  0.00  0.00    +0.000 A 
ATOM     31  C   UNL     1       1.992  11.577  18.594  0.00  0.00    +0.000 A 
ATOM     32  C   UNL     1       2.250  12.941  18.720  0.00  0.00    +0.000 A 
ATOM     33  C   UNL     1       1.856  13.613  19.872  0.00  0.00    +0.000 A 
ATOM     34  C   UNL     1       1.199  12.920  20.890  0.00  0.00    +0.000 A 
ATOM     35  C   UNL     1       0.928  11.551  20.770  0.00  0.00    +0.000 A 
ATOM     36 CL   UNL     1       0.045  10.809  22.058  0.00  0.00    +0.000 Cl
ENDBRANCH  27  30
ENDBRANCH   1  26
TORSDOF 7
ENDMDL
MODEL 9
REMARK VINA RESULT:      -7.6      1.825      2.501
REMARK  Name = 
REMARK  7 active torsions:
REMARK  status: ('A' for Active; 'I' for Inactive)
REMARK    1  A    between atoms: C_2  and  C_13
REMARK    2  A    between atoms: N_3  and  C_4
REMARK    3  A    between atoms: C_7  and  C_8
REMARK    4  A    between atoms: C_8  and  O_10
REMARK    5  A    between atoms: C_13  and  N_24
REMARK    6  A    between atoms: C_14  and  C_15
REMARK    7  A    between atoms: C_25  and  C_27
REMARK                            x       y       z     vdW  Elec       q    Type
REMARK                         _______ _______ _______ _____ _____    ______ ____
ROOT
ATOM      1  C   UNL     1       1.236   9.920  18.666  0.00  0.00    +0.000 C 
ATOM      2  C   UNL     1       2.129  10.932  18.508  0.00  0.00    +0.000 C 
ENDROOT
BRANCH   2   3
ATOM      3  C   UNL     1       1.881  12.311  18.934  0.00  0.00    +0.000 A 
ATOM      4  C   UNL     1       1.618  12.677  20.271  0.00  0.00    +0.000 A 
ATOM      5  C   UNL     1       1.826  13.996  20.688  0.00  0.00    +0.000 A 
ATOM      6  C   UNL     1       2.308  14.880  19.748  0.00  0.00    +0.000 A 
ATOM      7  C   UNL     1       2.433  14.541  18.418  0.00  0.00    +0.000 A 
ATOM      8  C   UNL     1       2.171  13.278  17.964  0.00  0.00    +0.000 A 
ATOM      9  O   UNL     1       3.032  15.519  17.684  0.00  0.00    +0.000 OA
ATOM     10  C   UNL     1       3.614  16.261  18.770  0.00  0.00    +0.000 C 
ATOM     11  O   UNL     1       2.864  16.102  19.996  0.00  0.00    +0.000 OA
ENDBRANCH   2   3
BRANCH   1  13
ATOM     12  O   UNL     1      -0.777  10.117  19.921  0.00  0.00    +0.000 OA
ATOM     13  C   UNL     1      -0.251  10.242  18.818  0.00  0.00    +0.000 C 
ATOM     14  N   UNL     1      -0.926  10.700  17.690  0.00  0.00    +0.000 N 
ATOM     15  H   UNL     1      -0.443  10.678  16.801  0.00  0.00    +0.000 HD
BRANCH  14  16
ATOM     16  C   UNL     1      -2.309  11.073  17.673  0.00  0.00    +0.000 A 
ATOM     17  C   UNL     1      -2.949  11.683  18.765  0.00  0.00    +0.000 A 
ATOM     18  C   UNL     1      -4.306  12.026  18.744  0.00  0.00    +0.000 A 
ATOM     19  C   UNL     1      -5.070  11.757  17.615  0.00  0.00    +0.000 A 
ATOM     20  C   UNL     1      -4.450  11.180  16.497  0.00  0.00    +0.000 A 
ATOM     21  C   UNL     1      -3.081  10.841  16.526  0.00  0.00    +0.000 A 
BRANCH  19  22
ATOM     22  C   UNL     1      -6.506  12.132  17.549  0.00  0.00    +0.000 C 
ATOM     23  O   UNL     1      -6.909  13.065  16.874  0.00  0.00    +0.000 OA
BRANCH  22  24
ATOM     24  O   UNL     1      -7.324  11.348  18.284  0.00  0.00    +0.000 OA
ATOM     25  H   UNL     1      -7.900  10.747  17.776  0.00  0.00    +0.000 HD
ENDBRANCH  22  24
ENDBRANCH  19  22
ENDBRANCH  14  16
ENDBRANCH   1  13
BRANCH   1  26
ATOM     26  N   UNL     1       1.633   8.592  18.612  0.00  0.00    +0.000 N 
ATOM     27  C   UNL     1       1.913   7.807  19.725  0.00  0.00    +0.000 C 
ATOM     28  O   UNL     1       1.708   8.153  20.887  0.00  0.00    +0.000 OA
ATOM     29  H   UNL     1       1.629   8.147  17.700  0.00  0.00    +0.000 HD
BRANCH  27  30
ATOM     30  C   UNL     1       2.507   6.461  19.520  0.00  0.00    +0.000 A 
ATOM     31  C   UNL     1       2.021   5.448  20.377  0.00  0.00    +0.000 A 
ATOM     32  C   UNL     1       2.474   4.135  20.265  0.00  0.00    +0.000 A 
ATOM     33  C   UNL     1       3.421   3.814  19.299  0.00  0.00    +0.000 A 
ATOM     34  C   UNL     1       3.907   4.805  18.444  0.00  0.00    +0.000 A 
ATOM     35  C   UNL     1       3.452   6.126  18.544  0.00  0.00    +0.000 A 
ATOM     36 CL   UNL     1       4.065   7.257  17.387  0.00  0.00    +0.000 Cl
ENDBRANCH  27  30
ENDBRANCH   1  26
TORSDOF 7
ENDMDL
