MODEL 1
REMARK VINA RESULT:      -8.0      0.000      0.000
REMARK  Name = 
REMARK  6 active torsions:
REMARK  status: ('A' for Active; 'I' for Inactive)
REMARK    1  A    between atoms: C_2  and  O_3
REMARK    2  A    between atoms: C_2  and  C_4
REMARK    3  A    between atoms: C_4  and  N_5
REMARK    4  A    between atoms: C_10  and  C_11
REMARK    5  A    between atoms: C_12  and  C_13
REMARK    6  A    between atoms: C_16  and  O_17
REMARK                            x       y       z     vdW  Elec       q    Type
REMARK                         _______ _______ _______ _____ _____    ______ ____
ROOT
ATOM      1  N   UNL     1       4.849   5.172  16.899  0.00  0.00    +0.000 N 
ATOM      2  C   UNL     1       4.651   6.500  16.587  0.00  0.00    +0.000 A 
ATOM      3  O   UNL     1       5.099   7.075  15.606  0.00  0.00    +0.000 OA
ATOM      4  O   UNL     1       3.815   7.112  17.525  0.00  0.00    +0.000 OA
ATOM      5  C   UNL     1       3.548   6.084  18.427  0.00  0.00    +0.000 A 
ATOM      6  C   UNL     1       2.763   6.184  19.566  0.00  0.00    +0.000 A 
ATOM      7  C   UNL     1       2.619   5.008  20.323  0.00  0.00    +0.000 A 
ATOM      8  C   UNL     1       3.265   3.809  19.952  0.00  0.00    +0.000 A 
ATOM      9  C   UNL     1       4.059   3.748  18.806  0.00  0.00    +0.000 A 
ATOM     10  C   UNL     1       4.174   4.904  18.067  0.00  0.00    +0.000 A 
ENDROOT
BRANCH   6  11
ATOM     11  C   UNL     1       2.087   7.443  19.903  0.00  0.00    +0.000 C 
ATOM     12  C   UNL     1       1.200   7.593  20.901  0.00  0.00    +0.000 C 
BRANCH  12  13
ATOM     13  C   UNL     1       0.578   8.878  21.259  0.00  0.00    +0.000 A 
ATOM     14  C   UNL     1       0.415   9.921  20.335  0.00  0.00    +0.000 A 
ATOM     15  C   UNL     1      -0.147  11.140  20.725  0.00  0.00    +0.000 A 
ATOM     16  C   UNL     1      -0.568  11.310  22.038  0.00  0.00    +0.000 A 
ATOM     17  C   UNL     1      -0.464  10.274  22.956  0.00  0.00    +0.000 A 
ATOM     18  C   UNL     1       0.106   9.060  22.567  0.00  0.00    +0.000 A 
BRANCH  16  19
ATOM     19  O   UNL     1      -1.089  12.493  22.469  0.00  0.00    +0.000 OA
ATOM     20  H   UNL     1      -2.021  12.537  22.194  0.00  0.00    +0.000 HD
ENDBRANCH  16  19
ENDBRANCH  12  13
ENDBRANCH   6  11
BRANCH   1  21
ATOM     21  C   UNL     1       5.695   4.254  16.167  0.00  0.00    +0.000 C 
BRANCH  21  23
ATOM     22  O   UNL     1       7.949   4.334  17.033  0.00  0.00    +0.000 OA
ATOM     23  C   UNL     1       7.167   4.647  16.147  0.00  0.00    +0.000 C 
BRANCH  23  24
ATOM     24  O   UNL     1       7.564   5.349  15.064  0.00  0.00    +0.000 OA
ATOM     25  H   UNL     1       6.862   5.431  14.391  0.00  0.00    +0.000 HD
ENDBRANCH  23  24
ENDBRANCH  21  23
ENDBRANCH   1  21
TORSDOF 6
ENDMDL
MODEL 2
REMARK VINA RESULT:      -8.0      1.419      1.616
REMARK  Name = 
REMARK  6 active torsions:
REMARK  status: ('A' for Active; 'I' for Inactive)
REMARK    1  A    between atoms: C_2  and  O_3
REMARK    2  A    between atoms: C_2  and  C_4
REMARK    3  A    between atoms: C_4  and  N_5
REMARK    4  A    between atoms: C_10  and  C_11
REMARK    5  A    between atoms: C_12  and  C_13
REMARK    6  A    between atoms: C_16  and  O_17
REMARK                            x       y       z     vdW  Elec       q    Type
REMARK                         _______ _______ _______ _____ _____    ______ ____
ROOT
ATOM      1  N   UNL     1       5.968   5.307  16.656  0.00  0.00    +0.000 N 
ATOM      2  C   UNL     1       6.122   6.638  16.979  0.00  0.00    +0.000 A 
ATOM      3  O   UNL     1       7.110   7.317  16.744  0.00  0.00    +0.000 OA
ATOM      4  O   UNL     1       4.964   7.142  17.578  0.00  0.00    +0.000 OA
ATOM      5  C   UNL     1       4.122   6.033  17.620  0.00  0.00    +0.000 A 
ATOM      6  C   UNL     1       2.838   6.004  18.143  0.00  0.00    +0.000 A 
ATOM      7  C   UNL     1       2.164   4.772  18.062  0.00  0.00    +0.000 A 
ATOM      8  C   UNL     1       2.781   3.630  17.508  0.00  0.00    +0.000 A 
ATOM      9  C   UNL     1       4.081   3.692  17.003  0.00  0.00    +0.000 A 
ATOM     10  C   UNL     1       4.718   4.910  17.073  0.00  0.00    +0.000 A 
ENDROOT
BRANCH   6  11
ATOM     11  C   UNL     1       2.223   7.221  18.688  0.00  0.00    +0.000 C 
ATOM     12  C   UNL     1       1.830   7.374  19.963  0.00  0.00    +0.000 C 
BRANCH  12  13
ATOM     13  C   UNL     1       1.270   8.625  20.504  0.00  0.00    +0.000 A 
ATOM     14  C   UNL     1       1.083   9.770  19.716  0.00  0.00    +0.000 A 
ATOM     15  C   UNL     1       0.583  10.949  20.276  0.00  0.00    +0.000 A 
ATOM     16  C   UNL     1       0.247  10.976  21.624  0.00  0.00    +0.000 A 
ATOM     17  C   UNL     1       0.375   9.840  22.411  0.00  0.00    +0.000 A 
ATOM     18  C   UNL     1       0.883   8.665  21.851  0.00  0.00    +0.000 A 
BRANCH  16  19
ATOM     19  O   UNL     1      -0.212  12.113  22.218  0.00  0.00    +0.000 OA
ATOM     20  H   UNL     1       0.135  12.148  23.126  0.00  0.00    +0.000 HD
ENDBRANCH  16  19
ENDBRANCH  12  13
ENDBRANCH   6  11
BRANCH   1  21
ATOM     21  C   UNL     1       6.983   4.463  16.065  0.00  0.00    +0.000 C 
BRANCH  21  23
ATOM     22  O   UNL     1       7.750   5.438  13.991  0.00  0.00    +0.000 OA
ATOM     23  C   UNL     1       7.082   4.579  14.549  0.00  0.00    +0.000 C 
BRANCH  23  24
ATOM     24  O   UNL     1       6.399   3.646  13.851  0.00  0.00    +0.000 OA
ATOM     25  H   UNL     1       6.907   2.822  13.727  0.00  0.00    +0.000 HD
ENDBRANCH  23  24
ENDBRANCH  21  23
ENDBRANCH   1  21
TORSDOF 6
ENDMDL
MODEL 3
REMARK VINA RESULT:      -8.0      1.972      2.516
REMARK  Name = 
REMARK  6 active torsions:
REMARK  status: ('A' for Active; 'I' for Inactive)
REMARK    1  A    between atoms: C_2  and  O_3
REMARK    2  A    between atoms: C_2  and  C_4
REMARK    3  A    between atoms: C_4  and  N_5
REMARK    4  A    between atoms: C_10  and  C_11
REMARK    5  A    between atoms: C_12  and  C_13
REMARK    6  A    between atoms: C_16  and  O_17
REMARK                            x       y       z     vdW  Elec       q    Type
REMARK                         _______ _______ _______ _____ _____    ______ ____
ROOT
ATOM      1  N   UNL     1       5.841   5.256  16.584  0.00  0.00    +0.000 N 
ATOM      2  C   UNL     1       6.137   6.568  16.890  0.00  0.00    +0.000 A 
ATOM      3  O   UNL     1       7.186   7.138  16.634  0.00  0.00    +0.000 OA
ATOM      4  O   UNL     1       5.045   7.194  17.498  0.00  0.00    +0.000 OA
ATOM      5  C   UNL     1       4.094   6.178  17.563  0.00  0.00    +0.000 A 
ATOM      6  C   UNL     1       2.821   6.287  18.103  0.00  0.00    +0.000 A 
ATOM      7  C   UNL     1       2.023   5.132  18.045  0.00  0.00    +0.000 A 
ATOM      8  C   UNL     1       2.510   3.927  17.496  0.00  0.00    +0.000 A 
ATOM      9  C   UNL     1       3.802   3.848  16.973  0.00  0.00    +0.000 A 
ATOM     10  C   UNL     1       4.563   4.995  17.021  0.00  0.00    +0.000 A 
ENDROOT
BRANCH   6  11
ATOM     11  C   UNL     1       2.344   7.567  18.643  0.00  0.00    +0.000 C 
ATOM     12  C   UNL     1       1.952   8.613  17.896  0.00  0.00    +0.000 C 
BRANCH  12  13
ATOM     13  C   UNL     1       1.420   9.867  18.457  0.00  0.00    +0.000 A 
ATOM     14  C   UNL     1       0.313   9.898  19.319  0.00  0.00    +0.000 A 
ATOM     15  C   UNL     1      -0.184  11.112  19.801  0.00  0.00    +0.000 A 
ATOM     16  C   UNL     1       0.442  12.299  19.438  0.00  0.00    +0.000 A 
ATOM     17  C   UNL     1       1.569  12.288  18.628  0.00  0.00    +0.000 A 
ATOM     18  C   UNL     1       2.059  11.074  18.140  0.00  0.00    +0.000 A 
BRANCH  16  19
ATOM     19  O   UNL     1      -0.030  13.507  19.856  0.00  0.00    +0.000 OA
ATOM     20  H   UNL     1      -0.798  13.744  19.310  0.00  0.00    +0.000 HD
ENDBRANCH  16  19
ENDBRANCH  12  13
ENDBRANCH   6  11
BRANCH   1  21
ATOM     21  C   UNL     1       6.755   4.306  15.988  0.00  0.00    +0.000 C 
BRANCH  21  23
ATOM     22  O   UNL     1       6.300   3.754  13.680  0.00  0.00    +0.000 OA
ATOM     23  C   UNL     1       6.908   4.452  14.480  0.00  0.00    +0.000 C 
BRANCH  23  24
ATOM     24  O   UNL     1       7.746   5.430  14.075  0.00  0.00    +0.000 OA
ATOM     25  H   UNL     1       7.755   6.193  14.683  0.00  0.00    +0.000 HD
ENDBRANCH  23  24
ENDBRANCH  21  23
ENDBRANCH   1  21
TORSDOF 6
ENDMDL
MODEL 4
REMARK VINA RESULT:      -7.9      0.201      1.021
REMARK  Name = 
REMARK  6 active torsions:
REMARK  status: ('A' for Active; 'I' for Inactive)
REMARK    1  A    between atoms: C_2  and  O_3
REMARK    2  A    between atoms: C_2  and  C_4
REMARK    3  A    between atoms: C_4  and  N_5
REMARK    4  A    between atoms: C_10  and  C_11
REMARK    5  A    between atoms: C_12  and  C_13
REMARK    6  A    between atoms: C_16  and  O_17
REMARK                            x       y       z     vdW  Elec       q    Type
REMARK                         _______ _______ _______ _____ _____    ______ ____
ROOT
ATOM      1  N   UNL     1       4.919   5.077  16.899  0.00  0.00    +0.000 N 
ATOM      2  C   UNL     1       4.694   6.401  16.586  0.00  0.00    +0.000 A 
ATOM      3  O   UNL     1       5.124   6.983  15.602  0.00  0.00    +0.000 OA
ATOM      4  O   UNL     1       3.852   6.998  17.530  0.00  0.00    +0.000 OA
ATOM      5  C   UNL     1       3.611   5.967  18.435  0.00  0.00    +0.000 A 
ATOM      6  C   UNL     1       2.832   6.053  19.579  0.00  0.00    +0.000 A 
ATOM      7  C   UNL     1       2.715   4.876  20.339  0.00  0.00    +0.000 A 
ATOM      8  C   UNL     1       3.381   3.689  19.965  0.00  0.00    +0.000 A 
ATOM      9  C   UNL     1       4.169   3.642  18.814  0.00  0.00    +0.000 A 
ATOM     10  C   UNL     1       4.257   4.799  18.072  0.00  0.00    +0.000 A 
ENDROOT
BRANCH   6  11
ATOM     11  C   UNL     1       2.135   7.301  19.919  0.00  0.00    +0.000 C 
ATOM     12  C   UNL     1       1.252   7.435  20.923  0.00  0.00    +0.000 C 
BRANCH  12  13
ATOM     13  C   UNL     1       0.608   8.709  21.283  0.00  0.00    +0.000 A 
ATOM     14  C   UNL     1       0.275   9.038  22.606  0.00  0.00    +0.000 A 
ATOM     15  C   UNL     1      -0.369  10.243  22.902  0.00  0.00    +0.000 A 
ATOM     16  C   UNL     1      -0.661  11.132  21.875  0.00  0.00    +0.000 A 
ATOM     17  C   UNL     1      -0.294  10.850  20.566  0.00  0.00    +0.000 A 
ATOM     18  C   UNL     1       0.342   9.642  20.271  0.00  0.00    +0.000 A 
BRANCH  16  19
ATOM     19  O   UNL     1      -1.318  12.302  22.114  0.00  0.00    +0.000 OA
ATOM     20  H   UNL     1      -2.022  12.401  21.451  0.00  0.00    +0.000 HD
ENDBRANCH  16  19
ENDBRANCH  12  13
ENDBRANCH   6  11
BRANCH   1  21
ATOM     21  C   UNL     1       5.777   4.175  16.163  0.00  0.00    +0.000 C 
BRANCH  21  23
ATOM     22  O   UNL     1       7.995   4.162  17.121  0.00  0.00    +0.000 OA
ATOM     23  C   UNL     1       7.255   4.537  16.221  0.00  0.00    +0.000 C 
BRANCH  23  24
ATOM     24  O   UNL     1       7.710   5.283  15.192  0.00  0.00    +0.000 OA
ATOM     25  H   UNL     1       8.168   6.092  15.488  0.00  0.00    +0.000 HD
ENDBRANCH  23  24
ENDBRANCH  21  23
ENDBRANCH   1  21
TORSDOF 6
ENDMDL
MODEL 5
REMARK VINA RESULT:      -7.9      1.954      2.358
REMARK  Name = 
REMARK  6 active torsions:
REMARK  status: ('A' for Active; 'I' for Inactive)
REMARK    1  A    between atoms: C_2  and  O_3
REMARK    2  A    between atoms: C_2  and  C_4
REMARK    3  A    between atoms: C_4  and  N_5
REMARK    4  A    between atoms: C_10  and  C_11
REMARK    5  A    between atoms: C_12  and  C_13
REMARK    6  A    between atoms: C_16  and  O_17
REMARK                            x       y       z     vdW  Elec       q    Type
REMARK                         _______ _______ _______ _____ _____    ______ ____
ROOT
ATOM      1  N   UNL     1       5.975   5.349  16.677  0.00  0.00    +0.000 N 
ATOM      2  C   UNL     1       6.235   6.664  17.003  0.00  0.00    +0.000 A 
ATOM      3  O   UNL     1       7.281   7.257  16.786  0.00  0.00    +0.000 OA
ATOM      4  O   UNL     1       5.112   7.264  17.580  0.00  0.00    +0.000 OA
ATOM      5  C   UNL     1       4.180   6.229  17.606  0.00  0.00    +0.000 A 
ATOM      6  C   UNL     1       2.888   6.309  18.105  0.00  0.00    +0.000 A 
ATOM      7  C   UNL     1       2.115   5.138  18.011  0.00  0.00    +0.000 A 
ATOM      8  C   UNL     1       2.643   3.948  17.468  0.00  0.00    +0.000 A 
ATOM      9  C   UNL     1       3.953   3.899  16.988  0.00  0.00    +0.000 A 
ATOM     10  C   UNL     1       4.690   5.060  17.070  0.00  0.00    +0.000 A 
ENDROOT
BRANCH   6  11
ATOM     11  C   UNL     1       2.368   7.575  18.638  0.00  0.00    +0.000 C 
ATOM     12  C   UNL     1       2.056   8.648  17.893  0.00  0.00    +0.000 C 
BRANCH  12  13
ATOM     13  C   UNL     1       1.480   9.887  18.443  0.00  0.00    +0.000 A 
ATOM     14  C   UNL     1       1.995  11.157  18.142  0.00  0.00    +0.000 A 
ATOM     15  C   UNL     1       1.442  12.307  18.713  0.00  0.00    +0.000 A 
ATOM     16  C   UNL     1       0.355  12.188  19.571  0.00  0.00    +0.000 A 
ATOM     17  C   UNL     1      -0.203  10.947  19.842  0.00  0.00    +0.000 A 
ATOM     18  C   UNL     1       0.357   9.798  19.277  0.00  0.00    +0.000 A 
BRANCH  16  19
ATOM     19  O   UNL     1      -0.193  13.279  20.176  0.00  0.00    +0.000 OA
ATOM     20  H   UNL     1      -0.778  12.974  20.890  0.00  0.00    +0.000 HD
ENDBRANCH  16  19
ENDBRANCH  12  13
ENDBRANCH   6  11
BRANCH   1  21
ATOM     21  C   UNL     1       6.927   4.422  16.104  0.00  0.00    +0.000 C 
BRANCH  21  23
ATOM     22  O   UNL     1       7.627   5.338  13.981  0.00  0.00    +0.000 OA
ATOM     23  C   UNL     1       7.007   4.474  14.584  0.00  0.00    +0.000 C 
BRANCH  23  24
ATOM     24  O   UNL     1       6.365   3.478  13.936  0.00  0.00    +0.000 OA
ATOM     25  H   UNL     1       6.769   2.604  14.096  0.00  0.00    +0.000 HD
ENDBRANCH  23  24
ENDBRANCH  21  23
ENDBRANCH   1  21
TORSDOF 6
ENDMDL
MODEL 6
REMARK VINA RESULT:      -7.9      1.422      1.874
REMARK  Name = 
REMARK  6 active torsions:
REMARK  status: ('A' for Active; 'I' for Inactive)
REMARK    1  A    between atoms: C_2  and  O_3
REMARK    2  A    between atoms: C_2  and  C_4
REMARK    3  A    between atoms: C_4  and  N_5
REMARK    4  A    between atoms: C_10  and  C_11
REMARK    5  A    between atoms: C_12  and  C_13
REMARK    6  A    between atoms: C_16  and  O_17
REMARK                            x       y       z     vdW  Elec       q    Type
REMARK                         _______ _______ _______ _____ _____    ______ ____
ROOT
ATOM      1  N   UNL     1       5.791   5.249  16.627  0.00  0.00    +0.000 N 
ATOM      2  C   UNL     1       5.929   6.578  16.968  0.00  0.00    +0.000 A 
ATOM      3  O   UNL     1       6.908   7.272  16.741  0.00  0.00    +0.000 OA
ATOM      4  O   UNL     1       4.765   7.058  17.575  0.00  0.00    +0.000 OA
ATOM      5  C   UNL     1       3.938   5.938  17.602  0.00  0.00    +0.000 A 
ATOM      6  C   UNL     1       2.654   5.885  18.125  0.00  0.00    +0.000 A 
ATOM      7  C   UNL     1       1.996   4.647  18.028  0.00  0.00    +0.000 A 
ATOM      8  C   UNL     1       2.627   3.520  17.458  0.00  0.00    +0.000 A 
ATOM      9  C   UNL     1       3.926   3.605  16.953  0.00  0.00    +0.000 A 
ATOM     10  C   UNL     1       4.548   4.830  17.039  0.00  0.00    +0.000 A 
ENDROOT
BRANCH   6  11
ATOM     11  C   UNL     1       2.025   7.087  18.687  0.00  0.00    +0.000 C 
ATOM     12  C   UNL     1       1.885   7.335  20.000  0.00  0.00    +0.000 C 
BRANCH  12  13
ATOM     13  C   UNL     1       1.304   8.574  20.544  0.00  0.00    +0.000 A 
ATOM     14  C   UNL     1       0.999   8.731  21.904  0.00  0.00    +0.000 A 
ATOM     15  C   UNL     1       0.414   9.911  22.373  0.00  0.00    +0.000 A 
ATOM     16  C   UNL     1       0.153  10.946  21.483  0.00  0.00    +0.000 A 
ATOM     17  C   UNL     1       0.493  10.831  20.143  0.00  0.00    +0.000 A 
ATOM     18  C   UNL     1       1.070   9.649  19.674  0.00  0.00    +0.000 A 
BRANCH  16  19
ATOM     19  O   UNL     1      -0.448  12.098  21.892  0.00  0.00    +0.000 OA
ATOM     20  H   UNL     1      -0.569  12.058  22.856  0.00  0.00    +0.000 HD
ENDBRANCH  16  19
ENDBRANCH  12  13
ENDBRANCH   6  11
BRANCH   1  21
ATOM     21  C   UNL     1       6.817   4.426  16.023  0.00  0.00    +0.000 C 
BRANCH  21  23
ATOM     22  O   UNL     1       6.345   3.987  13.694  0.00  0.00    +0.000 OA
ATOM     23  C   UNL     1       6.974   4.632  14.522  0.00  0.00    +0.000 C 
BRANCH  23  24
ATOM     24  O   UNL     1       7.843   5.600  14.158  0.00  0.00    +0.000 OA
ATOM     25  H   UNL     1       8.609   5.662  14.759  0.00  0.00    +0.000 HD
ENDBRANCH  23  24
ENDBRANCH  21  23
ENDBRANCH   1  21
TORSDOF 6
ENDMDL
MODEL 7
REMARK VINA RESULT:      -7.7      3.058      4.020
REMARK  Name = 
REMARK  6 active torsions:
REMARK  status: ('A' for Active; 'I' for Inactive)
REMARK    1  A    between atoms: C_2  and  O_3
REMARK    2  A    between atoms: C_2  and  C_4
REMARK    3  A    between atoms: C_4  and  N_5
REMARK    4  A    between atoms: C_10  and  C_11
REMARK    5  A    between atoms: C_12  and  C_13
REMARK    6  A    between atoms: C_16  and  O_17
REMARK                            x       y       z     vdW  Elec       q    Type
REMARK                         _______ _______ _______ _____ _____    ______ ____
ROOT
ATOM      1  N   UNL     1       3.479   4.087  19.721  0.00  0.00    +0.000 N 
ATOM      2  C   UNL     1       2.443   4.497  20.532  0.00  0.00    +0.000 A 
ATOM      3  O   UNL     1       1.964   3.855  21.454  0.00  0.00    +0.000 OA
ATOM      4  O   UNL     1       2.030   5.790  20.196  0.00  0.00    +0.000 OA
ATOM      5  C   UNL     1       2.856   6.116  19.123  0.00  0.00    +0.000 A 
ATOM      6  C   UNL     1       2.835   7.306  18.410  0.00  0.00    +0.000 A 
ATOM      7  C   UNL     1       3.776   7.423  17.373  0.00  0.00    +0.000 A 
ATOM      8  C   UNL     1       4.665   6.372  17.063  0.00  0.00    +0.000 A 
ATOM      9  C   UNL     1       4.650   5.181  17.792  0.00  0.00    +0.000 A 
ATOM     10  C   UNL     1       3.735   5.092  18.816  0.00  0.00    +0.000 A 
ENDROOT
BRANCH   6  11
ATOM     11  C   UNL     1       1.911   8.385  18.782  0.00  0.00    +0.000 C 
ATOM     12  C   UNL     1       1.116   9.042  17.921  0.00  0.00    +0.000 C 
BRANCH  12  13
ATOM     13  C   UNL     1       0.153  10.080  18.323  0.00  0.00    +0.000 A 
ATOM     14  C   UNL     1       0.466  11.078  19.258  0.00  0.00    +0.000 A 
ATOM     15  C   UNL     1      -0.489  12.024  19.641  0.00  0.00    +0.000 A 
ATOM     16  C   UNL     1      -1.755  11.987  19.070  0.00  0.00    +0.000 A 
ATOM     17  C   UNL     1      -2.071  11.041  18.105  0.00  0.00    +0.000 A 
ATOM     18  C   UNL     1      -1.118  10.090  17.730  0.00  0.00    +0.000 A 
BRANCH  16  19
ATOM     19  O   UNL     1      -2.727  12.868  19.439  0.00  0.00    +0.000 OA
ATOM     20  H   UNL     1      -2.367  13.769  19.371  0.00  0.00    +0.000 HD
ENDBRANCH  16  19
ENDBRANCH  12  13
ENDBRANCH   6  11
BRANCH   1  21
ATOM     21  C   UNL     1       4.117   2.789  19.764  0.00  0.00    +0.000 C 
BRANCH  21  23
ATOM     22  O   UNL     1       2.511   1.966  18.157  0.00  0.00    +0.000 OA
ATOM     23  C   UNL     1       3.565   1.793  18.752  0.00  0.00    +0.000 C 
BRANCH  23  24
ATOM     24  O   UNL     1       4.336   0.706  18.529  0.00  0.00    +0.000 OA
ATOM     25  H   UNL     1       4.439   0.506  17.580  0.00  0.00    +0.000 HD
ENDBRANCH  23  24
ENDBRANCH  21  23
ENDBRANCH   1  21
TORSDOF 6
ENDMDL
MODEL 8
REMARK VINA RESULT:      -7.7      3.023      3.938
REMARK  Name = 
REMARK  6 active torsions:
REMARK  status: ('A' for Active; 'I' for Inactive)
REMARK    1  A    between atoms: C_2  and  O_3
REMARK    2  A    between atoms: C_2  and  C_4
REMARK    3  A    between atoms: C_4  and  N_5
REMARK    4  A    between atoms: C_10  and  C_11
REMARK    5  A    between atoms: C_12  and  C_13
REMARK    6  A    between atoms: C_16  and  O_17
REMARK                            x       y       z     vdW  Elec       q    Type
REMARK                         _______ _______ _______ _____ _____    ______ ____
ROOT
ATOM      1  N   UNL     1       3.470   4.080  19.685  0.00  0.00    +0.000 N 
ATOM      2  C   UNL     1       2.438   4.488  20.504  0.00  0.00    +0.000 A 
ATOM      3  O   UNL     1       1.960   3.839  21.422  0.00  0.00    +0.000 OA
ATOM      4  O   UNL     1       2.030   5.785  20.181  0.00  0.00    +0.000 OA
ATOM      5  C   UNL     1       2.854   6.117  19.108  0.00  0.00    +0.000 A 
ATOM      6  C   UNL     1       2.835   7.313  18.406  0.00  0.00    +0.000 A 
ATOM      7  C   UNL     1       3.773   7.435  17.366  0.00  0.00    +0.000 A 
ATOM      8  C   UNL     1       4.657   6.383  17.043  0.00  0.00    +0.000 A 
ATOM      9  C   UNL     1       4.639   5.187  17.762  0.00  0.00    +0.000 A 
ATOM     10  C   UNL     1       3.727   5.091  18.789  0.00  0.00    +0.000 A 
ENDROOT
BRANCH   6  11
ATOM     11  C   UNL     1       1.917   8.393  18.790  0.00  0.00    +0.000 C 
ATOM     12  C   UNL     1       1.126   9.065  17.937  0.00  0.00    +0.000 C 
BRANCH  12  13
ATOM     13  C   UNL     1       0.169  10.104  18.352  0.00  0.00    +0.000 A 
ATOM     14  C   UNL     1      -1.119  10.206  17.804  0.00  0.00    +0.000 A 
ATOM     15  C   UNL     1      -1.984  11.230  18.198  0.00  0.00    +0.000 A 
ATOM     16  C   UNL     1      -1.570  12.143  19.161  0.00  0.00    +0.000 A 
ATOM     17  C   UNL     1      -0.320  12.030  19.753  0.00  0.00    +0.000 A 
ATOM     18  C   UNL     1       0.547  11.011  19.352  0.00  0.00    +0.000 A 
BRANCH  16  19
ATOM     19  O   UNL     1      -2.368  13.176  19.549  0.00  0.00    +0.000 OA
ATOM     20  H   UNL     1      -2.666  13.010  20.460  0.00  0.00    +0.000 HD
ENDBRANCH  16  19
ENDBRANCH  12  13
ENDBRANCH   6  11
BRANCH   1  21
ATOM     21  C   UNL     1       4.102   2.779  19.714  0.00  0.00    +0.000 C 
BRANCH  21  23
ATOM     22  O   UNL     1       2.528   2.002  18.054  0.00  0.00    +0.000 OA
ATOM     23  C   UNL     1       3.561   1.803  18.677  0.00  0.00    +0.000 C 
BRANCH  23  24
ATOM     24  O   UNL     1       4.317   0.703  18.468  0.00  0.00    +0.000 OA
ATOM     25  H   UNL     1       5.239   0.819  18.765  0.00  0.00    +0.000 HD
ENDBRANCH  23  24
ENDBRANCH  21  23
ENDBRANCH   1  21
TORSDOF 6
ENDMDL
MODEL 9
REMARK VINA RESULT:      -7.7      2.857      3.694
REMARK  Name = 
REMARK  6 active torsions:
REMARK  status: ('A' for Active; 'I' for Inactive)
REMARK    1  A    between atoms: C_2  and  O_3
REMARK    2  A    between atoms: C_2  and  C_4
REMARK    3  A    between atoms: C_4  and  N_5
REMARK    4  A    between atoms: C_10  and  C_11
REMARK    5  A    between atoms: C_12  and  C_13
REMARK    6  A    between atoms: C_16  and  O_17
REMARK                            x       y       z     vdW  Elec       q    Type
REMARK                         _______ _______ _______ _____ _____    ______ ____
ROOT
ATOM      1  N   UNL     1       3.300   3.613  20.116  0.00  0.00    +0.000 N 
ATOM      2  C   UNL     1       2.504   3.770  21.231  0.00  0.00    +0.000 A 
ATOM      3  O   UNL     1       2.290   2.917  22.079  0.00  0.00    +0.000 OA
ATOM      4  O   UNL     1       1.999   5.072  21.302  0.00  0.00    +0.000 OA
ATOM      5  C   UNL     1       2.515   5.673  20.155  0.00  0.00    +0.000 A 
ATOM      6  C   UNL     1       2.292   6.981  19.750  0.00  0.00    +0.000 A 
ATOM      7  C   UNL     1       2.930   7.378  18.562  0.00  0.00    +0.000 A 
ATOM      8  C   UNL     1       3.724   6.481  17.816  0.00  0.00    +0.000 A 
ATOM      9  C   UNL     1       3.915   5.166  18.246  0.00  0.00    +0.000 A 
ATOM     10  C   UNL     1       3.298   4.800  19.421  0.00  0.00    +0.000 A 
ENDROOT
BRANCH   6  11
ATOM     11  C   UNL     1       1.480   7.890  20.569  0.00  0.00    +0.000 C 
ATOM     12  C   UNL     1       0.970   9.057  20.139  0.00  0.00    +0.000 C 
BRANCH  12  13
ATOM     13  C   UNL     1       0.108   9.926  20.959  0.00  0.00    +0.000 A 
ATOM     14  C   UNL     1      -0.493  11.087  20.451  0.00  0.00    +0.000 A 
ATOM     15  C   UNL     1      -1.274  11.905  21.272  0.00  0.00    +0.000 A 
ATOM     16  C   UNL     1      -1.473  11.549  22.601  0.00  0.00    +0.000 A 
ATOM     17  C   UNL     1      -0.930  10.378  23.111  0.00  0.00    +0.000 A 
ATOM     18  C   UNL     1      -0.143   9.566  22.291  0.00  0.00    +0.000 A 
BRANCH  16  19
ATOM     19  O   UNL     1      -2.199  12.335  23.445  0.00  0.00    +0.000 OA
ATOM     20  H   UNL     1      -1.622  12.617  24.175  0.00  0.00    +0.000 HD
ENDBRANCH  16  19
ENDBRANCH  12  13
ENDBRANCH   6  11
BRANCH   1  21
ATOM     21  C   UNL     1       3.946   2.383  19.712  0.00  0.00    +0.000 C 
BRANCH  21  23
ATOM     22  O   UNL     1       2.136   1.961  18.167  0.00  0.00    +0.000 OA
ATOM     23  C   UNL     1       3.265   1.679  18.545  0.00  0.00    +0.000 C 
BRANCH  23  24
ATOM     24  O   UNL     1       4.004   0.731  17.930  0.00  0.00    +0.000 OA
ATOM     25  H   UNL     1       3.769   0.623  16.989  0.00  0.00    +0.000 HD
ENDBRANCH  23  24
ENDBRANCH  21  23
ENDBRANCH   1  21
TORSDOF 6
ENDMDL
