MODEL 1
REMARK VINA RESULT:      -9.1      0.000      0.000
REMARK  Name = 
REMARK  7 active torsions:
REMARK  status: ('A' for Active; 'I' for Inactive)
REMARK    1  A    between atoms: C_1  and  C_2
REMARK    2  A    between atoms: C_4  and  C_5
REMARK    3  A    between atoms: C_6  and  C_7
REMARK    4  A    between atoms: C_9  and  C_10
REMARK    5  A    between atoms: C_15  and  C_16
REMARK    6  A    between atoms: C_19  and  C_20
REMARK    7  A    between atoms: C_28  and  C_29
REMARK                            x       y       z     vdW  Elec       q    Type
REMARK                         _______ _______ _______ _____ _____    ______ ____
ROOT
ATOM      1  C   UNL     1       2.285   8.679  18.199  0.00  0.00    +0.000 C 
ATOM      2  O   UNL     1       2.751   9.111  17.133  0.00  0.00    +0.000 OA
ATOM      3  N   UNL     1       1.446   9.531  18.971  0.00  0.00    +0.000 N 
ATOM      4  C   UNL     1       1.203  10.775  18.276  0.00  0.00    +0.000 C 
ATOM      5  C   UNL     1       0.331  11.859  18.860  0.00  0.00    +0.000 C 
ATOM      6  C   UNL     1      -0.648  11.512  19.976  0.00  0.00    +0.000 C 
ATOM      7  C   UNL     1      -0.126  10.361  20.851  0.00  0.00    +0.000 C 
ATOM      8  C   UNL     1       0.719   9.244  20.204  0.00  0.00    +0.000 C 
ENDROOT
BRANCH   1  11
ATOM      9  C   UNL     1       4.273   5.438  17.888  0.00  0.00    +0.000 A 
ATOM     10  C   UNL     1       3.728   6.725  17.700  0.00  0.00    +0.000 A 
ATOM     11  C   UNL     1       2.695   7.272  18.508  0.00  0.00    +0.000 A 
ATOM     12  C   UNL     1       2.197   6.487  19.532  0.00  0.00    +0.000 A 
ATOM     13  C   UNL     1       2.730   5.214  19.758  0.00  0.00    +0.000 A 
ATOM     14  C   UNL     1       3.766   4.679  18.961  0.00  0.00    +0.000 A 
ATOM     15  C   UNL     1       4.267   3.310  19.336  0.00  0.00    +0.000 C 
BRANCH   9  21
ATOM     16  C   UNL     1       6.333   3.708  13.666  0.00  0.00    +0.000 C 
ATOM     17  C   UNL     1       6.267   4.184  15.069  0.00  0.00    +0.000 A 
ATOM     18  N   UNL     1       7.272   4.384  15.887  0.00  0.00    +0.000 NA
ATOM     19  C   UNL     1       6.716   4.838  17.069  0.00  0.00    +0.000 A 
ATOM     20  C   UNL     1       7.624   5.128  18.202  0.00  0.00    +0.000 C 
ATOM     21  C   UNL     1       5.329   4.959  16.964  0.00  0.00    +0.000 A 
ATOM     22  N   UNL     1       5.083   4.473  15.694  0.00  0.00    +0.000 N 
ATOM     23  H   UNL     1       4.177   4.341  15.274  0.00  0.00    +0.000 HD
ENDBRANCH   9  21
ENDBRANCH   1  11
BRANCH   6  24
ATOM     24  C   UNL     1      -2.090  11.549  19.457  0.00  0.00    +0.000 A 
ATOM     25  C   UNL     1      -2.543  10.857  18.333  0.00  0.00    +0.000 A 
ATOM     26  C   UNL     1      -3.866  11.019  17.880  0.00  0.00    +0.000 A 
ATOM     27  C   UNL     1      -4.767  11.871  18.546  0.00  0.00    +0.000 A 
ATOM     28  C   UNL     1      -4.341  12.523  19.698  0.00  0.00    +0.000 A 
ATOM     29  C   UNL     1      -3.033  12.343  20.160  0.00  0.00    +0.000 A 
BRANCH  27  30
ATOM     30  C   UNL     1      -6.089  12.085  18.038  0.00  0.00    +0.000 C 
ATOM     31  N   UNL     1      -7.167  12.265  17.642  0.00  0.00    +0.000 NA
ENDBRANCH  27  30
ENDBRANCH   6  24
TORSDOF 4
ENDMDL
MODEL 2
REMARK VINA RESULT:      -8.2      1.863      2.198
REMARK  Name = 
REMARK  7 active torsions:
REMARK  status: ('A' for Active; 'I' for Inactive)
REMARK    1  A    between atoms: C_1  and  C_2
REMARK    2  A    between atoms: C_4  and  C_5
REMARK    3  A    between atoms: C_6  and  C_7
REMARK    4  A    between atoms: C_9  and  C_10
REMARK    5  A    between atoms: C_15  and  C_16
REMARK    6  A    between atoms: C_19  and  C_20
REMARK    7  A    between atoms: C_28  and  C_29
REMARK                            x       y       z     vdW  Elec       q    Type
REMARK                         _______ _______ _______ _____ _____    ______ ____
ROOT
ATOM      1  C   UNL     1       1.652   9.095  18.345  0.00  0.00    +0.000 C 
ATOM      2  O   UNL     1       1.344   9.209  17.149  0.00  0.00    +0.000 OA
ATOM      3  N   UNL     1       1.348  10.167  19.232  0.00  0.00    +0.000 N 
ATOM      4  C   UNL     1       0.607  11.202  18.547  0.00  0.00    +0.000 C 
ATOM      5  C   UNL     1       0.140  12.450  19.255  0.00  0.00    +0.000 C 
ATOM      6  C   UNL     1       0.060  12.462  20.778  0.00  0.00    +0.000 C 
ATOM      7  C   UNL     1       1.121  11.546  21.408  0.00  0.00    +0.000 C 
ATOM      8  C   UNL     1       1.533  10.252  20.678  0.00  0.00    +0.000 C 
ENDROOT
BRANCH   1  11
ATOM      9  C   UNL     1       4.140   6.223  18.008  0.00  0.00    +0.000 A 
ATOM     10  C   UNL     1       3.372   7.390  17.814  0.00  0.00    +0.000 A 
ATOM     11  C   UNL     1       2.316   7.793  18.675  0.00  0.00    +0.000 A 
ATOM     12  C   UNL     1       2.028   6.986  19.760  0.00  0.00    +0.000 A 
ATOM     13  C   UNL     1       2.785   5.834  19.992  0.00  0.00    +0.000 A 
ATOM     14  C   UNL     1       3.842   5.443  19.142  0.00  0.00    +0.000 A 
ATOM     15  C   UNL     1       4.593   4.197  19.529  0.00  0.00    +0.000 C 
BRANCH   9  21
ATOM     16  C   UNL     1       6.270   4.130  13.990  0.00  0.00    +0.000 C 
ATOM     17  C   UNL     1       6.167   4.951  15.221  0.00  0.00    +0.000 A 
ATOM     18  N   UNL     1       7.092   5.721  15.740  0.00  0.00    +0.000 NA
ATOM     19  C   UNL     1       6.527   6.287  16.869  0.00  0.00    +0.000 A 
ATOM     20  C   UNL     1       7.360   7.197  17.686  0.00  0.00    +0.000 C 
ATOM     21  C   UNL     1       5.199   5.885  17.027  0.00  0.00    +0.000 A 
ATOM     22  N   UNL     1       5.033   4.987  15.989  0.00  0.00    +0.000 N 
ATOM     23  H   UNL     1       4.213   4.432  15.811  0.00  0.00    +0.000 HD
ENDBRANCH   9  21
ENDBRANCH   1  11
BRANCH   6  24
ATOM     24  C   UNL     1      -1.402  12.451  21.238  0.00  0.00    +0.000 A 
ATOM     25  C   UNL     1      -2.492  12.735  20.415  0.00  0.00    +0.000 A 
ATOM     26  C   UNL     1      -3.795  12.785  20.946  0.00  0.00    +0.000 A 
ATOM     27  C   UNL     1      -4.037  12.543  22.312  0.00  0.00    +0.000 A 
ATOM     28  C   UNL     1      -2.963  12.205  23.130  0.00  0.00    +0.000 A 
ATOM     29  C   UNL     1      -1.673  12.134  22.595  0.00  0.00    +0.000 A 
BRANCH  27  30
ATOM     30  C   UNL     1      -5.355  12.664  22.859  0.00  0.00    +0.000 C 
ATOM     31  N   UNL     1      -6.417  12.774  23.315  0.00  0.00    +0.000 NA
ENDBRANCH  27  30
ENDBRANCH   6  24
TORSDOF 4
ENDMDL
MODEL 3
REMARK VINA RESULT:      -8.1      1.165      1.581
REMARK  Name = 
REMARK  7 active torsions:
REMARK  status: ('A' for Active; 'I' for Inactive)
REMARK    1  A    between atoms: C_1  and  C_2
REMARK    2  A    between atoms: C_4  and  C_5
REMARK    3  A    between atoms: C_6  and  C_7
REMARK    4  A    between atoms: C_9  and  C_10
REMARK    5  A    between atoms: C_15  and  C_16
REMARK    6  A    between atoms: C_19  and  C_20
REMARK    7  A    between atoms: C_28  and  C_29
REMARK                            x       y       z     vdW  Elec       q    Type
REMARK                         _______ _______ _______ _____ _____    ______ ____
ROOT
ATOM      1  C   UNL     1       1.640   9.046  18.886  0.00  0.00    +0.000 C 
ATOM      2  O   UNL     1       1.875   9.334  17.703  0.00  0.00    +0.000 OA
ATOM      3  N   UNL     1       1.049  10.034  19.724  0.00  0.00    +0.000 N 
ATOM      4  C   UNL     1       0.725  11.220  18.964  0.00  0.00    +0.000 C 
ATOM      5  C   UNL     1       0.071  12.422  19.601  0.00  0.00    +0.000 C 
ATOM      6  C   UNL     1      -0.645  12.264  20.938  0.00  0.00    +0.000 C 
ATOM      7  C   UNL     1      -0.003  11.164  21.799  0.00  0.00    +0.000 C 
ATOM      8  C   UNL     1       0.607   9.926  21.111  0.00  0.00    +0.000 C 
ENDROOT
BRANCH   1  11
ATOM      9  C   UNL     1       3.625   5.791  18.757  0.00  0.00    +0.000 A 
ATOM     10  C   UNL     1       3.095   7.074  18.509  0.00  0.00    +0.000 A 
ATOM     11  C   UNL     1       2.029   7.647  19.254  0.00  0.00    +0.000 A 
ATOM     12  C   UNL     1       1.483   6.893  20.275  0.00  0.00    +0.000 A 
ATOM     13  C   UNL     1       2.000   5.626  20.561  0.00  0.00    +0.000 A 
ATOM     14  C   UNL     1       3.067   5.065  19.828  0.00  0.00    +0.000 A 
ATOM     15  C   UNL     1       3.546   3.706  20.263  0.00  0.00    +0.000 C 
BRANCH   9  21
ATOM     16  C   UNL     1       5.862   3.921  14.688  0.00  0.00    +0.000 C 
ATOM     17  C   UNL     1       5.737   4.445  16.070  0.00  0.00    +0.000 A 
ATOM     18  N   UNL     1       6.707   4.675  16.921  0.00  0.00    +0.000 NA
ATOM     19  C   UNL     1       6.101   5.168  18.063  0.00  0.00    +0.000 A 
ATOM     20  C   UNL     1       6.960   5.499  19.222  0.00  0.00    +0.000 C 
ATOM     21  C   UNL     1       4.720   5.283  17.895  0.00  0.00    +0.000 A 
ATOM     22  N   UNL     1       4.527   4.753  16.633  0.00  0.00    +0.000 N 
ATOM     23  H   UNL     1       3.640   4.605  16.181  0.00  0.00    +0.000 HD
ENDBRANCH   9  21
ENDBRANCH   1  11
BRANCH   6  24
ATOM     24  C   UNL     1      -2.163  12.367  20.748  0.00  0.00    +0.000 A 
ATOM     25  C   UNL     1      -3.073  12.619  21.776  0.00  0.00    +0.000 A 
ATOM     26  C   UNL     1      -4.458  12.611  21.523  0.00  0.00    +0.000 A 
ATOM     27  C   UNL     1      -4.963  12.357  20.233  0.00  0.00    +0.000 A 
ATOM     28  C   UNL     1      -4.062  12.159  19.191  0.00  0.00    +0.000 A 
ATOM     29  C   UNL     1      -2.687  12.191  19.441  0.00  0.00    +0.000 A 
BRANCH  27  30
ATOM     30  C   UNL     1      -6.373  12.281  19.998  0.00  0.00    +0.000 C 
ATOM     31  N   UNL     1      -7.514  12.219  19.789  0.00  0.00    +0.000 NA
ENDBRANCH  27  30
ENDBRANCH   6  24
TORSDOF 4
ENDMDL
MODEL 4
REMARK VINA RESULT:      -8.0      3.183     10.651
REMARK  Name = 
REMARK  7 active torsions:
REMARK  status: ('A' for Active; 'I' for Inactive)
REMARK    1  A    between atoms: C_1  and  C_2
REMARK    2  A    between atoms: C_4  and  C_5
REMARK    3  A    between atoms: C_6  and  C_7
REMARK    4  A    between atoms: C_9  and  C_10
REMARK    5  A    between atoms: C_15  and  C_16
REMARK    6  A    between atoms: C_19  and  C_20
REMARK    7  A    between atoms: C_28  and  C_29
REMARK                            x       y       z     vdW  Elec       q    Type
REMARK                         _______ _______ _______ _____ _____    ______ ____
ROOT
ATOM      1  C   UNL     1      -1.278  12.626  21.146  0.00  0.00    +0.000 C 
ATOM      2  O   UNL     1      -0.543  13.248  21.930  0.00  0.00    +0.000 OA
ATOM      3  N   UNL     1      -0.676  11.902  20.079  0.00  0.00    +0.000 N 
ATOM      4  C   UNL     1       0.766  11.952  20.176  0.00  0.00    +0.000 C 
ATOM      5  C   UNL     1       1.658  11.253  19.179  0.00  0.00    +0.000 C 
ATOM      6  C   UNL     1       1.081  10.141  18.309  0.00  0.00    +0.000 C 
ATOM      7  C   UNL     1      -0.410  10.368  18.013  0.00  0.00    +0.000 C 
ATOM      8  C   UNL     1      -1.299  11.038  19.080  0.00  0.00    +0.000 C 
ENDROOT
BRANCH   1  11
ATOM      9  C   UNL     1      -5.028  12.840  20.481  0.00  0.00    +0.000 A 
ATOM     10  C   UNL     1      -3.624  12.788  20.360  0.00  0.00    +0.000 A 
ATOM     11  C   UNL     1      -2.736  12.740  21.469  0.00  0.00    +0.000 A 
ATOM     12  C   UNL     1      -3.290  12.750  22.735  0.00  0.00    +0.000 A 
ATOM     13  C   UNL     1      -4.679  12.779  22.890  0.00  0.00    +0.000 A 
ATOM     14  C   UNL     1      -5.558  12.814  21.786  0.00  0.00    +0.000 A 
ATOM     15  C   UNL     1      -7.032  12.811  22.096  0.00  0.00    +0.000 C 
BRANCH   9  21
ATOM     16  C   UNL     1      -7.175  14.853  16.432  0.00  0.00    +0.000 C 
ATOM     17  C   UNL     1      -6.824  13.812  17.428  0.00  0.00    +0.000 A 
ATOM     18  N   UNL     1      -7.152  12.543  17.398  0.00  0.00    +0.000 NA
ATOM     19  C   UNL     1      -6.588  11.977  18.526  0.00  0.00    +0.000 A 
ATOM     20  C   UNL     1      -6.816  10.535  18.774  0.00  0.00    +0.000 C 
ATOM     21  C   UNL     1      -5.856  12.918  19.253  0.00  0.00    +0.000 A 
ATOM     22  N   UNL     1      -6.086  14.084  18.549  0.00  0.00    +0.000 N 
ATOM     23  H   UNL     1      -5.770  15.005  18.807  0.00  0.00    +0.000 HD
ENDBRANCH   9  21
ENDBRANCH   1  11
BRANCH   6  24
ATOM     24  C   UNL     1       1.624   8.777  18.753  0.00  0.00    +0.000 A 
ATOM     25  C   UNL     1       2.317   7.895  17.924  0.00  0.00    +0.000 A 
ATOM     26  C   UNL     1       2.704   6.626  18.395  0.00  0.00    +0.000 A 
ATOM     27  C   UNL     1       2.412   6.215  19.710  0.00  0.00    +0.000 A 
ATOM     28  C   UNL     1       1.770   7.108  20.561  0.00  0.00    +0.000 A 
ATOM     29  C   UNL     1       1.407   8.377  20.097  0.00  0.00    +0.000 A 
BRANCH  27  30
ATOM     30  C   UNL     1       2.747   4.897  20.160  0.00  0.00    +0.000 C 
ATOM     31  N   UNL     1       3.006   3.830  20.538  0.00  0.00    +0.000 NA
ENDBRANCH  27  30
ENDBRANCH   6  24
TORSDOF 4
ENDMDL
MODEL 5
REMARK VINA RESULT:      -7.9      2.807     10.747
REMARK  Name = 
REMARK  7 active torsions:
REMARK  status: ('A' for Active; 'I' for Inactive)
REMARK    1  A    between atoms: C_1  and  C_2
REMARK    2  A    between atoms: C_4  and  C_5
REMARK    3  A    between atoms: C_6  and  C_7
REMARK    4  A    between atoms: C_9  and  C_10
REMARK    5  A    between atoms: C_15  and  C_16
REMARK    6  A    between atoms: C_19  and  C_20
REMARK    7  A    between atoms: C_28  and  C_29
REMARK                            x       y       z     vdW  Elec       q    Type
REMARK                         _______ _______ _______ _____ _____    ______ ____
ROOT
ATOM      1  C   UNL     1      -0.246  12.411  21.017  0.00  0.00    +0.000 C 
ATOM      2  O   UNL     1       0.645  13.136  21.488  0.00  0.00    +0.000 OA
ATOM      3  N   UNL     1       0.068  11.586  19.900  0.00  0.00    +0.000 N 
ATOM      4  C   UNL     1       1.472  11.681  19.573  0.00  0.00    +0.000 C 
ATOM      5  C   UNL     1       2.082  10.895  18.438  0.00  0.00    +0.000 C 
ATOM      6  C   UNL     1       1.345   9.678  17.889  0.00  0.00    +0.000 C 
ATOM      7  C   UNL     1      -0.179   9.834  18.013  0.00  0.00    +0.000 C 
ATOM      8  C   UNL     1      -0.764  10.600  19.217  0.00  0.00    +0.000 C 
ENDROOT
BRANCH   1  11
ATOM      9  C   UNL     1      -3.984  13.039  21.444  0.00  0.00    +0.000 A 
ATOM     10  C   UNL     1      -2.669  12.932  20.946  0.00  0.00    +0.000 A 
ATOM     11  C   UNL     1      -1.557  12.526  21.732  0.00  0.00    +0.000 A 
ATOM     12  C   UNL     1      -1.786  12.226  23.062  0.00  0.00    +0.000 A 
ATOM     13  C   UNL     1      -3.082  12.302  23.581  0.00  0.00    +0.000 A 
ATOM     14  C   UNL     1      -4.187  12.692  22.795  0.00  0.00    +0.000 A 
ATOM     15  C   UNL     1      -5.531  12.699  23.474  0.00  0.00    +0.000 C 
BRANCH   9  21
ATOM     16  C   UNL     1      -6.596  16.155  18.525  0.00  0.00    +0.000 C 
ATOM     17  C   UNL     1      -6.245  14.894  19.221  0.00  0.00    +0.000 A 
ATOM     18  N   UNL     1      -6.849  13.735  19.117  0.00  0.00    +0.000 NA
ATOM     19  C   UNL     1      -6.154  12.868  19.940  0.00  0.00    +0.000 A 
ATOM     20  C   UNL     1      -6.631  11.471  20.045  0.00  0.00    +0.000 C 
ATOM     21  C   UNL     1      -5.063  13.502  20.539  0.00  0.00    +0.000 A 
ATOM     22  N   UNL     1      -5.198  14.806  20.100  0.00  0.00    +0.000 N 
ATOM     23  H   UNL     1      -4.625  15.586  20.376  0.00  0.00    +0.000 HD
ENDBRANCH   9  21
ENDBRANCH   1  11
BRANCH   6  24
ATOM     24  C   UNL     1       2.067   8.387  18.294  0.00  0.00    +0.000 A 
ATOM     25  C   UNL     1       3.007   7.725  17.503  0.00  0.00    +0.000 A 
ATOM     26  C   UNL     1       3.555   6.498  17.921  0.00  0.00    +0.000 A 
ATOM     27  C   UNL     1       3.180   5.909  19.143  0.00  0.00    +0.000 A 
ATOM     28  C   UNL     1       2.285   6.587  19.964  0.00  0.00    +0.000 A 
ATOM     29  C   UNL     1       1.759   7.818  19.557  0.00  0.00    +0.000 A 
BRANCH  27  30
ATOM     30  C   UNL     1       3.688   4.626  19.528  0.00  0.00    +0.000 C 
ATOM     31  N   UNL     1       4.088   3.578  19.830  0.00  0.00    +0.000 NA
ENDBRANCH  27  30
ENDBRANCH   6  24
TORSDOF 4
ENDMDL
MODEL 6
REMARK VINA RESULT:      -7.9      1.277      2.018
REMARK  Name = 
REMARK  7 active torsions:
REMARK  status: ('A' for Active; 'I' for Inactive)
REMARK    1  A    between atoms: C_1  and  C_2
REMARK    2  A    between atoms: C_4  and  C_5
REMARK    3  A    between atoms: C_6  and  C_7
REMARK    4  A    between atoms: C_9  and  C_10
REMARK    5  A    between atoms: C_15  and  C_16
REMARK    6  A    between atoms: C_19  and  C_20
REMARK    7  A    between atoms: C_28  and  C_29
REMARK                            x       y       z     vdW  Elec       q    Type
REMARK                         _______ _______ _______ _____ _____    ______ ____
ROOT
ATOM      1  C   UNL     1       1.546   9.214  18.845  0.00  0.00    +0.000 C 
ATOM      2  O   UNL     1       1.913   9.455  17.685  0.00  0.00    +0.000 OA
ATOM      3  N   UNL     1       0.885  10.240  19.577  0.00  0.00    +0.000 N 
ATOM      4  C   UNL     1       0.667  11.402  18.745  0.00  0.00    +0.000 C 
ATOM      5  C   UNL     1      -0.030  12.636  19.264  0.00  0.00    +0.000 C 
ATOM      6  C   UNL     1      -0.891  12.538  20.519  0.00  0.00    +0.000 C 
ATOM      7  C   UNL     1      -0.367  11.462  21.484  0.00  0.00    +0.000 C 
ATOM      8  C   UNL     1       0.293  10.190  20.911  0.00  0.00    +0.000 C 
ENDROOT
BRANCH   1  11
ATOM      9  C   UNL     1       3.142   5.750  18.741  0.00  0.00    +0.000 A 
ATOM     10  C   UNL     1       2.697   7.055  18.442  0.00  0.00    +0.000 A 
ATOM     11  C   UNL     1       1.867   7.824  19.302  0.00  0.00    +0.000 A 
ATOM     12  C   UNL     1       1.474   7.250  20.496  0.00  0.00    +0.000 A 
ATOM     13  C   UNL     1       1.916   5.967  20.832  0.00  0.00    +0.000 A 
ATOM     14  C   UNL     1       2.750   5.211  19.982  0.00  0.00    +0.000 A 
ATOM     15  C   UNL     1       3.176   3.856  20.482  0.00  0.00    +0.000 C 
BRANCH   9  21
ATOM     16  C   UNL     1       7.082   4.768  15.814  0.00  0.00    +0.000 C 
ATOM     17  C   UNL     1       5.749   4.576  16.434  0.00  0.00    +0.000 A 
ATOM     18  N   UNL     1       4.943   3.553  16.284  0.00  0.00    +0.000 NA
ATOM     19  C   UNL     1       3.835   3.822  17.067  0.00  0.00    +0.000 A 
ATOM     20  C   UNL     1       2.729   2.838  17.075  0.00  0.00    +0.000 C 
ATOM     21  C   UNL     1       3.981   5.030  17.753  0.00  0.00    +0.000 A 
ATOM     22  N   UNL     1       5.186   5.503  17.272  0.00  0.00    +0.000 N 
ATOM     23  H   UNL     1       5.603   6.394  17.489  0.00  0.00    +0.000 HD
ENDBRANCH   9  21
ENDBRANCH   1  11
BRANCH   6  24
ATOM     24  C   UNL     1      -2.377  12.655  20.161  0.00  0.00    +0.000 A 
ATOM     25  C   UNL     1      -3.303  13.423  20.868  0.00  0.00    +0.000 A 
ATOM     26  C   UNL     1      -4.666  13.402  20.517  0.00  0.00    +0.000 A 
ATOM     27  C   UNL     1      -5.132  12.618  19.445  0.00  0.00    +0.000 A 
ATOM     28  C   UNL     1      -4.209  11.891  18.699  0.00  0.00    +0.000 A 
ATOM     29  C   UNL     1      -2.852  11.932  19.036  0.00  0.00    +0.000 A 
BRANCH  27  30
ATOM     30  C   UNL     1      -6.529  12.548  19.138  0.00  0.00    +0.000 C 
ATOM     31  N   UNL     1      -7.658  12.488  18.872  0.00  0.00    +0.000 NA
ENDBRANCH  27  30
ENDBRANCH   6  24
TORSDOF 4
ENDMDL
MODEL 7
REMARK VINA RESULT:      -7.9      3.288     11.011
REMARK  Name = 
REMARK  7 active torsions:
REMARK  status: ('A' for Active; 'I' for Inactive)
REMARK    1  A    between atoms: C_1  and  C_2
REMARK    2  A    between atoms: C_4  and  C_5
REMARK    3  A    between atoms: C_6  and  C_7
REMARK    4  A    between atoms: C_9  and  C_10
REMARK    5  A    between atoms: C_15  and  C_16
REMARK    6  A    between atoms: C_19  and  C_20
REMARK    7  A    between atoms: C_28  and  C_29
REMARK                            x       y       z     vdW  Elec       q    Type
REMARK                         _______ _______ _______ _____ _____    ______ ____
ROOT
ATOM      1  C   UNL     1      -1.266  12.867  21.864  0.00  0.00    +0.000 C 
ATOM      2  O   UNL     1      -0.442  13.499  22.543  0.00  0.00    +0.000 OA
ATOM      3  N   UNL     1      -0.822  12.237  20.668  0.00  0.00    +0.000 N 
ATOM      4  C   UNL     1       0.609  12.379  20.516  0.00  0.00    +0.000 C 
ATOM      5  C   UNL     1       1.349  11.790  19.341  0.00  0.00    +0.000 C 
ATOM      6  C   UNL     1       0.693  10.683  18.521  0.00  0.00    +0.000 C 
ATOM      7  C   UNL     1      -0.837  10.824  18.501  0.00  0.00    +0.000 C 
ATOM      8  C   UNL     1      -1.561  11.382  19.743  0.00  0.00    +0.000 C 
ENDROOT
BRANCH   1  11
ATOM      9  C   UNL     1      -5.078  13.011  21.880  0.00  0.00    +0.000 A 
ATOM     10  C   UNL     1      -3.715  13.040  21.518  0.00  0.00    +0.000 A 
ATOM     11  C   UNL     1      -2.649  12.868  22.441  0.00  0.00    +0.000 A 
ATOM     12  C   UNL     1      -2.975  12.666  23.769  0.00  0.00    +0.000 A 
ATOM     13  C   UNL     1      -4.317  12.611  24.157  0.00  0.00    +0.000 A 
ATOM     14  C   UNL     1      -5.375  12.770  23.236  0.00  0.00    +0.000 A 
ATOM     15  C   UNL     1      -6.772  12.656  23.785  0.00  0.00    +0.000 C 
BRANCH   9  21
ATOM     16  C   UNL     1      -7.855  15.486  18.530  0.00  0.00    +0.000 C 
ATOM     17  C   UNL     1      -7.360  14.335  19.324  0.00  0.00    +0.000 A 
ATOM     18  N   UNL     1      -7.719  13.079  19.209  0.00  0.00    +0.000 NA
ATOM     19  C   UNL     1      -6.978  12.385  20.148  0.00  0.00    +0.000 A 
ATOM     20  C   UNL     1      -7.193  10.925  20.267  0.00  0.00    +0.000 C 
ATOM     21  C   UNL     1      -6.107  13.233  20.835  0.00  0.00    +0.000 A 
ATOM     22  N   UNL     1      -6.430  14.474  20.320  0.00  0.00    +0.000 N 
ATOM     23  H   UNL     1      -6.052  15.358  20.620  0.00  0.00    +0.000 HD
ENDBRANCH   9  21
ENDBRANCH   1  11
BRANCH   6  24
ATOM     24  C   UNL     1       1.384   9.340  18.783  0.00  0.00    +0.000 A 
ATOM     25  C   UNL     1       2.095   8.616  17.825  0.00  0.00    +0.000 A 
ATOM     26  C   UNL     1       2.623   7.349  18.133  0.00  0.00    +0.000 A 
ATOM     27  C   UNL     1       2.459   6.780  19.411  0.00  0.00    +0.000 A 
ATOM     28  C   UNL     1       1.799   7.517  20.389  0.00  0.00    +0.000 A 
ATOM     29  C   UNL     1       1.295   8.786  20.086  0.00  0.00    +0.000 A 
BRANCH  27  30
ATOM     30  C   UNL     1       2.938   5.461  19.696  0.00  0.00    +0.000 C 
ATOM     31  N   UNL     1       3.344   4.397  19.926  0.00  0.00    +0.000 NA
ENDBRANCH  27  30
ENDBRANCH   6  24
TORSDOF 4
ENDMDL
MODEL 8
REMARK VINA RESULT:      -7.8      2.839     10.778
REMARK  Name = 
REMARK  7 active torsions:
REMARK  status: ('A' for Active; 'I' for Inactive)
REMARK    1  A    between atoms: C_1  and  C_2
REMARK    2  A    between atoms: C_4  and  C_5
REMARK    3  A    between atoms: C_6  and  C_7
REMARK    4  A    between atoms: C_9  and  C_10
REMARK    5  A    between atoms: C_15  and  C_16
REMARK    6  A    between atoms: C_19  and  C_20
REMARK    7  A    between atoms: C_28  and  C_29
REMARK                            x       y       z     vdW  Elec       q    Type
REMARK                         _______ _______ _______ _____ _____    ______ ____
ROOT
ATOM      1  C   UNL     1      -0.181  12.466  20.983  0.00  0.00    +0.000 C 
ATOM      2  O   UNL     1       0.712  13.180  21.465  0.00  0.00    +0.000 OA
ATOM      3  N   UNL     1       0.134  11.641  19.867  0.00  0.00    +0.000 N 
ATOM      4  C   UNL     1       1.543  11.723  19.552  0.00  0.00    +0.000 C 
ATOM      5  C   UNL     1       2.155  10.935  18.420  0.00  0.00    +0.000 C 
ATOM      6  C   UNL     1       1.411   9.727  17.861  0.00  0.00    +0.000 C 
ATOM      7  C   UNL     1      -0.112   9.897  17.972  0.00  0.00    +0.000 C 
ATOM      8  C   UNL     1      -0.701  10.665  19.173  0.00  0.00    +0.000 C 
ENDROOT
BRANCH   1  11
ATOM      9  C   UNL     1      -3.889  13.257  21.410  0.00  0.00    +0.000 A 
ATOM     10  C   UNL     1      -2.572  13.121  20.924  0.00  0.00    +0.000 A 
ATOM     11  C   UNL     1      -1.497  12.592  21.688  0.00  0.00    +0.000 A 
ATOM     12  C   UNL     1      -1.766  12.195  22.984  0.00  0.00    +0.000 A 
ATOM     13  C   UNL     1      -3.065  12.297  23.490  0.00  0.00    +0.000 A 
ATOM     14  C   UNL     1      -4.133  12.810  22.724  0.00  0.00    +0.000 A 
ATOM     15  C   UNL     1      -5.487  12.833  23.382  0.00  0.00    +0.000 C 
BRANCH   9  21
ATOM     16  C   UNL     1      -7.138  13.605  17.619  0.00  0.00    +0.000 C 
ATOM     17  C   UNL     1      -6.392  14.017  18.832  0.00  0.00    +0.000 A 
ATOM     18  N   UNL     1      -6.560  15.113  19.532  0.00  0.00    +0.000 NA
ATOM     19  C   UNL     1      -5.649  15.044  20.571  0.00  0.00    +0.000 A 
ATOM     20  C   UNL     1      -5.591  16.174  21.526  0.00  0.00    +0.000 C 
ATOM     21  C   UNL     1      -4.925  13.851  20.532  0.00  0.00    +0.000 A 
ATOM     22  N   UNL     1      -5.389  13.257  19.374  0.00  0.00    +0.000 N 
ATOM     23  H   UNL     1      -5.052  12.399  18.971  0.00  0.00    +0.000 HD
ENDBRANCH   9  21
ENDBRANCH   1  11
BRANCH   6  24
ATOM     24  C   UNL     1       2.116   8.428  18.268  0.00  0.00    +0.000 A 
ATOM     25  C   UNL     1       3.031   7.741  17.470  0.00  0.00    +0.000 A 
ATOM     26  C   UNL     1       3.565   6.509  17.891  0.00  0.00    +0.000 A 
ATOM     27  C   UNL     1       3.200   5.939  19.126  0.00  0.00    +0.000 A 
ATOM     28  C   UNL     1       2.330   6.642  19.955  0.00  0.00    +0.000 A 
ATOM     29  C   UNL     1       1.820   7.878  19.543  0.00  0.00    +0.000 A 
BRANCH  27  30
ATOM     30  C   UNL     1       3.692   4.652  19.517  0.00  0.00    +0.000 C 
ATOM     31  N   UNL     1       4.085   3.602  19.819  0.00  0.00    +0.000 NA
ENDBRANCH  27  30
ENDBRANCH   6  24
TORSDOF 4
ENDMDL
MODEL 9
REMARK VINA RESULT:      -7.7      1.548      2.142
REMARK  Name = 
REMARK  7 active torsions:
REMARK  status: ('A' for Active; 'I' for Inactive)
REMARK    1  A    between atoms: C_1  and  C_2
REMARK    2  A    between atoms: C_4  and  C_5
REMARK    3  A    between atoms: C_6  and  C_7
REMARK    4  A    between atoms: C_9  and  C_10
REMARK    5  A    between atoms: C_15  and  C_16
REMARK    6  A    between atoms: C_19  and  C_20
REMARK    7  A    between atoms: C_28  and  C_29
REMARK                            x       y       z     vdW  Elec       q    Type
REMARK                         _______ _______ _______ _____ _____    ______ ____
ROOT
ATOM      1  C   UNL     1       1.425   9.153  19.139  0.00  0.00    +0.000 C 
ATOM      2  O   UNL     1       1.672   9.448  17.959  0.00  0.00    +0.000 OA
ATOM      3  N   UNL     1       0.825  10.136  19.976  0.00  0.00    +0.000 N 
ATOM      4  C   UNL     1       0.510  11.327  19.219  0.00  0.00    +0.000 C 
ATOM      5  C   UNL     1      -0.149  12.526  19.856  0.00  0.00    +0.000 C 
ATOM      6  C   UNL     1      -0.880  12.360  21.185  0.00  0.00    +0.000 C 
ATOM      7  C   UNL     1      -0.247  11.255  22.046  0.00  0.00    +0.000 C 
ATOM      8  C   UNL     1       0.370  10.021  21.358  0.00  0.00    +0.000 C 
ENDROOT
BRANCH   1  11
ATOM      9  C   UNL     1       3.153   5.769  18.790  0.00  0.00    +0.000 A 
ATOM     10  C   UNL     1       2.651   7.071  18.581  0.00  0.00    +0.000 A 
ATOM     11  C   UNL     1       1.809   7.751  19.502  0.00  0.00    +0.000 A 
ATOM     12  C   UNL     1       1.463   7.089  20.665  0.00  0.00    +0.000 A 
ATOM     13  C   UNL     1       1.961   5.806  20.912  0.00  0.00    +0.000 A 
ATOM     14  C   UNL     1       2.808   5.138  20.001  0.00  0.00    +0.000 A 
ATOM     15  C   UNL     1       3.296   3.774  20.409  0.00  0.00    +0.000 C 
BRANCH   9  21
ATOM     16  C   UNL     1       7.078   5.118  15.753  0.00  0.00    +0.000 C 
ATOM     17  C   UNL     1       5.761   4.841  16.376  0.00  0.00    +0.000 A 
ATOM     18  N   UNL     1       4.987   3.805  16.166  0.00  0.00    +0.000 NA
ATOM     19  C   UNL     1       3.883   3.984  16.979  0.00  0.00    +0.000 A 
ATOM     20  C   UNL     1       2.809   2.965  16.934  0.00  0.00    +0.000 C 
ATOM     21  C   UNL     1       4.000   5.146  17.745  0.00  0.00    +0.000 A 
ATOM     22  N   UNL     1       5.182   5.690  17.282  0.00  0.00    +0.000 N 
ATOM     23  H   UNL     1       5.574   6.577  17.555  0.00  0.00    +0.000 HD
ENDBRANCH   9  21
ENDBRANCH   1  11
BRANCH   6  24
ATOM     24  C   UNL     1      -2.396  12.465  20.980  0.00  0.00    +0.000 A 
ATOM     25  C   UNL     1      -3.034  12.377  19.743  0.00  0.00    +0.000 A 
ATOM     26  C   UNL     1      -4.425  12.570  19.641  0.00  0.00    +0.000 A 
ATOM     27  C   UNL     1      -5.209  12.849  20.777  0.00  0.00    +0.000 A 
ATOM     28  C   UNL     1      -4.590  12.884  22.022  0.00  0.00    +0.000 A 
ATOM     29  C   UNL     1      -3.211  12.669  22.123  0.00  0.00    +0.000 A 
BRANCH  27  30
ATOM     30  C   UNL     1      -6.611  13.114  20.656  0.00  0.00    +0.000 C 
ATOM     31  N   UNL     1      -7.746  13.334  20.540  0.00  0.00    +0.000 NA
ENDBRANCH  27  30
ENDBRANCH   6  24
TORSDOF 4
ENDMDL
