MODEL 1
REMARK VINA RESULT:      -7.0      0.000      0.000
REMARK  Name = 
REMARK  12 active torsions:
REMARK  status: ('A' for Active; 'I' for Inactive)
REMARK    1  A    between atoms: C_1  and  C_2
REMARK    2  A    between atoms: C_2  and  N_3
REMARK    3  A    between atoms: C_4  and  C_6
REMARK    4  A    between atoms: C_9  and  C_10
REMARK    5  A    between atoms: C_12  and  C_13
REMARK    6  A    between atoms: C_13  and  C_14
REMARK    7  A    between atoms: C_13  and  C_15
REMARK    8  A    between atoms: C_16  and  O_17
REMARK    9  A    between atoms: C_19  and  O_20
REMARK   10  A    between atoms: C_21  and  C_22
REMARK   11  A    between atoms: C_25  and  C_26
REMARK   12  A    between atoms: C_26  and  N_27
REMARK                            x       y       z     vdW  Elec       q    Type
REMARK                         _______ _______ _______ _____ _____    ______ ____
ROOT
ATOM      1  C   UNL     1      -1.056  11.571  17.894  0.00  0.00    +0.000 A 
ATOM      2  N   UNL     1      -1.386  12.870  17.796  0.00  0.00    +0.000 NA
ATOM      3  O   UNL     1      -0.353  13.569  18.388  0.00  0.00    +0.000 OA
ATOM      4  C   UNL     1       0.606  12.712  18.846  0.00  0.00    +0.000 A 
ATOM      5  C   UNL     1       0.236  11.423  18.501  0.00  0.00    +0.000 A 
ENDROOT
BRANCH   4   6
ATOM      6  C   UNL     1       1.731  13.343  19.544  0.00  0.00    +0.000 A 
ATOM      7  C   UNL     1       2.643  14.150  18.833  0.00  0.00    +0.000 A 
ATOM      8  C   UNL     1       3.797  14.707  19.431  0.00  0.00    +0.000 A 
ATOM      9  C   UNL     1       4.010  14.433  20.790  0.00  0.00    +0.000 A 
ATOM     10  C   UNL     1       3.110  13.657  21.523  0.00  0.00    +0.000 A 
ATOM     11  C   UNL     1       1.985  13.115  20.903  0.00  0.00    +0.000 A 
BRANCH   8  12
ATOM     12  C   UNL     1       4.794  15.493  18.585  0.00  0.00    +0.000 C 
ATOM     13  C   UNL     1       5.745  14.535  17.858  0.00  0.00    +0.000 C 
ATOM     14  C   UNL     1       4.158  16.458  17.575  0.00  0.00    +0.000 C 
ENDBRANCH   8  12
BRANCH   9  15
ATOM     15  O   UNL     1       5.093  14.869  21.499  0.00  0.00    +0.000 OA
ATOM     16  H   UNL     1       5.863  14.961  20.920  0.00  0.00    +0.000 HD
ENDBRANCH   9  15
BRANCH  11  17
ATOM     17  O   UNL     1       1.146  12.321  21.640  0.00  0.00    +0.000 OA
ATOM     18  H   UNL     1       1.664  11.637  22.095  0.00  0.00    +0.000 HD
ENDBRANCH  11  17
ENDBRANCH   4   6
BRANCH   5  19
ATOM     19  C   UNL     1       0.987  10.204  18.759  0.00  0.00    +0.000 A 
ATOM     20  C   UNL     1       0.862   9.491  19.956  0.00  0.00    +0.000 A 
ATOM     21  C   UNL     1       1.521   8.262  20.123  0.00  0.00    +0.000 A 
ATOM     22  C   UNL     1       2.293   7.716  19.088  0.00  0.00    +0.000 A 
ATOM     23  C   UNL     1       2.455   8.465  17.914  0.00  0.00    +0.000 A 
ATOM     24  C   UNL     1       1.823   9.697  17.759  0.00  0.00    +0.000 A 
BRANCH  22  25
ATOM     25  C   UNL     1       2.984   6.376  19.219  0.00  0.00    +0.000 C 
BRANCH  25  26
ATOM     26  N   UNL     1       2.178   5.155  19.241  0.00  0.00    +0.000 NA
ATOM     27  C   UNL     1       2.509   4.136  20.244  0.00  0.00    +0.000 C 
ATOM     28  C   UNL     1       3.490   3.048  19.767  0.00  0.00    +0.000 C 
ATOM     29  O   UNL     1       3.063   2.459  18.530  0.00  0.00    +0.000 OA
ATOM     30  C   UNL     1       2.910   3.461  17.518  0.00  0.00    +0.000 C 
ATOM     31  C   UNL     1       1.899   4.533  17.944  0.00  0.00    +0.000 C 
ENDBRANCH  25  26
ENDBRANCH  22  25
ENDBRANCH   5  19
BRANCH   1  33
ATOM     32  N   UNL     1      -2.263  10.547  16.079  0.00  0.00    +0.000 N 
ATOM     33  C   UNL     1      -1.975  10.520  17.431  0.00  0.00    +0.000 C 
ATOM     34  O   UNL     1      -2.466   9.675  18.174  0.00  0.00    +0.000 OA
ATOM     35  H   UNL     1      -1.877  11.314  15.537  0.00  0.00    +0.000 HD
BRANCH  32  37
ATOM     36  C   UNL     1      -3.559   9.996  14.062  0.00  0.00    +0.000 C 
ATOM     37  C   UNL     1      -3.183   9.605  15.481  0.00  0.00    +0.000 C 
ENDBRANCH  32  37
ENDBRANCH   1  33
TORSDOF 9
ENDMDL
MODEL 2
REMARK VINA RESULT:      -7.0      2.137      6.023
REMARK  Name = 
REMARK  12 active torsions:
REMARK  status: ('A' for Active; 'I' for Inactive)
REMARK    1  A    between atoms: C_1  and  C_2
REMARK    2  A    between atoms: C_2  and  N_3
REMARK    3  A    between atoms: C_4  and  C_6
REMARK    4  A    between atoms: C_9  and  C_10
REMARK    5  A    between atoms: C_12  and  C_13
REMARK    6  A    between atoms: C_13  and  C_14
REMARK    7  A    between atoms: C_13  and  C_15
REMARK    8  A    between atoms: C_16  and  O_17
REMARK    9  A    between atoms: C_19  and  O_20
REMARK   10  A    between atoms: C_21  and  C_22
REMARK   11  A    between atoms: C_25  and  C_26
REMARK   12  A    between atoms: C_26  and  N_27
REMARK                            x       y       z     vdW  Elec       q    Type
REMARK                         _______ _______ _______ _____ _____    ______ ____
ROOT
ATOM      1  C   UNL     1       1.098  13.850  20.244  0.00  0.00    +0.000 A 
ATOM      2  N   UNL     1       0.250  14.881  20.400  0.00  0.00    +0.000 NA
ATOM      3  O   UNL     1      -1.003  14.390  20.092  0.00  0.00    +0.000 OA
ATOM      4  C   UNL     1      -0.931  13.069  19.751  0.00  0.00    +0.000 A 
ATOM      5  C   UNL     1       0.383  12.656  19.892  0.00  0.00    +0.000 A 
ENDROOT
BRANCH   4   6
ATOM      6  C   UNL     1      -2.201  12.454  19.351  0.00  0.00    +0.000 A 
ATOM      7  C   UNL     1      -2.249  11.588  18.239  0.00  0.00    +0.000 A 
ATOM      8  C   UNL     1      -3.457  11.040  17.750  0.00  0.00    +0.000 A 
ATOM      9  C   UNL     1      -4.637  11.386  18.425  0.00  0.00    +0.000 A 
ATOM     10  C   UNL     1      -4.615  12.221  19.543  0.00  0.00    +0.000 A 
ATOM     11  C   UNL     1      -3.408  12.753  19.997  0.00  0.00    +0.000 A 
BRANCH   8  12
ATOM     12  C   UNL     1      -3.453  10.186  16.485  0.00  0.00    +0.000 C 
ATOM     13  C   UNL     1      -3.853  11.032  15.271  0.00  0.00    +0.000 C 
ATOM     14  C   UNL     1      -2.127   9.467  16.201  0.00  0.00    +0.000 C 
ENDBRANCH   8  12
BRANCH   9  15
ATOM     15  O   UNL     1      -5.883  10.966  18.053  0.00  0.00    +0.000 OA
ATOM     16  H   UNL     1      -6.562  11.528  18.452  0.00  0.00    +0.000 HD
ENDBRANCH   9  15
BRANCH  11  17
ATOM     17  O   UNL     1      -3.427  13.606  21.069  0.00  0.00    +0.000 OA
ATOM     18  H   UNL     1      -2.731  13.351  21.697  0.00  0.00    +0.000 HD
ENDBRANCH  11  17
ENDBRANCH   4   6
BRANCH   5  19
ATOM     19  C   UNL     1       0.901  11.316  19.670  0.00  0.00    +0.000 A 
ATOM     20  C   UNL     1       0.761  10.295  20.616  0.00  0.00    +0.000 A 
ATOM     21  C   UNL     1       1.179   8.988  20.318  0.00  0.00    +0.000 A 
ATOM     22  C   UNL     1       1.719   8.675  19.063  0.00  0.00    +0.000 A 
ATOM     23  C   UNL     1       1.905   9.717  18.143  0.00  0.00    +0.000 A 
ATOM     24  C   UNL     1       1.516  11.020  18.448  0.00  0.00    +0.000 A 
BRANCH  22  25
ATOM     25  C   UNL     1       2.142   7.271  18.694  0.00  0.00    +0.000 C 
BRANCH  25  26
ATOM     26  N   UNL     1       2.744   6.414  19.716  0.00  0.00    +0.000 NA
ATOM     27  C   UNL     1       3.962   5.677  19.360  0.00  0.00    +0.000 C 
ATOM     28  C   UNL     1       3.726   4.253  18.820  0.00  0.00    +0.000 C 
ATOM     29  O   UNL     1       2.880   3.491  19.694  0.00  0.00    +0.000 OA
ATOM     30  C   UNL     1       1.627   4.156  19.891  0.00  0.00    +0.000 C 
ATOM     31  C   UNL     1       1.826   5.560  20.475  0.00  0.00    +0.000 C 
ENDBRANCH  25  26
ENDBRANCH  22  25
ENDBRANCH   5  19
BRANCH   1  33
ATOM     32  N   UNL     1       3.146  14.874  19.496  0.00  0.00    +0.000 N 
ATOM     33  C   UNL     1       2.548  14.031  20.415  0.00  0.00    +0.000 C 
ATOM     34  O   UNL     1       3.199  13.480  21.298  0.00  0.00    +0.000 OA
ATOM     35  H   UNL     1       2.560  15.240  18.753  0.00  0.00    +0.000 HD
BRANCH  32  37
ATOM     36  C   UNL     1       5.223  14.763  18.184  0.00  0.00    +0.000 C 
ATOM     37  C   UNL     1       4.571  15.119  19.508  0.00  0.00    +0.000 C 
ENDBRANCH  32  37
ENDBRANCH   1  33
TORSDOF 9
ENDMDL
MODEL 3
REMARK VINA RESULT:      -6.9      0.900      1.236
REMARK  Name = 
REMARK  12 active torsions:
REMARK  status: ('A' for Active; 'I' for Inactive)
REMARK    1  A    between atoms: C_1  and  C_2
REMARK    2  A    between atoms: C_2  and  N_3
REMARK    3  A    between atoms: C_4  and  C_6
REMARK    4  A    between atoms: C_9  and  C_10
REMARK    5  A    between atoms: C_12  and  C_13
REMARK    6  A    between atoms: C_13  and  C_14
REMARK    7  A    between atoms: C_13  and  C_15
REMARK    8  A    between atoms: C_16  and  O_17
REMARK    9  A    between atoms: C_19  and  O_20
REMARK   10  A    between atoms: C_21  and  C_22
REMARK   11  A    between atoms: C_25  and  C_26
REMARK   12  A    between atoms: C_26  and  N_27
REMARK                            x       y       z     vdW  Elec       q    Type
REMARK                         _______ _______ _______ _____ _____    ______ ____
ROOT
ATOM      1  C   UNL     1      -0.900  12.103  18.018  0.00  0.00    +0.000 A 
ATOM      2  N   UNL     1      -1.101  13.424  17.868  0.00  0.00    +0.000 NA
ATOM      3  O   UNL     1       0.028  14.038  18.373  0.00  0.00    +0.000 OA
ATOM      4  C   UNL     1       0.918  13.108  18.828  0.00  0.00    +0.000 A 
ATOM      5  C   UNL     1       0.401  11.850  18.568  0.00  0.00    +0.000 A 
ENDROOT
BRANCH   4   6
ATOM      6  C   UNL     1       2.137  13.650  19.438  0.00  0.00    +0.000 A 
ATOM      7  C   UNL     1       3.114  14.274  18.635  0.00  0.00    +0.000 A 
ATOM      8  C   UNL     1       4.348  14.730  19.151  0.00  0.00    +0.000 A 
ATOM      9  C   UNL     1       4.576  14.547  20.523  0.00  0.00    +0.000 A 
ATOM     10  C   UNL     1       3.616  13.955  21.345  0.00  0.00    +0.000 A 
ATOM     11  C   UNL     1       2.411  13.508  20.805  0.00  0.00    +0.000 A 
BRANCH   8  12
ATOM     12  C   UNL     1       5.403  15.310  18.213  0.00  0.00    +0.000 C 
ATOM     13  C   UNL     1       5.850  16.691  18.705  0.00  0.00    +0.000 C 
ATOM     14  C   UNL     1       6.630  14.415  17.995  0.00  0.00    +0.000 C 
ENDBRANCH   8  12
BRANCH   9  15
ATOM     15  O   UNL     1       5.730  14.903  21.162  0.00  0.00    +0.000 OA
ATOM     16  H   UNL     1       5.876  14.341  21.936  0.00  0.00    +0.000 HD
ENDBRANCH   9  15
BRANCH  11  17
ATOM     17  O   UNL     1       1.508  12.890  21.631  0.00  0.00    +0.000 OA
ATOM     18  H   UNL     1       0.969  13.561  22.081  0.00  0.00    +0.000 HD
ENDBRANCH  11  17
ENDBRANCH   4   6
BRANCH   5  19
ATOM     19  C   UNL     1       1.037  10.573  18.853  0.00  0.00    +0.000 A 
ATOM     20  C   UNL     1       0.873   9.915  20.076  0.00  0.00    +0.000 A 
ATOM     21  C   UNL     1       1.414   8.633  20.272  0.00  0.00    +0.000 A 
ATOM     22  C   UNL     1       2.104   7.981  19.240  0.00  0.00    +0.000 A 
ATOM     23  C   UNL     1       2.308   8.672  18.038  0.00  0.00    +0.000 A 
ATOM     24  C   UNL     1       1.795   9.955  17.853  0.00  0.00    +0.000 A 
BRANCH  22  25
ATOM     25  C   UNL     1       2.664   6.585  19.403  0.00  0.00    +0.000 C 
BRANCH  25  26
ATOM     26  N   UNL     1       3.047   5.825  18.213  0.00  0.00    +0.000 NA
ATOM     27  C   UNL     1       2.239   4.650  17.864  0.00  0.00    +0.000 C 
ATOM     28  C   UNL     1       2.752   3.315  18.439  0.00  0.00    +0.000 C 
ATOM     29  O   UNL     1       4.142   3.113  18.143  0.00  0.00    +0.000 OA
ATOM     30  C   UNL     1       4.929   4.199  18.646  0.00  0.00    +0.000 C 
ATOM     31  C   UNL     1       4.474   5.538  18.052  0.00  0.00    +0.000 C 
ENDBRANCH  25  26
ENDBRANCH  22  25
ENDBRANCH   5  19
BRANCH   1  33
ATOM     32  N   UNL     1      -2.682  11.461  16.531  0.00  0.00    +0.000 N 
ATOM     33  C   UNL     1      -1.944  11.134  17.654  0.00  0.00    +0.000 C 
ATOM     34  O   UNL     1      -2.165  10.107  18.289  0.00  0.00    +0.000 OA
ATOM     35  H   UNL     1      -2.491  12.357  16.095  0.00  0.00    +0.000 HD
BRANCH  32  37
ATOM     36  C   UNL     1      -3.537  10.104  14.666  0.00  0.00    +0.000 C 
ATOM     37  C   UNL     1      -3.772  10.629  16.072  0.00  0.00    +0.000 C 
ENDBRANCH  32  37
ENDBRANCH   1  33
TORSDOF 9
ENDMDL
MODEL 4
REMARK VINA RESULT:      -6.8      3.916      8.335
REMARK  Name = 
REMARK  12 active torsions:
REMARK  status: ('A' for Active; 'I' for Inactive)
REMARK    1  A    between atoms: C_1  and  C_2
REMARK    2  A    between atoms: C_2  and  N_3
REMARK    3  A    between atoms: C_4  and  C_6
REMARK    4  A    between atoms: C_9  and  C_10
REMARK    5  A    between atoms: C_12  and  C_13
REMARK    6  A    between atoms: C_13  and  C_14
REMARK    7  A    between atoms: C_13  and  C_15
REMARK    8  A    between atoms: C_16  and  O_17
REMARK    9  A    between atoms: C_19  and  O_20
REMARK   10  A    between atoms: C_21  and  C_22
REMARK   11  A    between atoms: C_25  and  C_26
REMARK   12  A    between atoms: C_26  and  N_27
REMARK                            x       y       z     vdW  Elec       q    Type
REMARK                         _______ _______ _______ _____ _____    ______ ____
ROOT
ATOM      1  C   UNL     1      -0.384  10.685  22.331  0.00  0.00    +0.000 A 
ATOM      2  N   UNL     1       0.641  10.194  23.050  0.00  0.00    +0.000 NA
ATOM      3  O   UNL     1       1.363   9.397  22.185  0.00  0.00    +0.000 OA
ATOM      4  C   UNL     1       0.792   9.395  20.944  0.00  0.00    +0.000 A 
ATOM      5  C   UNL     1      -0.294  10.253  20.965  0.00  0.00    +0.000 A 
ENDROOT
BRANCH   4   6
ATOM      6  C   UNL     1       1.447   8.535  19.952  0.00  0.00    +0.000 A 
ATOM      7  C   UNL     1       1.605   7.157  20.205  0.00  0.00    +0.000 A 
ATOM      8  C   UNL     1       2.310   6.297  19.331  0.00  0.00    +0.000 A 
ATOM      9  C   UNL     1       2.854   6.868  18.171  0.00  0.00    +0.000 A 
ATOM     10  C   UNL     1       2.691   8.224  17.885  0.00  0.00    +0.000 A 
ATOM     11  C   UNL     1       1.998   9.049  18.770  0.00  0.00    +0.000 A 
BRANCH   8  12
ATOM     12  C   UNL     1       2.528   4.834  19.708  0.00  0.00    +0.000 C 
ATOM     13  C   UNL     1       2.236   4.620  21.197  0.00  0.00    +0.000 C 
ATOM     14  C   UNL     1       1.722   3.830  18.873  0.00  0.00    +0.000 C 
ENDBRANCH   8  12
BRANCH   9  15
ATOM     15  O   UNL     1       3.588   6.176  17.249  0.00  0.00    +0.000 OA
ATOM     16  H   UNL     1       3.026   5.554  16.766  0.00  0.00    +0.000 HD
ENDBRANCH   9  15
BRANCH  11  17
ATOM     17  O   UNL     1       1.894  10.385  18.482  0.00  0.00    +0.000 OA
ATOM     18  H   UNL     1       2.554  10.622  17.810  0.00  0.00    +0.000 HD
ENDBRANCH  11  17
ENDBRANCH   4   6
BRANCH   5  19
ATOM     19  C   UNL     1      -1.166  10.581  19.848  0.00  0.00    +0.000 A 
ATOM     20  C   UNL     1      -1.557   9.627  18.902  0.00  0.00    +0.000 A 
ATOM     21  C   UNL     1      -2.486   9.957  17.902  0.00  0.00    +0.000 A 
ATOM     22  C   UNL     1      -3.057  11.237  17.847  0.00  0.00    +0.000 A 
ATOM     23  C   UNL     1      -2.617  12.199  18.767  0.00  0.00    +0.000 A 
ATOM     24  C   UNL     1      -1.675  11.880  19.742  0.00  0.00    +0.000 A 
BRANCH  22  25
ATOM     25  C   UNL     1      -4.089  11.614  16.809  0.00  0.00    +0.000 C 
BRANCH  25  26
ATOM     26  N   UNL     1      -5.509  11.551  17.155  0.00  0.00    +0.000 NA
ATOM     27  C   UNL     1      -6.286  12.795  17.088  0.00  0.00    +0.000 C 
ATOM     28  C   UNL     1      -6.369  13.581  18.410  0.00  0.00    +0.000 C 
ATOM     29  O   UNL     1      -6.797  12.745  19.495  0.00  0.00    +0.000 OA
ATOM     30  C   UNL     1      -5.919  11.623  19.645  0.00  0.00    +0.000 C 
ATOM     31  C   UNL     1      -5.854  10.790  18.359  0.00  0.00    +0.000 C 
ENDBRANCH  25  26
ENDBRANCH  22  25
ENDBRANCH   5  19
BRANCH   1  33
ATOM     32  N   UNL     1      -1.135  12.878  22.982  0.00  0.00    +0.000 N 
ATOM     33  C   UNL     1      -1.414  11.524  22.960  0.00  0.00    +0.000 C 
ATOM     34  O   UNL     1      -2.451  11.076  23.442  0.00  0.00    +0.000 OA
ATOM     35  H   UNL     1      -0.230  13.171  22.628  0.00  0.00    +0.000 HD
BRANCH  32  37
ATOM     36  C   UNL     1      -2.958  14.484  22.595  0.00  0.00    +0.000 C 
ATOM     37  C   UNL     1      -2.032  13.827  23.604  0.00  0.00    +0.000 C 
ENDBRANCH  32  37
ENDBRANCH   1  33
TORSDOF 9
ENDMDL
MODEL 5
REMARK VINA RESULT:      -6.8      1.516      2.395
REMARK  Name = 
REMARK  12 active torsions:
REMARK  status: ('A' for Active; 'I' for Inactive)
REMARK    1  A    between atoms: C_1  and  C_2
REMARK    2  A    between atoms: C_2  and  N_3
REMARK    3  A    between atoms: C_4  and  C_6
REMARK    4  A    between atoms: C_9  and  C_10
REMARK    5  A    between atoms: C_12  and  C_13
REMARK    6  A    between atoms: C_13  and  C_14
REMARK    7  A    between atoms: C_13  and  C_15
REMARK    8  A    between atoms: C_16  and  O_17
REMARK    9  A    between atoms: C_19  and  O_20
REMARK   10  A    between atoms: C_21  and  C_22
REMARK   11  A    between atoms: C_25  and  C_26
REMARK   12  A    between atoms: C_26  and  N_27
REMARK                            x       y       z     vdW  Elec       q    Type
REMARK                         _______ _______ _______ _____ _____    ______ ____
ROOT
ATOM      1  C   UNL     1      -0.647  12.627  18.421  0.00  0.00    +0.000 A 
ATOM      2  N   UNL     1      -0.727  13.963  18.290  0.00  0.00    +0.000 NA
ATOM      3  O   UNL     1       0.516  14.453  18.638  0.00  0.00    +0.000 OA
ATOM      4  C   UNL     1       1.356  13.432  18.979  0.00  0.00    +0.000 A 
ATOM      5  C   UNL     1       0.682  12.236  18.798  0.00  0.00    +0.000 A 
ENDROOT
BRANCH   4   6
ATOM      6  C   UNL     1       2.694  13.840  19.420  0.00  0.00    +0.000 A 
ATOM      7  C   UNL     1       3.045  13.763  20.784  0.00  0.00    +0.000 A 
ATOM      8  C   UNL     1       4.283  14.230  21.281  0.00  0.00    +0.000 A 
ATOM      9  C   UNL     1       5.181  14.778  20.353  0.00  0.00    +0.000 A 
ATOM     10  C   UNL     1       4.869  14.843  18.994  0.00  0.00    +0.000 A 
ATOM     11  C   UNL     1       3.636  14.382  18.535  0.00  0.00    +0.000 A 
BRANCH   8  12
ATOM     12  C   UNL     1       4.564  14.206  22.781  0.00  0.00    +0.000 C 
ATOM     13  C   UNL     1       5.784  13.327  23.079  0.00  0.00    +0.000 C 
ATOM     14  C   UNL     1       4.752  15.588  23.420  0.00  0.00    +0.000 C 
ENDBRANCH   8  12
BRANCH   9  15
ATOM     15  O   UNL     1       6.400  15.300  20.682  0.00  0.00    +0.000 OA
ATOM     16  H   UNL     1       7.109  14.803  20.251  0.00  0.00    +0.000 HD
ENDBRANCH   9  15
BRANCH  11  17
ATOM     17  O   UNL     1       3.343  14.502  17.201  0.00  0.00    +0.000 OA
ATOM     18  H   UNL     1       3.601  15.386  16.892  0.00  0.00    +0.000 HD
ENDBRANCH  11  17
ENDBRANCH   4   6
BRANCH   5  19
ATOM     19  C   UNL     1       1.212  10.898  19.006  0.00  0.00    +0.000 A 
ATOM     20  C   UNL     1       0.973  10.175  20.179  0.00  0.00    +0.000 A 
ATOM     21  C   UNL     1       1.412   8.845  20.296  0.00  0.00    +0.000 A 
ATOM     22  C   UNL     1       2.072   8.212  19.234  0.00  0.00    +0.000 A 
ATOM     23  C   UNL     1       2.354   8.963  18.085  0.00  0.00    +0.000 A 
ATOM     24  C   UNL     1       1.943  10.291  17.979  0.00  0.00    +0.000 A 
BRANCH  22  25
ATOM     25  C   UNL     1       2.522   6.770  19.311  0.00  0.00    +0.000 C 
BRANCH  25  26
ATOM     26  N   UNL     1       2.729   6.018  18.073  0.00  0.00    +0.000 NA
ATOM     27  C   UNL     1       1.911   4.819  17.856  0.00  0.00    +0.000 C 
ATOM     28  C   UNL     1       2.549   3.501  18.337  0.00  0.00    +0.000 C 
ATOM     29  O   UNL     1       3.878   3.339  17.821  0.00  0.00    +0.000 OA
ATOM     30  C   UNL     1       4.704   4.449  18.192  0.00  0.00    +0.000 C 
ATOM     31  C   UNL     1       4.120   5.773  17.683  0.00  0.00    +0.000 C 
ENDBRANCH  25  26
ENDBRANCH  22  25
ENDBRANCH   5  19
BRANCH   1  33
ATOM     32  N   UNL     1      -2.404  11.880  16.953  0.00  0.00    +0.000 N 
ATOM     33  C   UNL     1      -1.825  11.775  18.205  0.00  0.00    +0.000 C 
ATOM     34  O   UNL     1      -2.282  11.022  19.060  0.00  0.00    +0.000 OA
ATOM     35  H   UNL     1      -2.016  12.572  16.320  0.00  0.00    +0.000 HD
BRANCH  32  37
ATOM     36  C   UNL     1      -3.388  10.277  15.368  0.00  0.00    +0.000 C 
ATOM     37  C   UNL     1      -3.594  11.137  16.603  0.00  0.00    +0.000 C 
ENDBRANCH  32  37
ENDBRANCH   1  33
TORSDOF 9
ENDMDL
MODEL 6
REMARK VINA RESULT:      -6.7      2.566      6.287
REMARK  Name = 
REMARK  12 active torsions:
REMARK  status: ('A' for Active; 'I' for Inactive)
REMARK    1  A    between atoms: C_1  and  C_2
REMARK    2  A    between atoms: C_2  and  N_3
REMARK    3  A    between atoms: C_4  and  C_6
REMARK    4  A    between atoms: C_9  and  C_10
REMARK    5  A    between atoms: C_12  and  C_13
REMARK    6  A    between atoms: C_13  and  C_14
REMARK    7  A    between atoms: C_13  and  C_15
REMARK    8  A    between atoms: C_16  and  O_17
REMARK    9  A    between atoms: C_19  and  O_20
REMARK   10  A    between atoms: C_21  and  C_22
REMARK   11  A    between atoms: C_25  and  C_26
REMARK   12  A    between atoms: C_26  and  N_27
REMARK                            x       y       z     vdW  Elec       q    Type
REMARK                         _______ _______ _______ _____ _____    ______ ____
ROOT
ATOM      1  C   UNL     1       1.152  13.670  19.191  0.00  0.00    +0.000 A 
ATOM      2  N   UNL     1       0.392  14.779  19.158  0.00  0.00    +0.000 NA
ATOM      3  O   UNL     1      -0.910  14.342  19.024  0.00  0.00    +0.000 OA
ATOM      4  C   UNL     1      -0.957  12.977  18.977  0.00  0.00    +0.000 A 
ATOM      5  C   UNL     1       0.331  12.494  19.142  0.00  0.00    +0.000 A 
ENDROOT
BRANCH   4   6
ATOM      6  C   UNL     1      -2.291  12.400  18.782  0.00  0.00    +0.000 A 
ATOM      7  C   UNL     1      -3.313  12.646  19.722  0.00  0.00    +0.000 A 
ATOM      8  C   UNL     1      -4.588  12.041  19.638  0.00  0.00    +0.000 A 
ATOM      9  C   UNL     1      -4.816  11.174  18.560  0.00  0.00    +0.000 A 
ATOM     10  C   UNL     1      -3.830  10.933  17.602  0.00  0.00    +0.000 A 
ATOM     11  C   UNL     1      -2.579  11.537  17.716  0.00  0.00    +0.000 A 
BRANCH   8  12
ATOM     12  C   UNL     1      -5.620  12.274  20.738  0.00  0.00    +0.000 C 
ATOM     13  C   UNL     1      -4.933  12.780  22.012  0.00  0.00    +0.000 C 
ATOM     14  C   UNL     1      -6.764  13.222  20.355  0.00  0.00    +0.000 C 
ENDBRANCH   8  12
BRANCH   9  15
ATOM     15  O   UNL     1      -5.982  10.490  18.360  0.00  0.00    +0.000 OA
ATOM     16  H   UNL     1      -6.709  10.912  18.839  0.00  0.00    +0.000 HD
ENDBRANCH   9  15
BRANCH  11  17
ATOM     17  O   UNL     1      -1.618  11.243  16.784  0.00  0.00    +0.000 OA
ATOM     18  H   UNL     1      -2.031  11.157  15.910  0.00  0.00    +0.000 HD
ENDBRANCH  11  17
ENDBRANCH   4   6
BRANCH   5  19
ATOM     19  C   UNL     1       0.735  11.098  19.194  0.00  0.00    +0.000 A 
ATOM     20  C   UNL     1       1.404  10.476  18.135  0.00  0.00    +0.000 A 
ATOM     21  C   UNL     1       1.874   9.158  18.268  0.00  0.00    +0.000 A 
ATOM     22  C   UNL     1       1.705   8.454  19.468  0.00  0.00    +0.000 A 
ATOM     23  C   UNL     1       0.986   9.068  20.503  0.00  0.00    +0.000 A 
ATOM     24  C   UNL     1       0.496  10.365  20.362  0.00  0.00    +0.000 A 
BRANCH  22  25
ATOM     25  C   UNL     1       2.233   7.049  19.659  0.00  0.00    +0.000 C 
BRANCH  25  26
ATOM     26  N   UNL     1       2.672   6.285  18.491  0.00  0.00    +0.000 NA
ATOM     27  C   UNL     1       2.060   4.970  18.265  0.00  0.00    +0.000 C 
ATOM     28  C   UNL     1       2.827   3.782  18.879  0.00  0.00    +0.000 C 
ATOM     29  O   UNL     1       4.212   3.797  18.503  0.00  0.00    +0.000 OA
ATOM     30  C   UNL     1       4.827   5.032  18.888  0.00  0.00    +0.000 C 
ATOM     31  C   UNL     1       4.116   6.232  18.251  0.00  0.00    +0.000 C 
ENDBRANCH  25  26
ENDBRANCH  22  25
ENDBRANCH   5  19
BRANCH   1  33
ATOM     32  N   UNL     1       3.228  14.171  18.077  0.00  0.00    +0.000 N 
ATOM     33  C   UNL     1       2.618  13.761  19.249  0.00  0.00    +0.000 C 
ATOM     34  O   UNL     1       3.274  13.492  20.252  0.00  0.00    +0.000 OA
ATOM     35  H   UNL     1       2.631  14.311  17.268  0.00  0.00    +0.000 HD
BRANCH  32  37
ATOM     36  C   UNL     1       5.174  15.656  18.315  0.00  0.00    +0.000 C 
ATOM     37  C   UNL     1       4.666  14.269  17.965  0.00  0.00    +0.000 C 
ENDBRANCH  32  37
ENDBRANCH   1  33
TORSDOF 9
ENDMDL
MODEL 7
REMARK VINA RESULT:      -6.6      3.579      9.653
REMARK  Name = 
REMARK  12 active torsions:
REMARK  status: ('A' for Active; 'I' for Inactive)
REMARK    1  A    between atoms: C_1  and  C_2
REMARK    2  A    between atoms: C_2  and  N_3
REMARK    3  A    between atoms: C_4  and  C_6
REMARK    4  A    between atoms: C_9  and  C_10
REMARK    5  A    between atoms: C_12  and  C_13
REMARK    6  A    between atoms: C_13  and  C_14
REMARK    7  A    between atoms: C_13  and  C_15
REMARK    8  A    between atoms: C_16  and  O_17
REMARK    9  A    between atoms: C_19  and  O_20
REMARK   10  A    between atoms: C_21  and  C_22
REMARK   11  A    between atoms: C_25  and  C_26
REMARK   12  A    between atoms: C_26  and  N_27
REMARK                            x       y       z     vdW  Elec       q    Type
REMARK                         _______ _______ _______ _____ _____    ______ ____
ROOT
ATOM      1  C   UNL     1       2.941   2.919  18.417  0.00  0.00    +0.000 A 
ATOM      2  N   UNL     1       3.543   1.799  17.981  0.00  0.00    +0.000 NA
ATOM      3  O   UNL     1       4.499   2.212  17.074  0.00  0.00    +0.000 OA
ATOM      4  C   UNL     1       4.490   3.572  16.952  0.00  0.00    +0.000 A 
ATOM      5  C   UNL     1       3.553   4.080  17.837  0.00  0.00    +0.000 A 
ENDROOT
BRANCH   4   6
ATOM      6  C   UNL     1       5.431   4.122  15.972  0.00  0.00    +0.000 A 
ATOM      7  C   UNL     1       5.279   3.827  14.601  0.00  0.00    +0.000 A 
ATOM      8  C   UNL     1       6.208   4.249  13.622  0.00  0.00    +0.000 A 
ATOM      9  C   UNL     1       7.309   4.996  14.063  0.00  0.00    +0.000 A 
ATOM     10  C   UNL     1       7.471   5.324  15.411  0.00  0.00    +0.000 A 
ATOM     11  C   UNL     1       6.542   4.886  16.355  0.00  0.00    +0.000 A 
BRANCH   8  12
ATOM     12  C   UNL     1       6.037   3.816  12.168  0.00  0.00    +0.000 C 
ATOM     13  C   UNL     1       6.997   2.668  11.840  0.00  0.00    +0.000 C 
ATOM     14  C   UNL     1       4.605   3.423  11.780  0.00  0.00    +0.000 C 
ENDBRANCH   8  12
BRANCH   9  15
ATOM     15  O   UNL     1       8.307   5.446  13.246  0.00  0.00    +0.000 OA
ATOM     16  H   UNL     1       8.279   4.989  12.394  0.00  0.00    +0.000 HD
ENDBRANCH   9  15
BRANCH  11  17
ATOM     17  O   UNL     1       6.755   5.185  17.675  0.00  0.00    +0.000 OA
ATOM     18  H   UNL     1       7.039   4.386  18.146  0.00  0.00    +0.000 HD
ENDBRANCH  11  17
ENDBRANCH   4   6
BRANCH   5  19
ATOM     19  C   UNL     1       3.242   5.483  18.063  0.00  0.00    +0.000 A 
ATOM     20  C   UNL     1       3.572   6.479  17.139  0.00  0.00    +0.000 A 
ATOM     21  C   UNL     1       3.158   7.805  17.344  0.00  0.00    +0.000 A 
ATOM     22  C   UNL     1       2.386   8.150  18.463  0.00  0.00    +0.000 A 
ATOM     23  C   UNL     1       2.108   7.155  19.409  0.00  0.00    +0.000 A 
ATOM     24  C   UNL     1       2.542   5.844  19.220  0.00  0.00    +0.000 A 
BRANCH  22  25
ATOM     25  C   UNL     1       1.889   9.560  18.695  0.00  0.00    +0.000 C 
BRANCH  25  26
ATOM     26  N   UNL     1       0.657   9.768  19.456  0.00  0.00    +0.000 NA
ATOM     27  C   UNL     1      -0.510  10.293  18.736  0.00  0.00    +0.000 C 
ATOM     28  C   UNL     1      -0.658  11.827  18.770  0.00  0.00    +0.000 C 
ATOM     29  O   UNL     1      -0.586  12.334  20.111  0.00  0.00    +0.000 OA
ATOM     30  C   UNL     1       0.644  11.945  20.734  0.00  0.00    +0.000 C 
ATOM     31  C   UNL     1       0.797  10.419  20.760  0.00  0.00    +0.000 C 
ENDBRANCH  25  26
ENDBRANCH  22  25
ENDBRANCH   5  19
BRANCH   1  33
ATOM     32  N   UNL     1       2.124   3.047  20.679  0.00  0.00    +0.000 N 
ATOM     33  C   UNL     1       1.805   2.852  19.348  0.00  0.00    +0.000 C 
ATOM     34  O   UNL     1       0.650   2.634  18.991  0.00  0.00    +0.000 OA
ATOM     35  H   UNL     1       3.106   3.153  20.910  0.00  0.00    +0.000 HD
BRANCH  32  37
ATOM     36  C   UNL     1       1.356   1.795  22.652  0.00  0.00    +0.000 C 
ATOM     37  C   UNL     1       1.121   2.969  21.718  0.00  0.00    +0.000 C 
ENDBRANCH  32  37
ENDBRANCH   1  33
TORSDOF 9
ENDMDL
MODEL 8
REMARK VINA RESULT:      -6.6      2.151      6.108
REMARK  Name = 
REMARK  12 active torsions:
REMARK  status: ('A' for Active; 'I' for Inactive)
REMARK    1  A    between atoms: C_1  and  C_2
REMARK    2  A    between atoms: C_2  and  N_3
REMARK    3  A    between atoms: C_4  and  C_6
REMARK    4  A    between atoms: C_9  and  C_10
REMARK    5  A    between atoms: C_12  and  C_13
REMARK    6  A    between atoms: C_13  and  C_14
REMARK    7  A    between atoms: C_13  and  C_15
REMARK    8  A    between atoms: C_16  and  O_17
REMARK    9  A    between atoms: C_19  and  O_20
REMARK   10  A    between atoms: C_21  and  C_22
REMARK   11  A    between atoms: C_25  and  C_26
REMARK   12  A    between atoms: C_26  and  N_27
REMARK                            x       y       z     vdW  Elec       q    Type
REMARK                         _______ _______ _______ _____ _____    ______ ____
ROOT
ATOM      1  C   UNL     1       1.125  13.794  20.252  0.00  0.00    +0.000 A 
ATOM      2  N   UNL     1       0.323  14.870  20.170  0.00  0.00    +0.000 NA
ATOM      3  O   UNL     1      -0.928  14.386  19.846  0.00  0.00    +0.000 OA
ATOM      4  C   UNL     1      -0.902  13.026  19.731  0.00  0.00    +0.000 A 
ATOM      5  C   UNL     1       0.375  12.589  20.041  0.00  0.00    +0.000 A 
ENDROOT
BRANCH   4   6
ATOM      6  C   UNL     1      -2.170  12.404  19.335  0.00  0.00    +0.000 A 
ATOM      7  C   UNL     1      -2.218  11.541  18.220  0.00  0.00    +0.000 A 
ATOM      8  C   UNL     1      -3.425  10.988  17.734  0.00  0.00    +0.000 A 
ATOM      9  C   UNL     1      -4.603  11.324  18.416  0.00  0.00    +0.000 A 
ATOM     10  C   UNL     1      -4.581  12.156  19.537  0.00  0.00    +0.000 A 
ATOM     11  C   UNL     1      -3.376  12.693  19.987  0.00  0.00    +0.000 A 
BRANCH   8  12
ATOM     12  C   UNL     1      -3.422  10.138  16.467  0.00  0.00    +0.000 C 
ATOM     13  C   UNL     1      -3.738  11.007  15.244  0.00  0.00    +0.000 C 
ATOM     14  C   UNL     1      -2.126   9.353  16.224  0.00  0.00    +0.000 C 
ENDBRANCH   8  12
BRANCH   9  15
ATOM     15  O   UNL     1      -5.849  10.898  18.049  0.00  0.00    +0.000 OA
ATOM     16  H   UNL     1      -5.800  10.357  17.249  0.00  0.00    +0.000 HD
ENDBRANCH   9  15
BRANCH  11  17
ATOM     17  O   UNL     1      -3.394  13.542  21.063  0.00  0.00    +0.000 OA
ATOM     18  H   UNL     1      -2.983  13.106  21.826  0.00  0.00    +0.000 HD
ENDBRANCH  11  17
ENDBRANCH   4   6
BRANCH   5  19
ATOM     19  C   UNL     1       0.837  11.210  20.082  0.00  0.00    +0.000 A 
ATOM     20  C   UNL     1       0.829  10.455  21.260  0.00  0.00    +0.000 A 
ATOM     21  C   UNL     1       1.180   9.096  21.234  0.00  0.00    +0.000 A 
ATOM     22  C   UNL     1       1.519   8.465  20.029  0.00  0.00    +0.000 A 
ATOM     23  C   UNL     1       1.576   9.244  18.865  0.00  0.00    +0.000 A 
ATOM     24  C   UNL     1       1.254  10.600  18.894  0.00  0.00    +0.000 A 
BRANCH  22  25
ATOM     25  C   UNL     1       1.864   6.993  19.959  0.00  0.00    +0.000 C 
BRANCH  25  26
ATOM     26  N   UNL     1       2.482   6.460  18.744  0.00  0.00    +0.000 NA
ATOM     27  C   UNL     1       1.888   5.260  18.145  0.00  0.00    +0.000 C 
ATOM     28  C   UNL     1       2.506   3.927  18.610  0.00  0.00    +0.000 C 
ATOM     29  O   UNL     1       3.935   3.935  18.481  0.00  0.00    +0.000 OA
ATOM     30  C   UNL     1       4.504   5.024  19.218  0.00  0.00    +0.000 C 
ATOM     31  C   UNL     1       3.944   6.371  18.742  0.00  0.00    +0.000 C 
ENDBRANCH  25  26
ENDBRANCH  22  25
ENDBRANCH   5  19
BRANCH   1  33
ATOM     32  N   UNL     1       3.249  14.710  19.582  0.00  0.00    +0.000 N 
ATOM     33  C   UNL     1       2.565  13.943  20.508  0.00  0.00    +0.000 C 
ATOM     34  O   UNL     1       3.140  13.429  21.463  0.00  0.00    +0.000 OA
ATOM     35  H   UNL     1       2.725  15.048  18.782  0.00  0.00    +0.000 HD
BRANCH  32  37
ATOM     36  C   UNL     1       5.047  16.387  19.665  0.00  0.00    +0.000 C 
ATOM     37  C   UNL     1       4.678  14.914  19.674  0.00  0.00    +0.000 C 
ENDBRANCH  32  37
ENDBRANCH   1  33
TORSDOF 9
ENDMDL
MODEL 9
REMARK VINA RESULT:      -6.6      2.350      6.213
REMARK  Name = 
REMARK  12 active torsions:
REMARK  status: ('A' for Active; 'I' for Inactive)
REMARK    1  A    between atoms: C_1  and  C_2
REMARK    2  A    between atoms: C_2  and  N_3
REMARK    3  A    between atoms: C_4  and  C_6
REMARK    4  A    between atoms: C_9  and  C_10
REMARK    5  A    between atoms: C_12  and  C_13
REMARK    6  A    between atoms: C_13  and  C_14
REMARK    7  A    between atoms: C_13  and  C_15
REMARK    8  A    between atoms: C_16  and  O_17
REMARK    9  A    between atoms: C_19  and  O_20
REMARK   10  A    between atoms: C_21  and  C_22
REMARK   11  A    between atoms: C_25  and  C_26
REMARK   12  A    between atoms: C_26  and  N_27
REMARK                            x       y       z     vdW  Elec       q    Type
REMARK                         _______ _______ _______ _____ _____    ______ ____
ROOT
ATOM      1  C   UNL     1       1.400  13.864  20.076  0.00  0.00    +0.000 A 
ATOM      2  N   UNL     1       0.602  14.912  20.343  0.00  0.00    +0.000 NA
ATOM      3  O   UNL     1      -0.690  14.461  20.156  0.00  0.00    +0.000 OA
ATOM      4  C   UNL     1      -0.691  13.149  19.778  0.00  0.00    +0.000 A 
ATOM      5  C   UNL     1       0.619  12.699  19.772  0.00  0.00    +0.000 A 
ENDROOT
BRANCH   4   6
ATOM      6  C   UNL     1      -2.011  12.576  19.498  0.00  0.00    +0.000 A 
ATOM      7  C   UNL     1      -2.185  11.694  18.411  0.00  0.00    +0.000 A 
ATOM      8  C   UNL     1      -3.449  11.186  18.035  0.00  0.00    +0.000 A 
ATOM      9  C   UNL     1      -4.554  11.588  18.799  0.00  0.00    +0.000 A 
ATOM     10  C   UNL     1      -4.408  12.441  19.895  0.00  0.00    +0.000 A 
ATOM     11  C   UNL     1      -3.148  12.932  20.236  0.00  0.00    +0.000 A 
BRANCH   8  12
ATOM     12  C   UNL     1      -3.584  10.311  16.793  0.00  0.00    +0.000 C 
ATOM     13  C   UNL     1      -3.926  11.171  15.571  0.00  0.00    +0.000 C 
ATOM     14  C   UNL     1      -2.358   9.440  16.486  0.00  0.00    +0.000 C 
ENDBRANCH   8  12
BRANCH   9  15
ATOM     15  O   UNL     1      -5.842  11.210  18.542  0.00  0.00    +0.000 OA
ATOM     16  H   UNL     1      -6.079  11.416  17.626  0.00  0.00    +0.000 HD
ENDBRANCH   9  15
BRANCH  11  17
ATOM     17  O   UNL     1      -3.045  13.803  21.289  0.00  0.00    +0.000 OA
ATOM     18  H   UNL     1      -3.709  13.579  21.961  0.00  0.00    +0.000 HD
ENDBRANCH  11  17
ENDBRANCH   4   6
BRANCH   5  19
ATOM     19  C   UNL     1       1.074  11.352  19.465  0.00  0.00    +0.000 A 
ATOM     20  C   UNL     1       0.905  10.287  20.356  0.00  0.00    +0.000 A 
ATOM     21  C   UNL     1       1.260   8.982  19.978  0.00  0.00    +0.000 A 
ATOM     22  C   UNL     1       1.765   8.718  18.697  0.00  0.00    +0.000 A 
ATOM     23  C   UNL     1       1.981   9.801  17.833  0.00  0.00    +0.000 A 
ATOM     24  C   UNL     1       1.655  11.100  18.217  0.00  0.00    +0.000 A 
BRANCH  22  25
ATOM     25  C   UNL     1       2.120   7.319  18.242  0.00  0.00    +0.000 C 
BRANCH  25  26
ATOM     26  N   UNL     1       3.386   6.727  18.674  0.00  0.00    +0.000 NA
ATOM     27  C   UNL     1       4.376   6.403  17.641  0.00  0.00    +0.000 C 
ATOM     28  C   UNL     1       4.304   4.962  17.098  0.00  0.00    +0.000 C 
ATOM     29  O   UNL     1       4.308   3.998  18.161  0.00  0.00    +0.000 OA
ATOM     30  C   UNL     1       3.225   4.238  19.067  0.00  0.00    +0.000 C 
ATOM     31  C   UNL     1       3.299   5.649  19.663  0.00  0.00    +0.000 C 
ENDBRANCH  25  26
ENDBRANCH  22  25
ENDBRANCH   5  19
BRANCH   1  33
ATOM     32  N   UNL     1       3.412  14.229  21.349  0.00  0.00    +0.000 N 
ATOM     33  C   UNL     1       2.863  14.005  20.099  0.00  0.00    +0.000 C 
ATOM     34  O   UNL     1       3.566  13.937  19.094  0.00  0.00    +0.000 OA
ATOM     35  H   UNL     1       2.767  14.342  22.124  0.00  0.00    +0.000 HD
BRANCH  32  37
ATOM     36  C   UNL     1       5.321  13.896  22.864  0.00  0.00    +0.000 C 
ATOM     37  C   UNL     1       4.832  14.429  21.529  0.00  0.00    +0.000 C 
ENDBRANCH  32  37
ENDBRANCH   1  33
TORSDOF 9
ENDMDL
