MODEL 1
REMARK VINA RESULT:      -7.3      0.000      0.000
REMARK  Name = 
REMARK  9 active torsions:
REMARK  status: ('A' for Active; 'I' for Inactive)
REMARK    1  A    between atoms: C_1  and  O_2
REMARK    2  A    between atoms: O_2  and  C_3
REMARK    3  A    between atoms: C_6  and  C_7
REMARK    4  A    between atoms: C_8  and  C_9
REMARK    5  A    between atoms: C_9  and  C_11
REMARK    6  A    between atoms: C_14  and  C_15
REMARK    7  A    between atoms: C_18  and  O_19
REMARK    8  A    between atoms: C_30  and  O_31
REMARK    9  A    between atoms: O_31  and  C_32
REMARK                            x       y       z     vdW  Elec       q    Type
REMARK                         _______ _______ _______ _____ _____    ______ ____
ROOT
ATOM      1  C   UNL     1      -0.247  11.688  20.017  0.00  0.00    +0.000 C 
ATOM      2  C   UNL     1      -1.576  12.338  19.781  0.00  0.00    +0.000 C 
ATOM      3  C   UNL     1      -2.216  11.809  18.724  0.00  0.00    +0.000 C 
ATOM      4  C   UNL     1      -1.371  10.706  18.199  0.00  0.00    +0.000 C 
ATOM      5  O   UNL     1      -1.643  10.007  17.240  0.00  0.00    +0.000 OA
ATOM      6  N   UNL     1      -0.281  10.634  19.041  0.00  0.00    +0.000 N 
ATOM      7  C   UNL     1       0.668   9.614  19.027  0.00  0.00    +0.000 A 
ATOM      8  C   UNL     1       1.421   9.407  17.878  0.00  0.00    +0.000 A 
ATOM      9  C   UNL     1       2.414   8.434  17.897  0.00  0.00    +0.000 A 
ATOM     10  C   UNL     1       2.577   7.653  19.034  0.00  0.00    +0.000 A 
ATOM     11  C   UNL     1       1.775   7.923  20.131  0.00  0.00    +0.000 A 
ATOM     12  N   UNL     1       0.864   8.922  20.172  0.00  0.00    +0.000 NA
ENDROOT
BRANCH   1  16
ATOM     13  C   UNL     1       3.274  14.136  19.280  0.00  0.00    +0.000 A 
ATOM     14  C   UNL     1       2.459  13.726  18.216  0.00  0.00    +0.000 A 
ATOM     15  C   UNL     1       1.304  12.978  18.441  0.00  0.00    +0.000 A 
ATOM     16  C   UNL     1       0.944  12.595  19.739  0.00  0.00    +0.000 A 
ATOM     17  C   UNL     1       1.806  12.943  20.790  0.00  0.00    +0.000 A 
ATOM     18  C   UNL     1       2.971  13.699  20.578  0.00  0.00    +0.000 A 
BRANCH  13  20
ATOM     19  C   UNL     1       5.086  14.668  17.857  0.00  0.00    +0.000 C 
ATOM     20  O   UNL     1       4.370  14.926  19.064  0.00  0.00    +0.000 OA
ENDBRANCH  13  20
BRANCH  18  21
ATOM     21  O   UNL     1       3.656  13.914  21.744  0.00  0.00    +0.000 OA
ATOM     22  C   UNL     1       3.564  15.179  22.377  0.00  0.00    +0.000 C 
ENDBRANCH  18  21
ENDBRANCH   1  16
BRANCH   2  23
ATOM     23  C   UNL     1      -2.139  13.517  20.470  0.00  0.00    +0.000 C 
ATOM     24  O   UNL     1      -1.685  14.631  20.210  0.00  0.00    +0.000 OA
BRANCH  23  25
ATOM     25  C   UNL     1      -3.227  13.400  21.470  0.00  0.00    +0.000 A 
ATOM     26  C   UNL     1      -4.523  13.786  21.096  0.00  0.00    +0.000 A 
ATOM     27  C   UNL     1      -5.599  13.588  21.966  0.00  0.00    +0.000 A 
ATOM     28  C   UNL     1      -5.394  13.019  23.227  0.00  0.00    +0.000 A 
ATOM     29  C   UNL     1      -6.539  12.712  24.145  0.00  0.00    +0.000 C 
ATOM     30  C   UNL     1      -4.099  12.650  23.602  0.00  0.00    +0.000 A 
ATOM     31  C   UNL     1      -3.028  12.813  22.720  0.00  0.00    +0.000 A 
ENDBRANCH  23  25
ENDBRANCH   2  23
BRANCH   3  32
ATOM     32  O   UNL     1      -3.408  12.187  18.171  0.00  0.00    +0.000 OA
ATOM     33  H   UNL     1      -3.209  12.612  17.309  0.00  0.00    +0.000 HD
ENDBRANCH   3  32
TORSDOF 6
ENDMDL
MODEL 2
REMARK VINA RESULT:      -7.2      5.733     10.816
REMARK  Name = 
REMARK  9 active torsions:
REMARK  status: ('A' for Active; 'I' for Inactive)
REMARK    1  A    between atoms: C_1  and  O_2
REMARK    2  A    between atoms: O_2  and  C_3
REMARK    3  A    between atoms: C_6  and  C_7
REMARK    4  A    between atoms: C_8  and  C_9
REMARK    5  A    between atoms: C_9  and  C_11
REMARK    6  A    between atoms: C_14  and  C_15
REMARK    7  A    between atoms: C_18  and  O_19
REMARK    8  A    between atoms: C_30  and  O_31
REMARK    9  A    between atoms: O_31  and  C_32
REMARK                            x       y       z     vdW  Elec       q    Type
REMARK                         _______ _______ _______ _____ _____    ______ ____
ROOT
ATOM      1  C   UNL     1       3.815   4.897  17.539  0.00  0.00    +0.000 C 
ATOM      2  C   UNL     1       5.283   4.981  17.258  0.00  0.00    +0.000 C 
ATOM      3  C   UNL     1       6.015   4.379  18.211  0.00  0.00    +0.000 C 
ATOM      4  C   UNL     1       5.069   3.786  19.190  0.00  0.00    +0.000 C 
ATOM      5  O   UNL     1       5.386   3.165  20.188  0.00  0.00    +0.000 OA
ATOM      6  N   UNL     1       3.806   4.052  18.701  0.00  0.00    +0.000 N 
ATOM      7  C   UNL     1       2.627   3.511  19.208  0.00  0.00    +0.000 A 
ATOM      8  C   UNL     1       2.275   3.772  20.527  0.00  0.00    +0.000 A 
ATOM      9  C   UNL     1       1.063   3.287  21.004  0.00  0.00    +0.000 A 
ATOM     10  C   UNL     1       0.274   2.500  20.174  0.00  0.00    +0.000 A 
ATOM     11  C   UNL     1       0.708   2.283  18.876  0.00  0.00    +0.000 A 
ATOM     12  N   UNL     1       1.837   2.817  18.358  0.00  0.00    +0.000 NA
ENDROOT
BRANCH   1  16
ATOM     13  C   UNL     1       2.093   8.729  18.673  0.00  0.00    +0.000 A 
ATOM     14  C   UNL     1       2.827   8.604  17.485  0.00  0.00    +0.000 A 
ATOM     15  C   UNL     1       3.348   7.373  17.088  0.00  0.00    +0.000 A 
ATOM     16  C   UNL     1       3.171   6.234  17.883  0.00  0.00    +0.000 A 
ATOM     17  C   UNL     1       2.502   6.383  19.106  0.00  0.00    +0.000 A 
ATOM     18  C   UNL     1       1.969   7.616  19.518  0.00  0.00    +0.000 A 
BRANCH  13  20
ATOM     19  C   UNL     1       0.200  10.141  18.548  0.00  0.00    +0.000 C 
ATOM     20  O   UNL     1       1.526   9.923  19.028  0.00  0.00    +0.000 OA
ENDBRANCH  13  20
BRANCH  18  21
ATOM     21  O   UNL     1       1.366   7.525  20.743  0.00  0.00    +0.000 OA
ATOM     22  C   UNL     1       1.547   8.572  21.682  0.00  0.00    +0.000 C 
ENDBRANCH  18  21
ENDBRANCH   1  16
BRANCH   2  23
ATOM     23  C   UNL     1       5.954   5.736  16.180  0.00  0.00    +0.000 C 
ATOM     24  O   UNL     1       6.315   6.892  16.399  0.00  0.00    +0.000 OA
BRANCH  23  25
ATOM     25  C   UNL     1       6.198   5.148  14.841  0.00  0.00    +0.000 A 
ATOM     26  C   UNL     1       7.384   5.483  14.171  0.00  0.00    +0.000 A 
ATOM     27  C   UNL     1       7.710   4.867  12.958  0.00  0.00    +0.000 A 
ATOM     28  C   UNL     1       6.847   3.923  12.391  0.00  0.00    +0.000 A 
ATOM     29  C   UNL     1       7.212   3.181  11.139  0.00  0.00    +0.000 C 
ATOM     30  C   UNL     1       5.660   3.604  13.055  0.00  0.00    +0.000 A 
ATOM     31  C   UNL     1       5.350   4.191  14.283  0.00  0.00    +0.000 A 
ENDBRANCH  23  25
ENDBRANCH   2  23
BRANCH   3  32
ATOM     32  O   UNL     1       7.375   4.313  18.328  0.00  0.00    +0.000 OA
ATOM     33  H   UNL     1       7.689   3.615  17.713  0.00  0.00    +0.000 HD
ENDBRANCH   3  32
TORSDOF 6
ENDMDL
MODEL 3
REMARK VINA RESULT:      -7.0      1.661      2.633
REMARK  Name = 
REMARK  9 active torsions:
REMARK  status: ('A' for Active; 'I' for Inactive)
REMARK    1  A    between atoms: C_1  and  O_2
REMARK    2  A    between atoms: O_2  and  C_3
REMARK    3  A    between atoms: C_6  and  C_7
REMARK    4  A    between atoms: C_8  and  C_9
REMARK    5  A    between atoms: C_9  and  C_11
REMARK    6  A    between atoms: C_14  and  C_15
REMARK    7  A    between atoms: C_18  and  O_19
REMARK    8  A    between atoms: C_30  and  O_31
REMARK    9  A    between atoms: O_31  and  C_32
REMARK                            x       y       z     vdW  Elec       q    Type
REMARK                         _______ _______ _______ _____ _____    ______ ____
ROOT
ATOM      1  C   UNL     1      -0.536  11.701  20.033  0.00  0.00    +0.000 C 
ATOM      2  C   UNL     1      -1.895  12.287  19.798  0.00  0.00    +0.000 C 
ATOM      3  C   UNL     1      -2.512  11.725  18.745  0.00  0.00    +0.000 C 
ATOM      4  C   UNL     1      -1.617  10.661  18.221  0.00  0.00    +0.000 C 
ATOM      5  O   UNL     1      -1.858   9.947  17.265  0.00  0.00    +0.000 OA
ATOM      6  N   UNL     1      -0.523  10.643  19.061  0.00  0.00    +0.000 N 
ATOM      7  C   UNL     1       0.473   9.669  19.049  0.00  0.00    +0.000 A 
ATOM      8  C   UNL     1       1.232   9.492  17.899  0.00  0.00    +0.000 A 
ATOM      9  C   UNL     1       2.270   8.567  17.918  0.00  0.00    +0.000 A 
ATOM     10  C   UNL     1       2.471   7.799  19.058  0.00  0.00    +0.000 A 
ATOM     11  C   UNL     1       1.660   8.035  20.155  0.00  0.00    +0.000 A 
ATOM     12  N   UNL     1       0.703   8.990  20.195  0.00  0.00    +0.000 NA
ENDROOT
BRANCH   1  16
ATOM     13  C   UNL     1       2.865  14.297  19.240  0.00  0.00    +0.000 A 
ATOM     14  C   UNL     1       1.911  14.050  18.242  0.00  0.00    +0.000 A 
ATOM     15  C   UNL     1       0.794  13.255  18.495  0.00  0.00    +0.000 A 
ATOM     16  C   UNL     1       0.611  12.661  19.750  0.00  0.00    +0.000 A 
ATOM     17  C   UNL     1       1.608  12.850  20.718  0.00  0.00    +0.000 A 
ATOM     18  C   UNL     1       2.737  13.651  20.478  0.00  0.00    +0.000 A 
BRANCH  13  20
ATOM     19  C   UNL     1       4.941  14.612  18.153  0.00  0.00    +0.000 C 
ATOM     20  O   UNL     1       3.925  15.131  19.010  0.00  0.00    +0.000 OA
ENDBRANCH  13  20
BRANCH  18  21
ATOM     21  O   UNL     1       3.574  13.686  21.560  0.00  0.00    +0.000 OA
ATOM     22  C   UNL     1       3.778  14.915  22.238  0.00  0.00    +0.000 C 
ENDBRANCH  18  21
ENDBRANCH   1  16
BRANCH   2  23
ATOM     23  C   UNL     1      -2.511  13.440  20.485  0.00  0.00    +0.000 C 
ATOM     24  O   UNL     1      -3.735  13.559  20.467  0.00  0.00    +0.000 OA
BRANCH  23  25
ATOM     25  C   UNL     1      -1.699  14.465  21.186  0.00  0.00    +0.000 A 
ATOM     26  C   UNL     1      -1.341  14.232  22.522  0.00  0.00    +0.000 A 
ATOM     27  C   UNL     1      -0.485  15.114  23.189  0.00  0.00    +0.000 A 
ATOM     28  C   UNL     1       0.010  16.248  22.536  0.00  0.00    +0.000 A 
ATOM     29  C   UNL     1       1.001  17.162  23.194  0.00  0.00    +0.000 C 
ATOM     30  C   UNL     1      -0.362  16.483  21.209  0.00  0.00    +0.000 A 
ATOM     31  C   UNL     1      -1.187  15.585  20.531  0.00  0.00    +0.000 A 
ENDBRANCH  23  25
ENDBRANCH   2  23
BRANCH   3  32
ATOM     32  O   UNL     1      -3.721  12.045  18.194  0.00  0.00    +0.000 OA
ATOM     33  H   UNL     1      -3.973  11.310  17.594  0.00  0.00    +0.000 HD
ENDBRANCH   3  32
TORSDOF 6
ENDMDL
MODEL 4
REMARK VINA RESULT:      -7.0      5.226      9.395
REMARK  Name = 
REMARK  9 active torsions:
REMARK  status: ('A' for Active; 'I' for Inactive)
REMARK    1  A    between atoms: C_1  and  O_2
REMARK    2  A    between atoms: O_2  and  C_3
REMARK    3  A    between atoms: C_6  and  C_7
REMARK    4  A    between atoms: C_8  and  C_9
REMARK    5  A    between atoms: C_9  and  C_11
REMARK    6  A    between atoms: C_14  and  C_15
REMARK    7  A    between atoms: C_18  and  O_19
REMARK    8  A    between atoms: C_30  and  O_31
REMARK    9  A    between atoms: O_31  and  C_32
REMARK                            x       y       z     vdW  Elec       q    Type
REMARK                         _______ _______ _______ _____ _____    ______ ____
ROOT
ATOM      1  C   UNL     1       4.866   5.298  17.737  0.00  0.00    +0.000 C 
ATOM      2  C   UNL     1       4.382   4.249  16.785  0.00  0.00    +0.000 C 
ATOM      3  C   UNL     1       5.041   4.286  15.614  0.00  0.00    +0.000 C 
ATOM      4  C   UNL     1       6.076   5.347  15.720  0.00  0.00    +0.000 C 
ATOM      5  O   UNL     1       6.858   5.657  14.841  0.00  0.00    +0.000 OA
ATOM      6  N   UNL     1       5.975   5.842  17.004  0.00  0.00    +0.000 N 
ATOM      7  C   UNL     1       6.884   6.721  17.590  0.00  0.00    +0.000 A 
ATOM      8  C   UNL     1       7.079   7.973  17.020  0.00  0.00    +0.000 A 
ATOM      9  C   UNL     1       7.934   8.869  17.651  0.00  0.00    +0.000 A 
ATOM     10  C   UNL     1       8.620   8.464  18.789  0.00  0.00    +0.000 A 
ATOM     11  C   UNL     1       8.372   7.194  19.282  0.00  0.00    +0.000 A 
ATOM     12  N   UNL     1       7.479   6.335  18.741  0.00  0.00    +0.000 NA
ENDROOT
BRANCH   1  16
ATOM     13  C   UNL     1       2.077   8.504  18.675  0.00  0.00    +0.000 A 
ATOM     14  C   UNL     1       2.844   8.550  17.502  0.00  0.00    +0.000 A 
ATOM     15  C   UNL     1       3.710   7.510  17.167  0.00  0.00    +0.000 A 
ATOM     16  C   UNL     1       3.853   6.402  18.012  0.00  0.00    +0.000 A 
ATOM     17  C   UNL     1       3.140   6.399  19.220  0.00  0.00    +0.000 A 
ATOM     18  C   UNL     1       2.262   7.439  19.568  0.00  0.00    +0.000 A 
BRANCH  13  20
ATOM     19  C   UNL     1       1.582  10.816  18.613  0.00  0.00    +0.000 C 
ATOM     20  O   UNL     1       1.179   9.494  18.968  0.00  0.00    +0.000 OA
ENDBRANCH  13  20
BRANCH  18  21
ATOM     21  O   UNL     1       1.683   7.226  20.790  0.00  0.00    +0.000 OA
ATOM     22  C   UNL     1       1.461   8.330  21.652  0.00  0.00    +0.000 C 
ENDBRANCH  18  21
ENDBRANCH   1  16
BRANCH   2  23
ATOM     23  C   UNL     1       3.231   3.338  16.954  0.00  0.00    +0.000 C 
ATOM     24  O   UNL     1       2.722   2.830  15.955  0.00  0.00    +0.000 OA
BRANCH  23  25
ATOM     25  C   UNL     1       2.665   3.024  18.288  0.00  0.00    +0.000 A 
ATOM     26  C   UNL     1       3.541   2.622  19.307  0.00  0.00    +0.000 A 
ATOM     27  C   UNL     1       3.069   2.425  20.609  0.00  0.00    +0.000 A 
ATOM     28  C   UNL     1       1.715   2.608  20.905  0.00  0.00    +0.000 A 
ATOM     29  C   UNL     1       1.196   2.491  22.308  0.00  0.00    +0.000 C 
ATOM     30  C   UNL     1       0.843   2.993  19.883  0.00  0.00    +0.000 A 
ATOM     31  C   UNL     1       1.318   3.226  18.591  0.00  0.00    +0.000 A 
ENDBRANCH  23  25
ENDBRANCH   2  23
BRANCH   3  32
ATOM     32  O   UNL     1       4.831   3.535  14.492  0.00  0.00    +0.000 OA
ATOM     33  H   UNL     1       4.070   2.942  14.674  0.00  0.00    +0.000 HD
ENDBRANCH   3  32
TORSDOF 6
ENDMDL
MODEL 5
REMARK VINA RESULT:      -6.9      5.488      9.702
REMARK  Name = 
REMARK  9 active torsions:
REMARK  status: ('A' for Active; 'I' for Inactive)
REMARK    1  A    between atoms: C_1  and  O_2
REMARK    2  A    between atoms: O_2  and  C_3
REMARK    3  A    between atoms: C_6  and  C_7
REMARK    4  A    between atoms: C_8  and  C_9
REMARK    5  A    between atoms: C_9  and  C_11
REMARK    6  A    between atoms: C_14  and  C_15
REMARK    7  A    between atoms: C_18  and  O_19
REMARK    8  A    between atoms: C_30  and  O_31
REMARK    9  A    between atoms: O_31  and  C_32
REMARK                            x       y       z     vdW  Elec       q    Type
REMARK                         _______ _______ _______ _____ _____    ______ ____
ROOT
ATOM      1  C   UNL     1       5.437   5.179  18.029  0.00  0.00    +0.000 C 
ATOM      2  C   UNL     1       5.122   3.958  17.221  0.00  0.00    +0.000 C 
ATOM      3  C   UNL     1       5.818   3.919  16.072  0.00  0.00    +0.000 C 
ATOM      4  C   UNL     1       6.712   5.105  16.054  0.00  0.00    +0.000 C 
ATOM      5  O   UNL     1       7.486   5.389  15.158  0.00  0.00    +0.000 OA
ATOM      6  N   UNL     1       6.502   5.753  17.253  0.00  0.00    +0.000 N 
ATOM      7  C   UNL     1       7.274   6.809  17.732  0.00  0.00    +0.000 A 
ATOM      8  C   UNL     1       7.339   7.987  16.998  0.00  0.00    +0.000 A 
ATOM      9  C   UNL     1       8.054   9.060  17.518  0.00  0.00    +0.000 A 
ATOM     10  C   UNL     1       8.737   8.902  18.716  0.00  0.00    +0.000 A 
ATOM     11  C   UNL     1       8.625   7.690  19.376  0.00  0.00    +0.000 A 
ATOM     12  N   UNL     1       7.864   6.660  18.939  0.00  0.00    +0.000 NA
ENDROOT
BRANCH   1  16
ATOM     13  C   UNL     1       2.240   8.100  18.455  0.00  0.00    +0.000 A 
ATOM     14  C   UNL     1       3.097   8.141  17.346  0.00  0.00    +0.000 A 
ATOM     15  C   UNL     1       4.098   7.186  17.174  0.00  0.00    +0.000 A 
ATOM     16  C   UNL     1       4.289   6.175  18.124  0.00  0.00    +0.000 A 
ATOM     17  C   UNL     1       3.478   6.186  19.268  0.00  0.00    +0.000 A 
ATOM     18  C   UNL     1       2.463   7.140  19.453  0.00  0.00    +0.000 A 
BRANCH  13  20
ATOM     19  C   UNL     1       1.570  10.367  18.398  0.00  0.00    +0.000 C 
ATOM     20  O   UNL     1       1.216   8.998  18.588  0.00  0.00    +0.000 OA
ENDBRANCH  13  20
BRANCH  18  21
ATOM     21  O   UNL     1       1.807   6.959  20.640  0.00  0.00    +0.000 OA
ATOM     22  C   UNL     1       1.436   8.094  21.404  0.00  0.00    +0.000 C 
ENDBRANCH  18  21
ENDBRANCH   1  16
BRANCH   2  23
ATOM     23  C   UNL     1       4.083   2.943  17.489  0.00  0.00    +0.000 C 
ATOM     24  O   UNL     1       3.826   2.111  16.619  0.00  0.00    +0.000 OA
BRANCH  23  25
ATOM     25  C   UNL     1       3.336   2.899  18.769  0.00  0.00    +0.000 A 
ATOM     26  C   UNL     1       1.943   3.062  18.734  0.00  0.00    +0.000 A 
ATOM     27  C   UNL     1       1.184   2.916  19.899  0.00  0.00    +0.000 A 
ATOM     28  C   UNL     1       1.807   2.624  21.117  0.00  0.00    +0.000 A 
ATOM     29  C   UNL     1       1.013   2.374  22.364  0.00  0.00    +0.000 C 
ATOM     30  C   UNL     1       3.197   2.478  21.149  0.00  0.00    +0.000 A 
ATOM     31  C   UNL     1       3.953   2.587  19.980  0.00  0.00    +0.000 A 
ENDBRANCH  23  25
ENDBRANCH   2  23
BRANCH   3  32
ATOM     32  O   UNL     1       5.745   3.003  15.061  0.00  0.00    +0.000 OA
ATOM     33  H   UNL     1       6.664   2.738  14.839  0.00  0.00    +0.000 HD
ENDBRANCH   3  32
TORSDOF 6
ENDMDL
MODEL 6
REMARK VINA RESULT:      -6.9      5.909      9.394
REMARK  Name = 
REMARK  9 active torsions:
REMARK  status: ('A' for Active; 'I' for Inactive)
REMARK    1  A    between atoms: C_1  and  O_2
REMARK    2  A    between atoms: O_2  and  C_3
REMARK    3  A    between atoms: C_6  and  C_7
REMARK    4  A    between atoms: C_8  and  C_9
REMARK    5  A    between atoms: C_9  and  C_11
REMARK    6  A    between atoms: C_14  and  C_15
REMARK    7  A    between atoms: C_18  and  O_19
REMARK    8  A    between atoms: C_30  and  O_31
REMARK    9  A    between atoms: O_31  and  C_32
REMARK                            x       y       z     vdW  Elec       q    Type
REMARK                         _______ _______ _______ _____ _____    ______ ____
ROOT
ATOM      1  C   UNL     1       8.106  14.817  19.469  0.00  0.00    +0.000 C 
ATOM      2  C   UNL     1       7.549  16.134  19.022  0.00  0.00    +0.000 C 
ATOM      3  C   UNL     1       8.486  16.912  18.454  0.00  0.00    +0.000 C 
ATOM      4  C   UNL     1       9.752  16.134  18.426  0.00  0.00    +0.000 C 
ATOM      5  O   UNL     1      10.813  16.533  17.980  0.00  0.00    +0.000 OA
ATOM      6  N   UNL     1       9.446  14.898  18.956  0.00  0.00    +0.000 N 
ATOM      7  C   UNL     1      10.296  13.794  18.941  0.00  0.00    +0.000 A 
ATOM      8  C   UNL     1      11.521  13.875  19.591  0.00  0.00    +0.000 A 
ATOM      9  C   UNL     1      12.332  12.747  19.632  0.00  0.00    +0.000 A 
ATOM     10  C   UNL     1      11.928  11.597  18.966  0.00  0.00    +0.000 A 
ATOM     11  C   UNL     1      10.695  11.609  18.335  0.00  0.00    +0.000 A 
ATOM     12  N   UNL     1       9.846  12.662  18.356  0.00  0.00    +0.000 NA
ENDROOT
BRANCH   1  16
ATOM     13  C   UNL     1       8.369  14.178  23.765  0.00  0.00    +0.000 A 
ATOM     14  C   UNL     1       8.851  15.364  23.192  0.00  0.00    +0.000 A 
ATOM     15  C   UNL     1       8.735  15.600  21.822  0.00  0.00    +0.000 A 
ATOM     16  C   UNL     1       8.154  14.644  20.981  0.00  0.00    +0.000 A 
ATOM     17  C   UNL     1       7.744  13.430  21.550  0.00  0.00    +0.000 A 
ATOM     18  C   UNL     1       7.852  13.179  22.928  0.00  0.00    +0.000 A 
BRANCH  13  20
ATOM     19  C   UNL     1       8.645  15.146  25.905  0.00  0.00    +0.000 C 
ATOM     20  O   UNL     1       8.424  13.977  25.117  0.00  0.00    +0.000 OA
ENDBRANCH  13  20
BRANCH  18  21
ATOM     21  O   UNL     1       7.395  11.930  23.254  0.00  0.00    +0.000 OA
ATOM     22  C   UNL     1       6.100  11.792  23.814  0.00  0.00    +0.000 C 
ENDBRANCH  18  21
ENDBRANCH   1  16
BRANCH   2  23
ATOM     23  C   UNL     1       6.194  16.669  19.263  0.00  0.00    +0.000 C 
ATOM     24  O   UNL     1       6.053  17.881  19.426  0.00  0.00    +0.000 OA
BRANCH  23  25
ATOM     25  C   UNL     1       5.000  15.791  19.324  0.00  0.00    +0.000 A 
ATOM     26  C   UNL     1       4.441  15.341  18.119  0.00  0.00    +0.000 A 
ATOM     27  C   UNL     1       3.386  14.423  18.129  0.00  0.00    +0.000 A 
ATOM     28  C   UNL     1       2.864  13.958  19.340  0.00  0.00    +0.000 A 
ATOM     29  C   UNL     1       1.795  12.907  19.381  0.00  0.00    +0.000 C 
ATOM     30  C   UNL     1       3.415  14.421  20.538  0.00  0.00    +0.000 A 
ATOM     31  C   UNL     1       4.492  15.309  20.531  0.00  0.00    +0.000 A 
ENDBRANCH  23  25
ENDBRANCH   2  23
BRANCH   3  32
ATOM     32  O   UNL     1       8.368  18.193  17.993  0.00  0.00    +0.000 OA
ATOM     33  H   UNL     1       7.781  18.168  17.207  0.00  0.00    +0.000 HD
ENDBRANCH   3  32
TORSDOF 6
ENDMDL
MODEL 7
REMARK VINA RESULT:      -6.9      2.491      7.285
REMARK  Name = 
REMARK  9 active torsions:
REMARK  status: ('A' for Active; 'I' for Inactive)
REMARK    1  A    between atoms: C_1  and  O_2
REMARK    2  A    between atoms: O_2  and  C_3
REMARK    3  A    between atoms: C_6  and  C_7
REMARK    4  A    between atoms: C_8  and  C_9
REMARK    5  A    between atoms: C_9  and  C_11
REMARK    6  A    between atoms: C_14  and  C_15
REMARK    7  A    between atoms: C_18  and  O_19
REMARK    8  A    between atoms: C_30  and  O_31
REMARK    9  A    between atoms: O_31  and  C_32
REMARK                            x       y       z     vdW  Elec       q    Type
REMARK                         _______ _______ _______ _____ _____    ______ ____
ROOT
ATOM      1  C   UNL     1       0.102  12.771  20.479  0.00  0.00    +0.000 C 
ATOM      2  C   UNL     1      -0.246  12.234  19.125  0.00  0.00    +0.000 C 
ATOM      3  C   UNL     1      -0.449  13.215  18.229  0.00  0.00    +0.000 C 
ATOM      4  C   UNL     1      -0.191  14.506  18.917  0.00  0.00    +0.000 C 
ATOM      5  O   UNL     1      -0.282  15.606  18.406  0.00  0.00    +0.000 OA
ATOM      6  N   UNL     1       0.203  14.176  20.198  0.00  0.00    +0.000 N 
ATOM      7  C   UNL     1       0.725  15.076  21.125  0.00  0.00    +0.000 A 
ATOM      8  C   UNL     1      -0.054  16.150  21.538  0.00  0.00    +0.000 A 
ATOM      9  C   UNL     1       0.447  17.003  22.515  0.00  0.00    +0.000 A 
ATOM     10  C   UNL     1       1.733  16.798  22.998  0.00  0.00    +0.000 A 
ATOM     11  C   UNL     1       2.442  15.708  22.522  0.00  0.00    +0.000 A 
ATOM     12  N   UNL     1       1.946  14.811  21.640  0.00  0.00    +0.000 NA
ENDROOT
BRANCH   1  16
ATOM     13  C   UNL     1      -3.077  12.029  23.356  0.00  0.00    +0.000 A 
ATOM     14  C   UNL     1      -1.824  11.418  23.508  0.00  0.00    +0.000 A 
ATOM     15  C   UNL     1      -0.783  11.680  22.619  0.00  0.00    +0.000 A 
ATOM     16  C   UNL     1      -0.974  12.543  21.533  0.00  0.00    +0.000 A 
ATOM     17  C   UNL     1      -2.252  13.090  21.344  0.00  0.00    +0.000 A 
ATOM     18  C   UNL     1      -3.309  12.837  22.233  0.00  0.00    +0.000 A 
BRANCH  13  20
ATOM     19  C   UNL     1      -4.286  12.881  25.201  0.00  0.00    +0.000 C 
ATOM     20  O   UNL     1      -4.077  11.822  24.267  0.00  0.00    +0.000 OA
ENDBRANCH  13  20
BRANCH  18  21
ATOM     21  O   UNL     1      -4.460  13.469  21.847  0.00  0.00    +0.000 OA
ATOM     22  C   UNL     1      -5.439  12.742  21.125  0.00  0.00    +0.000 C 
ENDBRANCH  18  21
ENDBRANCH   1  16
BRANCH   2  23
ATOM     23  C   UNL     1      -0.506  10.829  18.752  0.00  0.00    +0.000 C 
ATOM     24  O   UNL     1      -1.612  10.527  18.302  0.00  0.00    +0.000 OA
BRANCH  23  25
ATOM     25  C   UNL     1       0.519   9.769  18.909  0.00  0.00    +0.000 A 
ATOM     26  C   UNL     1       0.678   9.176  20.170  0.00  0.00    +0.000 A 
ATOM     27  C   UNL     1       1.551   8.097  20.340  0.00  0.00    +0.000 A 
ATOM     28  C   UNL     1       2.290   7.608  19.257  0.00  0.00    +0.000 A 
ATOM     29  C   UNL     1       3.165   6.397  19.388  0.00  0.00    +0.000 C 
ATOM     30  C   UNL     1       2.140   8.212  18.006  0.00  0.00    +0.000 A 
ATOM     31  C   UNL     1       1.241   9.266  17.826  0.00  0.00    +0.000 A 
ENDBRANCH  23  25
ENDBRANCH   2  23
BRANCH   3  32
ATOM     32  O   UNL     1      -0.845  13.111  16.925  0.00  0.00    +0.000 OA
ATOM     33  H   UNL     1      -0.544  13.922  16.462  0.00  0.00    +0.000 HD
ENDBRANCH   3  32
TORSDOF 6
ENDMDL
MODEL 8
REMARK VINA RESULT:      -6.8      1.514      1.990
REMARK  Name = 
REMARK  9 active torsions:
REMARK  status: ('A' for Active; 'I' for Inactive)
REMARK    1  A    between atoms: C_1  and  O_2
REMARK    2  A    between atoms: O_2  and  C_3
REMARK    3  A    between atoms: C_6  and  C_7
REMARK    4  A    between atoms: C_8  and  C_9
REMARK    5  A    between atoms: C_9  and  C_11
REMARK    6  A    between atoms: C_14  and  C_15
REMARK    7  A    between atoms: C_18  and  O_19
REMARK    8  A    between atoms: C_30  and  O_31
REMARK    9  A    between atoms: O_31  and  C_32
REMARK                            x       y       z     vdW  Elec       q    Type
REMARK                         _______ _______ _______ _____ _____    ______ ____
ROOT
ATOM      1  C   UNL     1      -0.603  11.873  20.295  0.00  0.00    +0.000 C 
ATOM      2  C   UNL     1      -1.947  12.499  20.088  0.00  0.00    +0.000 C 
ATOM      3  C   UNL     1      -2.629  11.914  19.088  0.00  0.00    +0.000 C 
ATOM      4  C   UNL     1      -1.797  10.793  18.580  0.00  0.00    +0.000 C 
ATOM      5  O   UNL     1      -2.104  10.046  17.670  0.00  0.00    +0.000 OA
ATOM      6  N   UNL     1      -0.670  10.772  19.375  0.00  0.00    +0.000 N 
ATOM      7  C   UNL     1       0.288   9.760  19.368  0.00  0.00    +0.000 A 
ATOM      8  C   UNL     1       0.991   9.502  18.198  0.00  0.00    +0.000 A 
ATOM      9  C   UNL     1       1.994   8.539  18.219  0.00  0.00    +0.000 A 
ATOM     10  C   UNL     1       2.216   7.817  19.385  0.00  0.00    +0.000 A 
ATOM     11  C   UNL     1       1.460   8.134  20.502  0.00  0.00    +0.000 A 
ATOM     12  N   UNL     1       0.542   9.127  20.535  0.00  0.00    +0.000 NA
ENDROOT
BRANCH   1  16
ATOM     13  C   UNL     1       2.855  14.296  19.243  0.00  0.00    +0.000 A 
ATOM     14  C   UNL     1       1.852  14.040  18.296  0.00  0.00    +0.000 A 
ATOM     15  C   UNL     1       0.718  13.301  18.632  0.00  0.00    +0.000 A 
ATOM     16  C   UNL     1       0.566  12.774  19.920  0.00  0.00    +0.000 A 
ATOM     17  C   UNL     1       1.608  12.970  20.838  0.00  0.00    +0.000 A 
ATOM     18  C   UNL     1       2.755  13.714  20.515  0.00  0.00    +0.000 A 
BRANCH  13  20
ATOM     19  C   UNL     1       3.760  15.950  17.816  0.00  0.00    +0.000 C 
ATOM     20  O   UNL     1       3.934  15.077  18.931  0.00  0.00    +0.000 OA
ENDBRANCH  13  20
BRANCH  18  21
ATOM     21  O   UNL     1       3.637  13.768  21.560  0.00  0.00    +0.000 OA
ATOM     22  C   UNL     1       3.742  14.963  22.316  0.00  0.00    +0.000 C 
ENDBRANCH  18  21
ENDBRANCH   1  16
BRANCH   2  23
ATOM     23  C   UNL     1      -2.491  13.706  20.743  0.00  0.00    +0.000 C 
ATOM     24  O   UNL     1      -3.272  14.423  20.118  0.00  0.00    +0.000 OA
BRANCH  23  25
ATOM     25  C   UNL     1      -2.119  14.086  22.128  0.00  0.00    +0.000 A 
ATOM     26  C   UNL     1      -1.074  15.005  22.310  0.00  0.00    +0.000 A 
ATOM     27  C   UNL     1      -0.763  15.478  23.588  0.00  0.00    +0.000 A 
ATOM     28  C   UNL     1      -1.478  15.028  24.702  0.00  0.00    +0.000 A 
ATOM     29  C   UNL     1      -1.228  15.584  26.073  0.00  0.00    +0.000 C 
ATOM     30  C   UNL     1      -2.508  14.101  24.518  0.00  0.00    +0.000 A 
ATOM     31  C   UNL     1      -2.845  13.655  23.238  0.00  0.00    +0.000 A 
ENDBRANCH  23  25
ENDBRANCH   2  23
BRANCH   3  32
ATOM     32  O   UNL     1      -3.847  12.255  18.572  0.00  0.00    +0.000 OA
ATOM     33  H   UNL     1      -4.529  11.771  19.087  0.00  0.00    +0.000 HD
ENDBRANCH   3  32
TORSDOF 6
ENDMDL
MODEL 9
REMARK VINA RESULT:      -6.8      2.093      7.452
REMARK  Name = 
REMARK  9 active torsions:
REMARK  status: ('A' for Active; 'I' for Inactive)
REMARK    1  A    between atoms: C_1  and  O_2
REMARK    2  A    between atoms: O_2  and  C_3
REMARK    3  A    between atoms: C_6  and  C_7
REMARK    4  A    between atoms: C_8  and  C_9
REMARK    5  A    between atoms: C_9  and  C_11
REMARK    6  A    between atoms: C_14  and  C_15
REMARK    7  A    between atoms: C_18  and  O_19
REMARK    8  A    between atoms: C_30  and  O_31
REMARK    9  A    between atoms: O_31  and  C_32
REMARK                            x       y       z     vdW  Elec       q    Type
REMARK                         _______ _______ _______ _____ _____    ______ ____
ROOT
ATOM      1  C   UNL     1      -0.479  11.068  19.756  0.00  0.00    +0.000 C 
ATOM      2  C   UNL     1       0.932  11.136  19.257  0.00  0.00    +0.000 C 
ATOM      3  C   UNL     1       1.455  12.367  19.388  0.00  0.00    +0.000 C 
ATOM      4  C   UNL     1       0.433  13.217  20.051  0.00  0.00    +0.000 C 
ATOM      5  O   UNL     1       0.568  14.395  20.326  0.00  0.00    +0.000 OA
ATOM      6  N   UNL     1      -0.636  12.384  20.311  0.00  0.00    +0.000 N 
ATOM      7  C   UNL     1      -1.736  12.725  21.095  0.00  0.00    +0.000 A 
ATOM      8  C   UNL     1      -2.538  13.792  20.708  0.00  0.00    +0.000 A 
ATOM      9  C   UNL     1      -3.674  14.080  21.456  0.00  0.00    +0.000 A 
ATOM     10  C   UNL     1      -3.935  13.343  22.604  0.00  0.00    +0.000 A 
ATOM     11  C   UNL     1      -3.076  12.303  22.920  0.00  0.00    +0.000 A 
ATOM     12  N   UNL     1      -2.016  11.942  22.161  0.00  0.00    +0.000 NA
ENDROOT
BRANCH   1  16
ATOM     13  C   UNL     1      -3.430  10.648  16.587  0.00  0.00    +0.000 A 
ATOM     14  C   UNL     1      -2.172  10.039  16.472  0.00  0.00    +0.000 A 
ATOM     15  C   UNL     1      -1.233  10.129  17.498  0.00  0.00    +0.000 A 
ATOM     16  C   UNL     1      -1.516  10.856  18.661  0.00  0.00    +0.000 A 
ATOM     17  C   UNL     1      -2.746  11.525  18.736  0.00  0.00    +0.000 A 
ATOM     18  C   UNL     1      -3.703  11.441  17.711  0.00  0.00    +0.000 A 
BRANCH  13  20
ATOM     19  C   UNL     1      -3.879  10.121  14.325  0.00  0.00    +0.000 C 
ATOM     20  O   UNL     1      -4.375  10.503  15.607  0.00  0.00    +0.000 OA
ENDBRANCH  13  20
BRANCH  18  21
ATOM     21  O   UNL     1      -4.820  12.177  17.998  0.00  0.00    +0.000 OA
ATOM     22  C   UNL     1      -5.555  11.888  19.175  0.00  0.00    +0.000 C 
ENDBRANCH  18  21
ENDBRANCH   1  16
BRANCH   2  23
ATOM     23  C   UNL     1       1.691  10.083  18.553  0.00  0.00    +0.000 C 
ATOM     24  O   UNL     1       2.269  10.366  17.504  0.00  0.00    +0.000 OA
BRANCH  23  25
ATOM     25  C   UNL     1       1.773   8.694  19.067  0.00  0.00    +0.000 A 
ATOM     26  C   UNL     1       2.319   7.706  18.235  0.00  0.00    +0.000 A 
ATOM     27  C   UNL     1       2.520   6.408  18.716  0.00  0.00    +0.000 A 
ATOM     28  C   UNL     1       2.161   6.076  20.026  0.00  0.00    +0.000 A 
ATOM     29  C   UNL     1       2.446   4.719  20.598  0.00  0.00    +0.000 C 
ATOM     30  C   UNL     1       1.602   7.060  20.846  0.00  0.00    +0.000 A 
ATOM     31  C   UNL     1       1.435   8.366  20.380  0.00  0.00    +0.000 A 
ENDBRANCH  23  25
ENDBRANCH   2  23
BRANCH   3  32
ATOM     32  O   UNL     1       2.680  12.821  18.985  0.00  0.00    +0.000 OA
ATOM     33  H   UNL     1       3.063  12.141  18.389  0.00  0.00    +0.000 HD
ENDBRANCH   3  32
TORSDOF 6
ENDMDL
