MODEL 1
REMARK VINA RESULT:      -8.8      0.000      0.000
REMARK  Name = 
REMARK  7 active torsions:
REMARK  status: ('A' for Active; 'I' for Inactive)
REMARK    1  A    between atoms: C_1  and  C_2
REMARK    2  A    between atoms: C_6  and  N_7
REMARK    3  A    between atoms: C_8  and  C_10
REMARK    4  A    between atoms: C_10  and  N_11
REMARK    5  A    between atoms: C_18  and  S_19
REMARK    6  A    between atoms: S_19  and  N_22
REMARK    7  A    between atoms: C_30  and  C_31
REMARK                            x       y       z     vdW  Elec       q    Type
REMARK                         _______ _______ _______ _____ _____    ______ ____
ROOT
ATOM      1  N   UNL     1       0.531  10.653  20.196  0.00  0.00    +0.000 N 
ATOM      2  C   UNL     1       0.052  10.744  21.493  0.00  0.00    +0.000 A 
ATOM      3  O   UNL     1      -0.508  11.745  21.938  0.00  0.00    +0.000 OA
ATOM      4  C   UNL     1       0.245   9.569  22.374  0.00  0.00    +0.000 A 
ATOM      5  C   UNL     1       0.884   8.472  21.956  0.00  0.00    +0.000 A 
ATOM      6  C   UNL     1       1.367   8.384  20.579  0.00  0.00    +0.000 A 
ATOM      7  C   UNL     1       2.104   7.266  20.160  0.00  0.00    +0.000 A 
ATOM      8  C   UNL     1       2.549   7.191  18.837  0.00  0.00    +0.000 A 
ATOM      9  C   UNL     1       2.210   8.186  17.919  0.00  0.00    +0.000 A 
ATOM     10  C   UNL     1       1.492   9.306  18.346  0.00  0.00    +0.000 A 
ATOM     11  C   UNL     1       1.117   9.448  19.690  0.00  0.00    +0.000 A 
ENDROOT
BRANCH   8  12
ATOM     12  S   UNL     1       3.703   5.934  18.335  0.00  0.00    +0.000 S 
ATOM     13  O   UNL     1       4.569   6.552  17.353  0.00  0.00    +0.000 OA
ATOM     14  O   UNL     1       4.247   5.314  19.526  0.00  0.00    +0.000 OA
BRANCH  12  15
ATOM     15  N   UNL     1       2.728   4.782  17.538  0.00  0.00    +0.000 NA
ATOM     16  C   UNL     1       1.474   4.392  18.227  0.00  0.00    +0.000 C 
ATOM     17  C   UNL     1       1.828   3.101  18.944  0.00  0.00    +0.000 C 
ATOM     18  C   UNL     1       2.763   2.399  17.979  0.00  0.00    +0.000 C 
ATOM     19  C   UNL     1       3.435   3.514  17.183  0.00  0.00    +0.000 C 
ENDBRANCH  12  15
ENDBRANCH   8  12
BRANCH   1  20
ATOM     20  C   UNL     1       0.606  11.892  19.434  0.00  0.00    +0.000 C 
BRANCH  20  22
ATOM     21  N   UNL     1      -1.793  11.509  19.070  0.00  0.00    +0.000 N 
ATOM     22  C   UNL     1      -0.682  12.262  18.707  0.00  0.00    +0.000 C 
ATOM     23  O   UNL     1      -0.671  13.225  17.939  0.00  0.00    +0.000 OA
ATOM     24  H   UNL     1      -1.648  10.858  19.838  0.00  0.00    +0.000 HD
BRANCH  21  30
ATOM     25  C   UNL     1      -6.577  13.080  19.468  0.00  0.00    +0.000 C 
ATOM     26  C   UNL     1      -5.441  12.408  18.737  0.00  0.00    +0.000 A 
ATOM     27  C   UNL     1      -5.692  11.943  17.438  0.00  0.00    +0.000 A 
ATOM     28  C   UNL     1      -4.687  11.328  16.711  0.00  0.00    +0.000 A 
ATOM     29  C   UNL     1      -3.417  11.188  17.265  0.00  0.00    +0.000 A 
ATOM     30  C   UNL     1      -3.112  11.653  18.555  0.00  0.00    +0.000 A 
ATOM     31  C   UNL     1      -4.147  12.252  19.319  0.00  0.00    +0.000 A 
ATOM     32  C   UNL     1      -3.949  12.769  20.724  0.00  0.00    +0.000 C 
ENDBRANCH  21  30
ENDBRANCH  20  22
ENDBRANCH   1  20
TORSDOF 5
ENDMDL
MODEL 2
REMARK VINA RESULT:      -8.8      3.586      6.281
REMARK  Name = 
REMARK  7 active torsions:
REMARK  status: ('A' for Active; 'I' for Inactive)
REMARK    1  A    between atoms: C_1  and  C_2
REMARK    2  A    between atoms: C_6  and  N_7
REMARK    3  A    between atoms: C_8  and  C_10
REMARK    4  A    between atoms: C_10  and  N_11
REMARK    5  A    between atoms: C_18  and  S_19
REMARK    6  A    between atoms: S_19  and  N_22
REMARK    7  A    between atoms: C_30  and  C_31
REMARK                            x       y       z     vdW  Elec       q    Type
REMARK                         _______ _______ _______ _____ _____    ______ ____
ROOT
ATOM      1  N   UNL     1       2.442   4.083  20.009  0.00  0.00    +0.000 N 
ATOM      2  C   UNL     1       2.042   2.779  20.254  0.00  0.00    +0.000 A 
ATOM      3  O   UNL     1       1.448   2.435  21.275  0.00  0.00    +0.000 OA
ATOM      4  C   UNL     1       2.367   1.763  19.226  0.00  0.00    +0.000 A 
ATOM      5  C   UNL     1       3.047   2.073  18.118  0.00  0.00    +0.000 A 
ATOM      6  C   UNL     1       3.446   3.456  17.866  0.00  0.00    +0.000 A 
ATOM      7  C   UNL     1       4.225   3.771  16.742  0.00  0.00    +0.000 A 
ATOM      8  C   UNL     1       4.590   5.100  16.508  0.00  0.00    +0.000 A 
ATOM      9  C   UNL     1       4.130   6.118  17.344  0.00  0.00    +0.000 A 
ATOM     10  C   UNL     1       3.369   5.797  18.472  0.00  0.00    +0.000 A 
ATOM     11  C   UNL     1       3.072   4.461  18.780  0.00  0.00    +0.000 A 
ENDROOT
BRANCH   8  12
ATOM     12  S   UNL     1       5.789   5.508  15.258  0.00  0.00    +0.000 S 
ATOM     13  O   UNL     1       5.879   4.349  14.395  0.00  0.00    +0.000 OA
ATOM     14  O   UNL     1       5.464   6.815  14.725  0.00  0.00    +0.000 OA
BRANCH  12  15
ATOM     15  N   UNL     1       7.252   5.641  16.128  0.00  0.00    +0.000 NA
ATOM     16  C   UNL     1       7.612   4.489  16.990  0.00  0.00    +0.000 C 
ATOM     17  C   UNL     1       7.140   4.895  18.375  0.00  0.00    +0.000 C 
ATOM     18  C   UNL     1       7.428   6.383  18.429  0.00  0.00    +0.000 C 
ATOM     19  C   UNL     1       7.353   6.863  16.983  0.00  0.00    +0.000 C 
ENDBRANCH  12  15
ENDBRANCH   8  12
BRANCH   1  20
ATOM     20  C   UNL     1       2.389   5.009  21.132  0.00  0.00    +0.000 C 
BRANCH  20  22
ATOM     21  N   UNL     1       1.797   7.390  21.253  0.00  0.00    +0.000 N 
ATOM     22  C   UNL     1       1.337   6.105  20.992  0.00  0.00    +0.000 C 
ATOM     23  O   UNL     1       0.214   5.797  20.590  0.00  0.00    +0.000 OA
ATOM     24  H   UNL     1       2.797   7.472  21.420  0.00  0.00    +0.000 HD
BRANCH  21  30
ATOM     25  C   UNL     1      -0.102  11.323  18.716  0.00  0.00    +0.000 C 
ATOM     26  C   UNL     1       0.103  10.506  19.968  0.00  0.00    +0.000 A 
ATOM     27  C   UNL     1      -0.554  10.928  21.132  0.00  0.00    +0.000 A 
ATOM     28  C   UNL     1      -0.415  10.213  22.309  0.00  0.00    +0.000 A 
ATOM     29  C   UNL     1       0.365   9.060  22.332  0.00  0.00    +0.000 A 
ATOM     30  C   UNL     1       1.029   8.587  21.188  0.00  0.00    +0.000 A 
ATOM     31  C   UNL     1       0.919   9.335  19.987  0.00  0.00    +0.000 A 
ATOM     32  C   UNL     1       1.604   8.943  18.699  0.00  0.00    +0.000 C 
ENDBRANCH  21  30
ENDBRANCH  20  22
ENDBRANCH   1  20
TORSDOF 5
ENDMDL
MODEL 3
REMARK VINA RESULT:      -8.7      1.576      2.084
REMARK  Name = 
REMARK  7 active torsions:
REMARK  status: ('A' for Active; 'I' for Inactive)
REMARK    1  A    between atoms: C_1  and  C_2
REMARK    2  A    between atoms: C_6  and  N_7
REMARK    3  A    between atoms: C_8  and  C_10
REMARK    4  A    between atoms: C_10  and  N_11
REMARK    5  A    between atoms: C_18  and  S_19
REMARK    6  A    between atoms: S_19  and  N_22
REMARK    7  A    between atoms: C_30  and  C_31
REMARK                            x       y       z     vdW  Elec       q    Type
REMARK                         _______ _______ _______ _____ _____    ______ ____
ROOT
ATOM      1  N   UNL     1       0.776  10.452  19.927  0.00  0.00    +0.000 N 
ATOM      2  C   UNL     1       0.314  10.571  21.229  0.00  0.00    +0.000 A 
ATOM      3  O   UNL     1      -0.218  11.590  21.666  0.00  0.00    +0.000 OA
ATOM      4  C   UNL     1       0.494   9.404  22.123  0.00  0.00    +0.000 A 
ATOM      5  C   UNL     1       1.103   8.288  21.712  0.00  0.00    +0.000 A 
ATOM      6  C   UNL     1       1.567   8.172  20.332  0.00  0.00    +0.000 A 
ATOM      7  C   UNL     1       2.274   7.031  19.919  0.00  0.00    +0.000 A 
ATOM      8  C   UNL     1       2.702   6.929  18.592  0.00  0.00    +0.000 A 
ATOM      9  C   UNL     1       2.373   7.918  17.664  0.00  0.00    +0.000 A 
ATOM     10  C   UNL     1       1.685   9.060  18.085  0.00  0.00    +0.000 A 
ATOM     11  C   UNL     1       1.329   9.229  19.431  0.00  0.00    +0.000 A 
ENDROOT
BRANCH   8  12
ATOM     12  S   UNL     1       3.822   5.641  18.094  0.00  0.00    +0.000 S 
ATOM     13  O   UNL     1       4.645   5.355  19.251  0.00  0.00    +0.000 OA
ATOM     14  O   UNL     1       3.056   4.597  17.445  0.00  0.00    +0.000 OA
BRANCH  12  15
ATOM     15  N   UNL     1       4.802   6.389  16.914  0.00  0.00    +0.000 NA
ATOM     16  C   UNL     1       5.259   5.529  15.795  0.00  0.00    +0.000 C 
ATOM     17  C   UNL     1       6.657   5.098  16.201  0.00  0.00    +0.000 C 
ATOM     18  C   UNL     1       7.225   6.325  16.886  0.00  0.00    +0.000 C 
ATOM     19  C   UNL     1       6.019   7.064  17.459  0.00  0.00    +0.000 C 
ENDBRANCH  12  15
ENDBRANCH   8  12
BRANCH   1  20
ATOM     20  C   UNL     1       0.869  11.679  19.148  0.00  0.00    +0.000 C 
BRANCH  20  22
ATOM     21  N   UNL     1      -1.509  11.256  18.697  0.00  0.00    +0.000 N 
ATOM     22  C   UNL     1      -0.459  12.157  18.568  0.00  0.00    +0.000 C 
ATOM     23  O   UNL     1      -0.528  13.302  18.119  0.00  0.00    +0.000 OA
ATOM     24  H   UNL     1      -1.304  10.420  19.237  0.00  0.00    +0.000 HD
BRANCH  21  30
ATOM     25  C   UNL     1      -6.176  13.084  19.317  0.00  0.00    +0.000 C 
ATOM     26  C   UNL     1      -5.121  12.334  18.543  0.00  0.00    +0.000 A 
ATOM     27  C   UNL     1      -5.469  11.848  17.275  0.00  0.00    +0.000 A 
ATOM     28  C   UNL     1      -4.540  11.163  16.511  0.00  0.00    +0.000 A 
ATOM     29  C   UNL     1      -3.249  10.972  16.996  0.00  0.00    +0.000 A 
ATOM     30  C   UNL     1      -2.846  11.455  18.252  0.00  0.00    +0.000 A 
ATOM     31  C   UNL     1      -3.804  12.127  19.055  0.00  0.00    +0.000 A 
ATOM     32  C   UNL     1      -3.499  12.670  20.431  0.00  0.00    +0.000 C 
ENDBRANCH  21  30
ENDBRANCH  20  22
ENDBRANCH   1  20
TORSDOF 5
ENDMDL
MODEL 4
REMARK VINA RESULT:      -8.7      3.661      6.432
REMARK  Name = 
REMARK  7 active torsions:
REMARK  status: ('A' for Active; 'I' for Inactive)
REMARK    1  A    between atoms: C_1  and  C_2
REMARK    2  A    between atoms: C_6  and  N_7
REMARK    3  A    between atoms: C_8  and  C_10
REMARK    4  A    between atoms: C_10  and  N_11
REMARK    5  A    between atoms: C_18  and  S_19
REMARK    6  A    between atoms: S_19  and  N_22
REMARK    7  A    between atoms: C_30  and  C_31
REMARK                            x       y       z     vdW  Elec       q    Type
REMARK                         _______ _______ _______ _____ _____    ______ ____
ROOT
ATOM      1  N   UNL     1       2.596   4.061  19.854  0.00  0.00    +0.000 N 
ATOM      2  C   UNL     1       1.987   2.817  19.851  0.00  0.00    +0.000 A 
ATOM      3  O   UNL     1       1.141   2.476  20.678  0.00  0.00    +0.000 OA
ATOM      4  C   UNL     1       2.398   1.861  18.797  0.00  0.00    +0.000 A 
ATOM      5  C   UNL     1       3.341   2.163  17.899  0.00  0.00    +0.000 A 
ATOM      6  C   UNL     1       3.961   3.486  17.905  0.00  0.00    +0.000 A 
ATOM      7  C   UNL     1       5.004   3.780  17.013  0.00  0.00    +0.000 A 
ATOM      8  C   UNL     1       5.580   5.054  17.022  0.00  0.00    +0.000 A 
ATOM      9  C   UNL     1       5.081   6.050  17.863  0.00  0.00    +0.000 A 
ATOM     10  C   UNL     1       4.054   5.747  18.762  0.00  0.00    +0.000 A 
ATOM     11  C   UNL     1       3.526   4.450  18.837  0.00  0.00    +0.000 A 
ENDROOT
BRANCH   8  12
ATOM     12  S   UNL     1       7.068   5.386  16.107  0.00  0.00    +0.000 S 
ATOM     13  O   UNL     1       7.541   6.677  16.563  0.00  0.00    +0.000 OA
ATOM     14  O   UNL     1       7.915   4.213  16.174  0.00  0.00    +0.000 OA
BRANCH  12  15
ATOM     15  N   UNL     1       6.525   5.556  14.497  0.00  0.00    +0.000 NA
ATOM     16  C   UNL     1       5.356   4.731  14.107  0.00  0.00    +0.000 C 
ATOM     17  C   UNL     1       5.965   3.520  13.421  0.00  0.00    +0.000 C 
ATOM     18  C   UNL     1       7.149   4.094  12.668  0.00  0.00    +0.000 C 
ATOM     19  C   UNL     1       7.578   5.323  13.463  0.00  0.00    +0.000 C 
ENDBRANCH  12  15
ENDBRANCH   8  12
BRANCH   1  20
ATOM     20  C   UNL     1       2.415   4.879  21.046  0.00  0.00    +0.000 C 
BRANCH  20  22
ATOM     21  N   UNL     1       1.850   7.268  21.149  0.00  0.00    +0.000 N 
ATOM     22  C   UNL     1       1.376   5.986  20.896  0.00  0.00    +0.000 C 
ATOM     23  O   UNL     1       0.251   5.689  20.492  0.00  0.00    +0.000 OA
ATOM     24  H   UNL     1       2.850   7.339  21.319  0.00  0.00    +0.000 HD
BRANCH  21  30
ATOM     25  C   UNL     1       0.018  11.213  18.582  0.00  0.00    +0.000 C 
ATOM     26  C   UNL     1       0.203  10.398  19.838  0.00  0.00    +0.000 A 
ATOM     27  C   UNL     1      -0.460  10.831  20.996  0.00  0.00    +0.000 A 
ATOM     28  C   UNL     1      -0.339  10.118  22.176  0.00  0.00    +0.000 A 
ATOM     29  C   UNL     1       0.428   8.957  22.210  0.00  0.00    +0.000 A 
ATOM     30  C   UNL     1       1.096   8.473  21.073  0.00  0.00    +0.000 A 
ATOM     31  C   UNL     1       1.006   9.218  19.869  0.00  0.00    +0.000 A 
ATOM     32  C   UNL     1       1.697   8.814  18.589  0.00  0.00    +0.000 C 
ENDBRANCH  21  30
ENDBRANCH  20  22
ENDBRANCH   1  20
TORSDOF 5
ENDMDL
MODEL 5
REMARK VINA RESULT:      -8.2      3.555      5.954
REMARK  Name = 
REMARK  7 active torsions:
REMARK  status: ('A' for Active; 'I' for Inactive)
REMARK    1  A    between atoms: C_1  and  C_2
REMARK    2  A    between atoms: C_6  and  N_7
REMARK    3  A    between atoms: C_8  and  C_10
REMARK    4  A    between atoms: C_10  and  N_11
REMARK    5  A    between atoms: C_18  and  S_19
REMARK    6  A    between atoms: S_19  and  N_22
REMARK    7  A    between atoms: C_30  and  C_31
REMARK                            x       y       z     vdW  Elec       q    Type
REMARK                         _______ _______ _______ _____ _____    ______ ____
ROOT
ATOM      1  N   UNL     1       2.411   4.404  20.195  0.00  0.00    +0.000 N 
ATOM      2  C   UNL     1       1.972   3.150  20.586  0.00  0.00    +0.000 A 
ATOM      3  O   UNL     1       1.338   2.948  21.621  0.00  0.00    +0.000 OA
ATOM      4  C   UNL     1       2.304   2.007  19.704  0.00  0.00    +0.000 A 
ATOM      5  C   UNL     1       3.025   2.163  18.590  0.00  0.00    +0.000 A 
ATOM      6  C   UNL     1       3.465   3.495  18.182  0.00  0.00    +0.000 A 
ATOM      7  C   UNL     1       4.287   3.652  17.054  0.00  0.00    +0.000 A 
ATOM      8  C   UNL     1       4.690   4.934  16.669  0.00  0.00    +0.000 A 
ATOM      9  C   UNL     1       4.229   6.057  17.357  0.00  0.00    +0.000 A 
ATOM     10  C   UNL     1       3.427   5.894  18.490  0.00  0.00    +0.000 A 
ATOM     11  C   UNL     1       3.088   4.614  18.951  0.00  0.00    +0.000 A 
ENDROOT
BRANCH   8  12
ATOM     12  S   UNL     1       5.937   5.158  15.421  0.00  0.00    +0.000 S 
ATOM     13  O   UNL     1       6.050   3.889  14.733  0.00  0.00    +0.000 OA
ATOM     14  O   UNL     1       5.642   6.377  14.697  0.00  0.00    +0.000 OA
BRANCH  12  15
ATOM     15  N   UNL     1       7.368   5.408  16.317  0.00  0.00    +0.000 NA
ATOM     16  C   UNL     1       7.626   4.456  17.425  0.00  0.00    +0.000 C 
ATOM     17  C   UNL     1       7.123   5.178  18.662  0.00  0.00    +0.000 C 
ATOM     18  C   UNL     1       7.494   6.625  18.409  0.00  0.00    +0.000 C 
ATOM     19  C   UNL     1       7.505   6.781  16.891  0.00  0.00    +0.000 C 
ENDBRANCH  12  15
ENDBRANCH   8  12
BRANCH   1  20
ATOM     20  C   UNL     1       2.346   5.465  21.192  0.00  0.00    +0.000 C 
BRANCH  20  22
ATOM     21  N   UNL     1       1.769   7.839  20.937  0.00  0.00    +0.000 N 
ATOM     22  C   UNL     1       1.295   6.533  20.904  0.00  0.00    +0.000 C 
ATOM     23  O   UNL     1       0.159   6.174  20.590  0.00  0.00    +0.000 OA
ATOM     24  H   UNL     1       2.773   7.937  21.060  0.00  0.00    +0.000 HD
BRANCH  21  30
ATOM     25  C   UNL     1      -1.050  11.714  22.536  0.00  0.00    +0.000 C 
ATOM     26  C   UNL     1      -0.371  10.902  21.461  0.00  0.00    +0.000 A 
ATOM     27  C   UNL     1      -0.454  11.373  20.143  0.00  0.00    +0.000 A 
ATOM     28  C   UNL     1       0.160  10.679  19.114  0.00  0.00    +0.000 A 
ATOM     29  C   UNL     1       0.877   9.519  19.392  0.00  0.00    +0.000 A 
ATOM     30  C   UNL     1       1.005   9.016  20.698  0.00  0.00    +0.000 A 
ATOM     31  C   UNL     1       0.349   9.703  21.752  0.00  0.00    +0.000 A 
ATOM     32  C   UNL     1       0.392   9.250  23.192  0.00  0.00    +0.000 C 
ENDBRANCH  21  30
ENDBRANCH  20  22
ENDBRANCH   1  20
TORSDOF 5
ENDMDL
MODEL 6
REMARK VINA RESULT:      -8.2      1.221      1.514
REMARK  Name = 
REMARK  7 active torsions:
REMARK  status: ('A' for Active; 'I' for Inactive)
REMARK    1  A    between atoms: C_1  and  C_2
REMARK    2  A    between atoms: C_6  and  N_7
REMARK    3  A    between atoms: C_8  and  C_10
REMARK    4  A    between atoms: C_10  and  N_11
REMARK    5  A    between atoms: C_18  and  S_19
REMARK    6  A    between atoms: S_19  and  N_22
REMARK    7  A    between atoms: C_30  and  C_31
REMARK                            x       y       z     vdW  Elec       q    Type
REMARK                         _______ _______ _______ _____ _____    ______ ____
ROOT
ATOM      1  N   UNL     1       0.514  10.806  20.458  0.00  0.00    +0.000 N 
ATOM      2  C   UNL     1       0.157  10.812  21.797  0.00  0.00    +0.000 A 
ATOM      3  O   UNL     1      -0.324  11.793  22.364  0.00  0.00    +0.000 OA
ATOM      4  C   UNL     1       0.386   9.569  22.568  0.00  0.00    +0.000 A 
ATOM      5  C   UNL     1       0.943   8.488  22.013  0.00  0.00    +0.000 A 
ATOM      6  C   UNL     1       1.297   8.491  20.595  0.00  0.00    +0.000 A 
ATOM      7  C   UNL     1       1.951   7.386  20.029  0.00  0.00    +0.000 A 
ATOM      8  C   UNL     1       2.273   7.399  18.668  0.00  0.00    +0.000 A 
ATOM      9  C   UNL     1       1.890   8.471  17.861  0.00  0.00    +0.000 A 
ATOM     10  C   UNL     1       1.255   9.577  18.434  0.00  0.00    +0.000 A 
ATOM     11  C   UNL     1       1.008   9.627  19.813  0.00  0.00    +0.000 A 
ENDROOT
BRANCH   8  12
ATOM     12  S   UNL     1       3.331   6.150  17.972  0.00  0.00    +0.000 S 
ATOM     13  O   UNL     1       2.451   5.135  17.431  0.00  0.00    +0.000 OA
ATOM     14  O   UNL     1       4.320   6.804  17.139  0.00  0.00    +0.000 OA
BRANCH  12  15
ATOM     15  N   UNL     1       4.132   5.494  19.329  0.00  0.00    +0.000 NA
ATOM     16  C   UNL     1       5.594   5.286  19.192  0.00  0.00    +0.000 C 
ATOM     17  C   UNL     1       5.730   3.819  18.823  0.00  0.00    +0.000 C 
ATOM     18  C   UNL     1       4.640   3.144  19.631  0.00  0.00    +0.000 C 
ATOM     19  C   UNL     1       3.559   4.204  19.820  0.00  0.00    +0.000 C 
ENDBRANCH  12  15
ENDBRANCH   8  12
BRANCH   1  20
ATOM     20  C   UNL     1       0.567  12.097  19.786  0.00  0.00    +0.000 C 
BRANCH  20  22
ATOM     21  N   UNL     1      -1.797  11.649  19.290  0.00  0.00    +0.000 N 
ATOM     22  C   UNL     1      -0.700  12.456  19.014  0.00  0.00    +0.000 C 
ATOM     23  O   UNL     1      -0.687  13.451  18.289  0.00  0.00    +0.000 OA
ATOM     24  H   UNL     1      -1.665  10.970  20.035  0.00  0.00    +0.000 HD
BRANCH  21  30
ATOM     25  C   UNL     1      -6.587  13.247  19.431  0.00  0.00    +0.000 C 
ATOM     26  C   UNL     1      -5.427  12.539  18.776  0.00  0.00    +0.000 A 
ATOM     27  C   UNL     1      -5.630  12.013  17.491  0.00  0.00    +0.000 A 
ATOM     28  C   UNL     1      -4.600  11.363  16.833  0.00  0.00    +0.000 A 
ATOM     29  C   UNL     1      -3.354  11.247  17.441  0.00  0.00    +0.000 A 
ATOM     30  C   UNL     1      -3.095  11.772  18.718  0.00  0.00    +0.000 A 
ATOM     31  C   UNL     1      -4.157  12.408  19.413  0.00  0.00    +0.000 A 
ATOM     32  C   UNL     1      -4.010  12.990  20.799  0.00  0.00    +0.000 C 
ENDBRANCH  21  30
ENDBRANCH  20  22
ENDBRANCH   1  20
TORSDOF 5
ENDMDL
MODEL 7
REMARK VINA RESULT:      -8.1      3.653      6.138
REMARK  Name = 
REMARK  7 active torsions:
REMARK  status: ('A' for Active; 'I' for Inactive)
REMARK    1  A    between atoms: C_1  and  C_2
REMARK    2  A    between atoms: C_6  and  N_7
REMARK    3  A    between atoms: C_8  and  C_10
REMARK    4  A    between atoms: C_10  and  N_11
REMARK    5  A    between atoms: C_18  and  S_19
REMARK    6  A    between atoms: S_19  and  N_22
REMARK    7  A    between atoms: C_30  and  C_31
REMARK                            x       y       z     vdW  Elec       q    Type
REMARK                         _______ _______ _______ _____ _____    ______ ____
ROOT
ATOM      1  N   UNL     1       2.483   4.328  19.863  0.00  0.00    +0.000 N 
ATOM      2  C   UNL     1       1.833   3.105  19.921  0.00  0.00    +0.000 A 
ATOM      3  O   UNL     1       0.962   2.842  20.749  0.00  0.00    +0.000 OA
ATOM      4  C   UNL     1       2.232   2.075  18.934  0.00  0.00    +0.000 A 
ATOM      5  C   UNL     1       3.201   2.293  18.040  0.00  0.00    +0.000 A 
ATOM      6  C   UNL     1       3.865   3.594  17.980  0.00  0.00    +0.000 A 
ATOM      7  C   UNL     1       4.934   3.800  17.094  0.00  0.00    +0.000 A 
ATOM      8  C   UNL     1       5.551   5.054  17.039  0.00  0.00    +0.000 A 
ATOM      9  C   UNL     1       5.069   6.113  17.809  0.00  0.00    +0.000 A 
ATOM     10  C   UNL     1       4.016   5.897  18.703  0.00  0.00    +0.000 A 
ATOM     11  C   UNL     1       3.445   4.625  18.844  0.00  0.00    +0.000 A 
ENDROOT
BRANCH   8  12
ATOM     12  S   UNL     1       7.066   5.283  16.137  0.00  0.00    +0.000 S 
ATOM     13  O   UNL     1       7.629   6.532  16.607  0.00  0.00    +0.000 OA
ATOM     14  O   UNL     1       7.824   4.050  16.200  0.00  0.00    +0.000 OA
BRANCH  12  15
ATOM     15  N   UNL     1       6.549   5.504  14.525  0.00  0.00    +0.000 NA
ATOM     16  C   UNL     1       5.344   4.745  14.111  0.00  0.00    +0.000 C 
ATOM     17  C   UNL     1       5.898   3.516  13.411  0.00  0.00    +0.000 C 
ATOM     18  C   UNL     1       7.117   4.040  12.679  0.00  0.00    +0.000 C 
ATOM     19  C   UNL     1       7.600   5.234  13.497  0.00  0.00    +0.000 C 
ENDBRANCH  12  15
ENDBRANCH   8  12
BRANCH   1  20
ATOM     20  C   UNL     1       2.307   5.221  21.000  0.00  0.00    +0.000 C 
BRANCH  20  22
ATOM     21  N   UNL     1       1.909   7.616  20.629  0.00  0.00    +0.000 N 
ATOM     22  C   UNL     1       1.325   6.362  20.756  0.00  0.00    +0.000 C 
ATOM     23  O   UNL     1       0.132   6.092  20.608  0.00  0.00    +0.000 OA
ATOM     24  H   UNL     1       2.925   7.627  20.623  0.00  0.00    +0.000 HD
BRANCH  21  30
ATOM     25  C   UNL     1      -0.690  11.644  22.223  0.00  0.00    +0.000 C 
ATOM     26  C   UNL     1      -0.044  10.802  21.150  0.00  0.00    +0.000 A 
ATOM     27  C   UNL     1      -0.073  11.291  19.836  0.00  0.00    +0.000 A 
ATOM     28  C   UNL     1       0.514  10.570  18.811  0.00  0.00    +0.000 A 
ATOM     29  C   UNL     1       1.152   9.365  19.088  0.00  0.00    +0.000 A 
ATOM     30  C   UNL     1       1.224   8.842  20.390  0.00  0.00    +0.000 A 
ATOM     31  C   UNL     1       0.594   9.558  21.440  0.00  0.00    +0.000 A 
ATOM     32  C   UNL     1       0.582   9.088  22.875  0.00  0.00    +0.000 C 
ENDBRANCH  21  30
ENDBRANCH  20  22
ENDBRANCH   1  20
TORSDOF 5
ENDMDL
MODEL 8
REMARK VINA RESULT:      -8.0      1.586      2.490
REMARK  Name = 
REMARK  7 active torsions:
REMARK  status: ('A' for Active; 'I' for Inactive)
REMARK    1  A    between atoms: C_1  and  C_2
REMARK    2  A    between atoms: C_6  and  N_7
REMARK    3  A    between atoms: C_8  and  C_10
REMARK    4  A    between atoms: C_10  and  N_11
REMARK    5  A    between atoms: C_18  and  S_19
REMARK    6  A    between atoms: S_19  and  N_22
REMARK    7  A    between atoms: C_30  and  C_31
REMARK                            x       y       z     vdW  Elec       q    Type
REMARK                         _______ _______ _______ _____ _____    ______ ____
ROOT
ATOM      1  N   UNL     1       0.955  10.411  20.021  0.00  0.00    +0.000 N 
ATOM      2  C   UNL     1       0.605  10.568  21.353  0.00  0.00    +0.000 A 
ATOM      3  O   UNL     1       0.142  11.612  21.811  0.00  0.00    +0.000 OA
ATOM      4  C   UNL     1       0.818   9.412  22.253  0.00  0.00    +0.000 A 
ATOM      5  C   UNL     1       1.356   8.268  21.817  0.00  0.00    +0.000 A 
ATOM      6  C   UNL     1       1.703   8.113  20.406  0.00  0.00    +0.000 A 
ATOM      7  C   UNL     1       2.338   6.943  19.960  0.00  0.00    +0.000 A 
ATOM      8  C   UNL     1       2.654   6.803  18.606  0.00  0.00    +0.000 A 
ATOM      9  C   UNL     1       2.283   7.787  17.688  0.00  0.00    +0.000 A 
ATOM     10  C   UNL     1       1.668   8.958  18.140  0.00  0.00    +0.000 A 
ATOM     11  C   UNL     1       1.428   9.162  19.506  0.00  0.00    +0.000 A 
ENDROOT
BRANCH   8  12
ATOM     12  S   UNL     1       3.688   5.470  18.045  0.00  0.00    +0.000 S 
ATOM     13  O   UNL     1       4.493   5.080  19.184  0.00  0.00    +0.000 OA
ATOM     14  O   UNL     1       2.856   4.507  17.353  0.00  0.00    +0.000 OA
BRANCH  12  15
ATOM     15  N   UNL     1       4.713   6.206  16.895  0.00  0.00    +0.000 NA
ATOM     16  C   UNL     1       5.233   5.328  15.819  0.00  0.00    +0.000 C 
ATOM     17  C   UNL     1       6.617   4.928  16.300  0.00  0.00    +0.000 C 
ATOM     18  C   UNL     1       7.134   6.178  16.983  0.00  0.00    +0.000 C 
ATOM     19  C   UNL     1       5.893   6.911  17.481  0.00  0.00    +0.000 C 
ENDBRANCH  12  15
ENDBRANCH   8  12
BRANCH   1  20
ATOM     20  C   UNL     1       1.025  11.621  19.212  0.00  0.00    +0.000 C 
BRANCH  20  22
ATOM     21  N   UNL     1      -1.421  11.601  19.438  0.00  0.00    +0.000 N 
ATOM     22  C   UNL     1      -0.312  12.333  19.032  0.00  0.00    +0.000 C 
ATOM     23  O   UNL     1      -0.311  13.499  18.635  0.00  0.00    +0.000 OA
ATOM     24  H   UNL     1      -1.218  10.713  19.889  0.00  0.00    +0.000 HD
BRANCH  21  30
ATOM     25  C   UNL     1      -6.002  11.629  17.308  0.00  0.00    +0.000 C 
ATOM     26  C   UNL     1      -5.007  12.058  18.359  0.00  0.00    +0.000 A 
ATOM     27  C   UNL     1      -5.468  12.895  19.385  0.00  0.00    +0.000 A 
ATOM     28  C   UNL     1      -4.607  13.312  20.385  0.00  0.00    +0.000 A 
ATOM     29  C   UNL     1      -3.283  12.884  20.382  0.00  0.00    +0.000 A 
ATOM     30  C   UNL     1      -2.777  12.032  19.387  0.00  0.00    +0.000 A 
ATOM     31  C   UNL     1      -3.646  11.629  18.339  0.00  0.00    +0.000 A 
ATOM     32  C   UNL     1      -3.215  10.734  17.201  0.00  0.00    +0.000 C 
ENDBRANCH  21  30
ENDBRANCH  20  22
ENDBRANCH   1  20
TORSDOF 5
ENDMDL
MODEL 9
REMARK VINA RESULT:      -8.0      1.317      1.685
REMARK  Name = 
REMARK  7 active torsions:
REMARK  status: ('A' for Active; 'I' for Inactive)
REMARK    1  A    between atoms: C_1  and  C_2
REMARK    2  A    between atoms: C_6  and  N_7
REMARK    3  A    between atoms: C_8  and  C_10
REMARK    4  A    between atoms: C_10  and  N_11
REMARK    5  A    between atoms: C_18  and  S_19
REMARK    6  A    between atoms: S_19  and  N_22
REMARK    7  A    between atoms: C_30  and  C_31
REMARK                            x       y       z     vdW  Elec       q    Type
REMARK                         _______ _______ _______ _____ _____    ______ ____
ROOT
ATOM      1  N   UNL     1       1.348   9.378  19.463  0.00  0.00    +0.000 N 
ATOM      2  C   UNL     1       0.628   9.427  20.647  0.00  0.00    +0.000 A 
ATOM      3  O   UNL     1      -0.029  10.406  20.998  0.00  0.00    +0.000 OA
ATOM      4  C   UNL     1       0.676   8.233  21.522  0.00  0.00    +0.000 A 
ATOM      5  C   UNL     1       1.407   7.159  21.209  0.00  0.00    +0.000 A 
ATOM      6  C   UNL     1       2.146   7.116  19.949  0.00  0.00    +0.000 A 
ATOM      7  C   UNL     1       2.974   6.022  19.654  0.00  0.00    +0.000 A 
ATOM      8  C   UNL     1       3.665   5.989  18.439  0.00  0.00    +0.000 A 
ATOM      9  C   UNL     1       3.486   7.001  17.496  0.00  0.00    +0.000 A 
ATOM     10  C   UNL     1       2.675   8.098  17.802  0.00  0.00    +0.000 A 
ATOM     11  C   UNL     1       2.047   8.198  19.052  0.00  0.00    +0.000 A 
ENDROOT
BRANCH   8  12
ATOM     12  S   UNL     1       4.922   4.766  18.141  0.00  0.00    +0.000 S 
ATOM     13  O   UNL     1       5.651   5.217  16.973  0.00  0.00    +0.000 OA
ATOM     14  O   UNL     1       5.603   4.498  19.391  0.00  0.00    +0.000 OA
BRANCH  12  15
ATOM     15  N   UNL     1       4.037   3.372  17.711  0.00  0.00    +0.000 NA
ATOM     16  C   UNL     1       2.767   3.598  16.978  0.00  0.00    +0.000 C 
ATOM     17  C   UNL     1       1.698   3.537  18.054  0.00  0.00    +0.000 C 
ATOM     18  C   UNL     1       2.195   2.455  18.992  0.00  0.00    +0.000 C 
ATOM     19  C   UNL     1       3.714   2.467  18.856  0.00  0.00    +0.000 C 
ENDBRANCH  12  15
ENDBRANCH   8  12
BRANCH   1  20
ATOM     20  C   UNL     1       1.540  10.638  18.758  0.00  0.00    +0.000 C 
BRANCH  20  22
ATOM     21  N   UNL     1      -0.756  10.363  17.928  0.00  0.00    +0.000 N 
ATOM     22  C   UNL     1       0.252  11.268  18.237  0.00  0.00    +0.000 C 
ATOM     23  O   UNL     1       0.167  12.497  18.206  0.00  0.00    +0.000 OA
ATOM     24  H   UNL     1      -0.561   9.394  18.165  0.00  0.00    +0.000 HD
BRANCH  21  30
ATOM     25  C   UNL     1      -5.339  12.415  18.471  0.00  0.00    +0.000 C 
ATOM     26  C   UNL     1      -4.285  11.674  17.687  0.00  0.00    +0.000 A 
ATOM     27  C   UNL     1      -4.587  11.327  16.362  0.00  0.00    +0.000 A 
ATOM     28  C   UNL     1      -3.656  10.657  15.587  0.00  0.00    +0.000 A 
ATOM     29  C   UNL     1      -2.408  10.343  16.119  0.00  0.00    +0.000 A 
ATOM     30  C   UNL     1      -2.052  10.684  17.435  0.00  0.00    +0.000 A 
ATOM     31  C   UNL     1      -3.015  11.340  18.246  0.00  0.00    +0.000 A 
ATOM     32  C   UNL     1      -2.759  11.736  19.680  0.00  0.00    +0.000 C 
ENDBRANCH  21  30
ENDBRANCH  20  22
ENDBRANCH   1  20
TORSDOF 5
ENDMDL
