MODEL 1
REMARK VINA RESULT:      -7.5      0.000      0.000
REMARK  Name = 
REMARK  7 active torsions:
REMARK  status: ('A' for Active; 'I' for Inactive)
REMARK    1  A    between atoms: C_1  and  N_2
REMARK    2  A    between atoms: C_4  and  C_5
REMARK    3  A    between atoms: C_5  and  N_6
REMARK    4  A    between atoms: N_6  and  C_7
REMARK    5  A    between atoms: C_7  and  C_8
REMARK    6  A    between atoms: C_7  and  C_14
REMARK    7  A    between atoms: C_8  and  C_9
REMARK                            x       y       z     vdW  Elec       q    Type
REMARK                         _______ _______ _______ _____ _____    ______ ____
ROOT
ATOM      1  C   UNL     1       3.186   5.774  19.073  0.00  0.00    +0.000 C 
ENDROOT
BRANCH   1   2
ATOM      2  C   UNL     1       2.498   7.143  19.024  0.00  0.00    +0.000 A 
ATOM      3  C   UNL     1       2.476   7.951  17.874  0.00  0.00    +0.000 A 
ATOM      4  C   UNL     1       1.845   9.199  17.880  0.00  0.00    +0.000 A 
ATOM      5  C   UNL     1       1.232   9.671  19.037  0.00  0.00    +0.000 A 
ATOM      6  C   UNL     1       1.222   8.883  20.182  0.00  0.00    +0.000 A 
ATOM      7  C   UNL     1       1.828   7.625  20.168  0.00  0.00    +0.000 A 
ENDBRANCH   1   2
BRANCH   1   8
ATOM      8  N   UNL     1       4.652   5.861  19.257  0.00  0.00    +0.000 NA
ATOM      9  H   UNL     1       5.023   6.431  18.501  0.00  0.00    +0.000 HD
BRANCH   8  10
ATOM     10  C   UNL     1       5.331   4.566  19.175  0.00  0.00    +0.000 C 
BRANCH  10  14
ATOM     11  C   UNL     1       6.406   4.081  14.287  0.00  0.00    +0.000 C 
ATOM     12  N   UNL     1       6.493   4.259  15.716  0.00  0.00    +0.000 N 
ATOM     13  C   UNL     1       5.476   4.172  16.620  0.00  0.00    +0.000 A 
ATOM     14  C   UNL     1       6.019   4.462  17.856  0.00  0.00    +0.000 A 
ATOM     15  C   UNL     1       7.386   4.701  17.572  0.00  0.00    +0.000 A 
ATOM     16  N   UNL     1       7.675   4.575  16.274  0.00  0.00    +0.000 NA
ENDBRANCH  10  14
ENDBRANCH   8  10
ENDBRANCH   1   8
BRANCH   1  17
ATOM     17  C   UNL     1       2.485   4.793  20.056  0.00  0.00    +0.000 C 
BRANCH  17  18
ATOM     18  C   UNL     1       1.550   3.702  19.494  0.00  0.00    +0.000 C 
ATOM     19  C   UNL     1       2.195   2.334  19.692  0.00  0.00    +0.000 C 
ATOM     20  C   UNL     1       2.851   2.037  18.363  0.00  0.00    +0.000 C 
ATOM     21  O   UNL     1       2.112   2.735  17.364  0.00  0.00    +0.000 OA
ATOM     22  C   UNL     1       1.267   3.706  17.996  0.00  0.00    +0.000 C 
ENDBRANCH  17  18
ENDBRANCH   1  17
TORSDOF 6
ENDMDL
MODEL 2
REMARK VINA RESULT:      -7.2      0.538      1.177
REMARK  Name = 
REMARK  7 active torsions:
REMARK  status: ('A' for Active; 'I' for Inactive)
REMARK    1  A    between atoms: C_1  and  N_2
REMARK    2  A    between atoms: C_4  and  C_5
REMARK    3  A    between atoms: C_5  and  N_6
REMARK    4  A    between atoms: N_6  and  C_7
REMARK    5  A    between atoms: C_7  and  C_8
REMARK    6  A    between atoms: C_7  and  C_14
REMARK    7  A    between atoms: C_8  and  C_9
REMARK                            x       y       z     vdW  Elec       q    Type
REMARK                         _______ _______ _______ _____ _____    ______ ____
ROOT
ATOM      1  C   UNL     1       3.238   5.525  19.268  0.00  0.00    +0.000 C 
ENDROOT
BRANCH   1   2
ATOM      2  C   UNL     1       2.534   6.886  19.206  0.00  0.00    +0.000 A 
ATOM      3  C   UNL     1       1.922   7.484  20.321  0.00  0.00    +0.000 A 
ATOM      4  C   UNL     1       1.280   8.723  20.214  0.00  0.00    +0.000 A 
ATOM      5  C   UNL     1       1.228   9.384  18.991  0.00  0.00    +0.000 A 
ATOM      6  C   UNL     1       1.843   8.823  17.878  0.00  0.00    +0.000 A 
ATOM      7  C   UNL     1       2.507   7.600  17.991  0.00  0.00    +0.000 A 
ENDBRANCH   1   2
BRANCH   1   8
ATOM      8  N   UNL     1       4.709   5.632  19.406  0.00  0.00    +0.000 NA
ATOM      9  H   UNL     1       5.016   6.409  18.826  0.00  0.00    +0.000 HD
BRANCH   8  10
ATOM     10  C   UNL     1       5.429   4.448  18.934  0.00  0.00    +0.000 C 
BRANCH  10  14
ATOM     11  C   UNL     1       6.822   4.602  14.105  0.00  0.00    +0.000 C 
ATOM     12  N   UNL     1       6.696   4.845  15.521  0.00  0.00    +0.000 N 
ATOM     13  C   UNL     1       5.931   4.150  16.411  0.00  0.00    +0.000 A 
ATOM     14  C   UNL     1       6.090   4.768  17.636  0.00  0.00    +0.000 A 
ATOM     15  C   UNL     1       6.989   5.827  17.361  0.00  0.00    +0.000 A 
ATOM     16  N   UNL     1       7.360   5.873  16.079  0.00  0.00    +0.000 NA
ENDBRANCH  10  14
ENDBRANCH   8  10
ENDBRANCH   1   8
BRANCH   1  17
ATOM     17  C   UNL     1       2.577   4.562  20.296  0.00  0.00    +0.000 C 
BRANCH  17  18
ATOM     18  C   UNL     1       1.675   3.419  19.785  0.00  0.00    +0.000 C 
ATOM     19  C   UNL     1       2.460   2.112  19.802  0.00  0.00    +0.000 C 
ATOM     20  C   UNL     1       2.953   1.957  18.381  0.00  0.00    +0.000 C 
ATOM     21  O   UNL     1       2.025   2.635  17.538  0.00  0.00    +0.000 OA
ATOM     22  C   UNL     1       1.191   3.482  18.340  0.00  0.00    +0.000 C 
ENDBRANCH  17  18
ENDBRANCH   1  17
TORSDOF 6
ENDMDL
MODEL 3
REMARK VINA RESULT:      -7.2      1.106      1.674
REMARK  Name = 
REMARK  7 active torsions:
REMARK  status: ('A' for Active; 'I' for Inactive)
REMARK    1  A    between atoms: C_1  and  N_2
REMARK    2  A    between atoms: C_4  and  C_5
REMARK    3  A    between atoms: C_5  and  N_6
REMARK    4  A    between atoms: N_6  and  C_7
REMARK    5  A    between atoms: C_7  and  C_8
REMARK    6  A    between atoms: C_7  and  C_14
REMARK    7  A    between atoms: C_8  and  C_9
REMARK                            x       y       z     vdW  Elec       q    Type
REMARK                         _______ _______ _______ _____ _____    ______ ____
ROOT
ATOM      1  C   UNL     1       2.585   5.998  19.375  0.00  0.00    +0.000 C 
ENDROOT
BRANCH   1   2
ATOM      2  C   UNL     1       2.084   7.443  19.257  0.00  0.00    +0.000 A 
ATOM      3  C   UNL     1       1.479   8.133  20.321  0.00  0.00    +0.000 A 
ATOM      4  C   UNL     1       1.027   9.448  20.164  0.00  0.00    +0.000 A 
ATOM      5  C   UNL     1       1.160  10.096  18.939  0.00  0.00    +0.000 A 
ATOM      6  C   UNL     1       1.773   9.441  17.877  0.00  0.00    +0.000 A 
ATOM      7  C   UNL     1       2.249   8.139  18.042  0.00  0.00    +0.000 A 
ENDBRANCH   1   2
BRANCH   1   8
ATOM      8  N   UNL     1       4.057   5.877  19.266  0.00  0.00    +0.000 NA
ATOM      9  H   UNL     1       4.382   6.628  18.662  0.00  0.00    +0.000 HD
BRANCH   8  10
ATOM     10  C   UNL     1       4.498   4.624  18.651  0.00  0.00    +0.000 C 
BRANCH  10  14
ATOM     11  C   UNL     1       6.388   4.278  14.004  0.00  0.00    +0.000 C 
ATOM     12  N   UNL     1       5.841   4.765  15.247  0.00  0.00    +0.000 N 
ATOM     13  C   UNL     1       5.580   4.040  16.372  0.00  0.00    +0.000 A 
ATOM     14  C   UNL     1       5.022   4.913  17.284  0.00  0.00    +0.000 A 
ATOM     15  C   UNL     1       5.006   6.150  16.596  0.00  0.00    +0.000 A 
ATOM     16  N   UNL     1       5.505   6.063  15.360  0.00  0.00    +0.000 NA
ENDBRANCH  10  14
ENDBRANCH   8  10
ENDBRANCH   1   8
BRANCH   1  17
ATOM     17  C   UNL     1       1.982   5.260  20.604  0.00  0.00    +0.000 C 
BRANCH  17  18
ATOM     18  C   UNL     1       1.015   4.080  20.375  0.00  0.00    +0.000 C 
ATOM     19  C   UNL     1       1.444   2.901  21.243  0.00  0.00    +0.000 C 
ATOM     20  C   UNL     1       2.256   2.030  20.312  0.00  0.00    +0.000 C 
ATOM     21  O   UNL     1       1.775   2.264  18.991  0.00  0.00    +0.000 OA
ATOM     22  C   UNL     1       0.971   3.452  18.986  0.00  0.00    +0.000 C 
ENDBRANCH  17  18
ENDBRANCH   1  17
TORSDOF 6
ENDMDL
MODEL 4
REMARK VINA RESULT:      -7.2      2.805      6.535
REMARK  Name = 
REMARK  7 active torsions:
REMARK  status: ('A' for Active; 'I' for Inactive)
REMARK    1  A    between atoms: C_1  and  N_2
REMARK    2  A    between atoms: C_4  and  C_5
REMARK    3  A    between atoms: C_5  and  N_6
REMARK    4  A    between atoms: N_6  and  C_7
REMARK    5  A    between atoms: C_7  and  C_8
REMARK    6  A    between atoms: C_7  and  C_14
REMARK    7  A    between atoms: C_8  and  C_9
REMARK                            x       y       z     vdW  Elec       q    Type
REMARK                         _______ _______ _______ _____ _____    ______ ____
ROOT
ATOM      1  C   UNL     1       2.899   5.970  17.868  0.00  0.00    +0.000 C 
ENDROOT
BRANCH   1   2
ATOM      2  C   UNL     1       2.157   4.909  18.689  0.00  0.00    +0.000 A 
ATOM      3  C   UNL     1       1.954   5.015  20.075  0.00  0.00    +0.000 A 
ATOM      4  C   UNL     1       1.280   4.016  20.785  0.00  0.00    +0.000 A 
ATOM      5  C   UNL     1       0.803   2.886  20.126  0.00  0.00    +0.000 A 
ATOM      6  C   UNL     1       0.974   2.767  18.752  0.00  0.00    +0.000 A 
ATOM      7  C   UNL     1       1.622   3.777  18.040  0.00  0.00    +0.000 A 
ENDBRANCH   1   2
BRANCH   1   8
ATOM      8  N   UNL     1       3.016   7.273  18.562  0.00  0.00    +0.000 NA
ATOM      9  H   UNL     1       2.548   7.184  19.461  0.00  0.00    +0.000 HD
BRANCH   8  10
ATOM     10  C   UNL     1       2.357   8.374  17.856  0.00  0.00    +0.000 C 
BRANCH  10  14
ATOM     11  C   UNL     1      -0.206   9.941  21.888  0.00  0.00    +0.000 C 
ATOM     12  N   UNL     1       0.270   9.728  20.543  0.00  0.00    +0.000 N 
ATOM     13  C   UNL     1       1.238   8.856  20.141  0.00  0.00    +0.000 A 
ATOM     14  C   UNL     1       1.389   9.033  18.780  0.00  0.00    +0.000 A 
ATOM     15  C   UNL     1       0.443  10.039  18.468  0.00  0.00    +0.000 A 
ATOM     16  N   UNL     1      -0.239  10.460  19.536  0.00  0.00    +0.000 NA
ENDBRANCH  10  14
ENDBRANCH   8  10
ENDBRANCH   1   8
BRANCH   1  17
ATOM     17  C   UNL     1       4.245   5.441  17.294  0.00  0.00    +0.000 C 
BRANCH  17  18
ATOM     18  C   UNL     1       5.074   6.346  16.359  0.00  0.00    +0.000 C 
ATOM     19  C   UNL     1       5.538   5.535  15.153  0.00  0.00    +0.000 C 
ATOM     20  C   UNL     1       6.947   5.116  15.508  0.00  0.00    +0.000 C 
ATOM     21  O   UNL     1       7.467   6.101  16.396  0.00  0.00    +0.000 OA
ATOM     22  C   UNL     1       6.389   6.908  16.889  0.00  0.00    +0.000 C 
ENDBRANCH  17  18
ENDBRANCH   1  17
TORSDOF 6
ENDMDL
MODEL 5
REMARK VINA RESULT:      -7.2      2.698      6.416
REMARK  Name = 
REMARK  7 active torsions:
REMARK  status: ('A' for Active; 'I' for Inactive)
REMARK    1  A    between atoms: C_1  and  N_2
REMARK    2  A    between atoms: C_4  and  C_5
REMARK    3  A    between atoms: C_5  and  N_6
REMARK    4  A    between atoms: N_6  and  C_7
REMARK    5  A    between atoms: C_7  and  C_8
REMARK    6  A    between atoms: C_7  and  C_14
REMARK    7  A    between atoms: C_8  and  C_9
REMARK                            x       y       z     vdW  Elec       q    Type
REMARK                         _______ _______ _______ _____ _____    ______ ____
ROOT
ATOM      1  C   UNL     1       2.801   6.054  17.877  0.00  0.00    +0.000 C 
ENDROOT
BRANCH   1   2
ATOM      2  C   UNL     1       2.125   4.924  18.663  0.00  0.00    +0.000 A 
ATOM      3  C   UNL     1       1.919   4.972  20.052  0.00  0.00    +0.000 A 
ATOM      4  C   UNL     1       1.306   3.911  20.728  0.00  0.00    +0.000 A 
ATOM      5  C   UNL     1       0.897   2.778  20.033  0.00  0.00    +0.000 A 
ATOM      6  C   UNL     1       1.071   2.714  18.655  0.00  0.00    +0.000 A 
ATOM      7  C   UNL     1       1.657   3.785  17.977  0.00  0.00    +0.000 A 
ENDBRANCH   1   2
BRANCH   1   8
ATOM      8  N   UNL     1       2.857   7.333  18.621  0.00  0.00    +0.000 NA
ATOM      9  H   UNL     1       2.205   7.265  19.398  0.00  0.00    +0.000 HD
BRANCH   8  10
ATOM     10  C   UNL     1       2.441   8.491  17.828  0.00  0.00    +0.000 C 
BRANCH  10  14
ATOM     11  C   UNL     1      -1.683  11.109  19.020  0.00  0.00    +0.000 C 
ATOM     12  N   UNL     1      -0.462  10.343  19.074  0.00  0.00    +0.000 N 
ATOM     13  C   UNL     1       0.313   9.954  18.022  0.00  0.00    +0.000 A 
ATOM     14  C   UNL     1       1.347   9.205  18.548  0.00  0.00    +0.000 A 
ATOM     15  C   UNL     1       1.094   9.219  19.941  0.00  0.00    +0.000 A 
ATOM     16  N   UNL     1      -0.002   9.911  20.262  0.00  0.00    +0.000 NA
ENDBRANCH  10  14
ENDBRANCH   8  10
ENDBRANCH   1   8
BRANCH   1  17
ATOM     17  C   UNL     1       4.166   5.619  17.271  0.00  0.00    +0.000 C 
BRANCH  17  18
ATOM     18  C   UNL     1       5.473   6.072  17.954  0.00  0.00    +0.000 C 
ATOM     19  C   UNL     1       6.617   6.007  16.947  0.00  0.00    +0.000 C 
ATOM     20  C   UNL     1       7.283   4.679  17.226  0.00  0.00    +0.000 C 
ATOM     21  O   UNL     1       7.049   4.371  18.598  0.00  0.00    +0.000 OA
ATOM     22  C   UNL     1       6.012   5.224  19.101  0.00  0.00    +0.000 C 
ENDBRANCH  17  18
ENDBRANCH   1  17
TORSDOF 6
ENDMDL
MODEL 6
REMARK VINA RESULT:      -7.1      2.706      6.361
REMARK  Name = 
REMARK  7 active torsions:
REMARK  status: ('A' for Active; 'I' for Inactive)
REMARK    1  A    between atoms: C_1  and  N_2
REMARK    2  A    between atoms: C_4  and  C_5
REMARK    3  A    between atoms: C_5  and  N_6
REMARK    4  A    between atoms: N_6  and  C_7
REMARK    5  A    between atoms: C_7  and  C_8
REMARK    6  A    between atoms: C_7  and  C_14
REMARK    7  A    between atoms: C_8  and  C_9
REMARK                            x       y       z     vdW  Elec       q    Type
REMARK                         _______ _______ _______ _____ _____    ______ ____
ROOT
ATOM      1  C   UNL     1       2.767   5.995  18.060  0.00  0.00    +0.000 C 
ENDROOT
BRANCH   1   2
ATOM      2  C   UNL     1       2.207   4.883  18.955  0.00  0.00    +0.000 A 
ATOM      3  C   UNL     1       1.449   3.809  18.459  0.00  0.00    +0.000 A 
ATOM      4  C   UNL     1       0.949   2.821  19.315  0.00  0.00    +0.000 A 
ATOM      5  C   UNL     1       1.188   2.893  20.684  0.00  0.00    +0.000 A 
ATOM      6  C   UNL     1       1.952   3.934  21.197  0.00  0.00    +0.000 A 
ATOM      7  C   UNL     1       2.474   4.904  20.339  0.00  0.00    +0.000 A 
ENDBRANCH   1   2
BRANCH   1   8
ATOM      8  N   UNL     1       2.831   7.313  18.734  0.00  0.00    +0.000 NA
ATOM      9  H   UNL     1       2.186   7.287  19.520  0.00  0.00    +0.000 HD
BRANCH   8  10
ATOM     10  C   UNL     1       2.410   8.427  17.884  0.00  0.00    +0.000 C 
BRANCH  10  14
ATOM     11  C   UNL     1      -1.672  11.156  18.968  0.00  0.00    +0.000 C 
ATOM     12  N   UNL     1      -0.467  10.367  19.054  0.00  0.00    +0.000 N 
ATOM     13  C   UNL     1       0.310   9.936  18.019  0.00  0.00    +0.000 A 
ATOM     14  C   UNL     1       1.324   9.181  18.574  0.00  0.00    +0.000 A 
ATOM     15  C   UNL     1       1.058   9.236  19.964  0.00  0.00    +0.000 A 
ATOM     16  N   UNL     1      -0.026   9.958  20.257  0.00  0.00    +0.000 NA
ENDBRANCH  10  14
ENDBRANCH   8  10
ENDBRANCH   1   8
BRANCH   1  17
ATOM     17  C   UNL     1       4.092   5.582  17.359  0.00  0.00    +0.000 C 
BRANCH  17  18
ATOM     18  C   UNL     1       5.436   6.078  17.934  0.00  0.00    +0.000 C 
ATOM     19  C   UNL     1       6.514   5.972  16.860  0.00  0.00    +0.000 C 
ATOM     20  C   UNL     1       7.209   4.664  17.159  0.00  0.00    +0.000 C 
ATOM     21  O   UNL     1       7.067   4.422  18.556  0.00  0.00    +0.000 OA
ATOM     22  C   UNL     1       6.055   5.290  19.084  0.00  0.00    +0.000 C 
ENDBRANCH  17  18
ENDBRANCH   1  17
TORSDOF 6
ENDMDL
MODEL 7
REMARK VINA RESULT:      -7.1      2.761      6.423
REMARK  Name = 
REMARK  7 active torsions:
REMARK  status: ('A' for Active; 'I' for Inactive)
REMARK    1  A    between atoms: C_1  and  N_2
REMARK    2  A    between atoms: C_4  and  C_5
REMARK    3  A    between atoms: C_5  and  N_6
REMARK    4  A    between atoms: N_6  and  C_7
REMARK    5  A    between atoms: C_7  and  C_8
REMARK    6  A    between atoms: C_7  and  C_14
REMARK    7  A    between atoms: C_8  and  C_9
REMARK                            x       y       z     vdW  Elec       q    Type
REMARK                         _______ _______ _______ _____ _____    ______ ____
ROOT
ATOM      1  C   UNL     1       3.239   6.157  18.070  0.00  0.00    +0.000 C 
ENDROOT
BRANCH   1   2
ATOM      2  C   UNL     1       2.391   5.030  18.671  0.00  0.00    +0.000 A 
ATOM      3  C   UNL     1       1.934   3.932  17.923  0.00  0.00    +0.000 A 
ATOM      4  C   UNL     1       1.153   2.931  18.512  0.00  0.00    +0.000 A 
ATOM      5  C   UNL     1       0.804   3.013  19.857  0.00  0.00    +0.000 A 
ATOM      6  C   UNL     1       1.260   4.079  20.623  0.00  0.00    +0.000 A 
ATOM      7  C   UNL     1       2.063   5.063  20.042  0.00  0.00    +0.000 A 
ENDBRANCH   1   2
BRANCH   1   8
ATOM      8  N   UNL     1       2.961   7.483  18.669  0.00  0.00    +0.000 NA
ATOM      9  H   UNL     1       2.410   7.330  19.510  0.00  0.00    +0.000 HD
BRANCH   8  10
ATOM     10  C   UNL     1       2.168   8.361  17.806  0.00  0.00    +0.000 C 
BRANCH  10  14
ATOM     11  C   UNL     1      -1.467  11.406  19.480  0.00  0.00    +0.000 C 
ATOM     12  N   UNL     1      -0.358  10.487  19.390  0.00  0.00    +0.000 N 
ATOM     13  C   UNL     1       0.276  10.070  18.256  0.00  0.00    +0.000 A 
ATOM     14  C   UNL     1       1.237   9.162  18.652  0.00  0.00    +0.000 A 
ATOM     15  C   UNL     1       1.095   9.118  20.061  0.00  0.00    +0.000 A 
ATOM     16  N   UNL     1       0.130   9.924  20.510  0.00  0.00    +0.000 NA
ENDBRANCH  10  14
ENDBRANCH   8  10
ENDBRANCH   1   8
BRANCH   1  17
ATOM     17  C   UNL     1       4.751   5.796  18.015  0.00  0.00    +0.000 C 
BRANCH  17  18
ATOM     18  C   UNL     1       5.576   6.196  16.774  0.00  0.00    +0.000 C 
ATOM     19  C   UNL     1       5.307   5.202  15.648  0.00  0.00    +0.000 C 
ATOM     20  C   UNL     1       6.458   4.226  15.731  0.00  0.00    +0.000 C 
ATOM     21  O   UNL     1       7.564   4.926  16.295  0.00  0.00    +0.000 OA
ATOM     22  C   UNL     1       7.097   6.149  16.881  0.00  0.00    +0.000 C 
ENDBRANCH  17  18
ENDBRANCH   1  17
TORSDOF 6
ENDMDL
MODEL 8
REMARK VINA RESULT:      -7.1      1.070      1.647
REMARK  Name = 
REMARK  7 active torsions:
REMARK  status: ('A' for Active; 'I' for Inactive)
REMARK    1  A    between atoms: C_1  and  N_2
REMARK    2  A    between atoms: C_4  and  C_5
REMARK    3  A    between atoms: C_5  and  N_6
REMARK    4  A    between atoms: N_6  and  C_7
REMARK    5  A    between atoms: C_7  and  C_8
REMARK    6  A    between atoms: C_7  and  C_14
REMARK    7  A    between atoms: C_8  and  C_9
REMARK                            x       y       z     vdW  Elec       q    Type
REMARK                         _______ _______ _______ _____ _____    ______ ____
ROOT
ATOM      1  C   UNL     1       2.805   6.487  18.178  0.00  0.00    +0.000 C 
ENDROOT
BRANCH   1   2
ATOM      2  C   UNL     1       2.100   7.714  18.770  0.00  0.00    +0.000 A 
ATOM      3  C   UNL     1       1.762   7.823  20.129  0.00  0.00    +0.000 A 
ATOM      4  C   UNL     1       1.108   8.958  20.622  0.00  0.00    +0.000 A 
ATOM      5  C   UNL     1       0.771  10.001  19.765  0.00  0.00    +0.000 A 
ATOM      6  C   UNL     1       1.113   9.926  18.420  0.00  0.00    +0.000 A 
ATOM      7  C   UNL     1       1.789   8.806  17.934  0.00  0.00    +0.000 A 
ENDBRANCH   1   2
BRANCH   1   8
ATOM      8  N   UNL     1       4.180   6.770  17.709  0.00  0.00    +0.000 NA
ATOM      9  H   UNL     1       4.180   6.693  16.695  0.00  0.00    +0.000 HD
BRANCH   8  10
ATOM     10  C   UNL     1       5.176   5.816  18.200  0.00  0.00    +0.000 C 
BRANCH  10  14
ATOM     11  C   UNL     1       6.407   3.980  13.684  0.00  0.00    +0.000 C 
ATOM     12  N   UNL     1       6.434   4.419  15.058  0.00  0.00    +0.000 N 
ATOM     13  C   UNL     1       5.381   4.862  15.802  0.00  0.00    +0.000 A 
ATOM     14  C   UNL     1       5.889   5.215  17.036  0.00  0.00    +0.000 A 
ATOM     15  C   UNL     1       7.271   4.931  16.921  0.00  0.00    +0.000 A 
ATOM     16  N   UNL     1       7.603   4.445  15.723  0.00  0.00    +0.000 NA
ENDBRANCH  10  14
ENDBRANCH   8  10
ENDBRANCH   1   8
BRANCH   1  17
ATOM     17  C   UNL     1       2.700   5.241  19.104  0.00  0.00    +0.000 C 
BRANCH  17  18
ATOM     18  C   UNL     1       1.538   4.246  18.900  0.00  0.00    +0.000 C 
ATOM     19  C   UNL     1       0.913   3.917  20.253  0.00  0.00    +0.000 C 
ATOM     20  C   UNL     1       1.565   2.612  20.654  0.00  0.00    +0.000 C 
ATOM     21  O   UNL     1       1.929   1.937  19.453  0.00  0.00    +0.000 OA
ATOM     22  C   UNL     1       1.869   2.861  18.357  0.00  0.00    +0.000 C 
ENDBRANCH  17  18
ENDBRANCH   1  17
TORSDOF 6
ENDMDL
MODEL 9
REMARK VINA RESULT:      -7.0      2.167      5.433
REMARK  Name = 
REMARK  7 active torsions:
REMARK  status: ('A' for Active; 'I' for Inactive)
REMARK    1  A    between atoms: C_1  and  N_2
REMARK    2  A    between atoms: C_4  and  C_5
REMARK    3  A    between atoms: C_5  and  N_6
REMARK    4  A    between atoms: N_6  and  C_7
REMARK    5  A    between atoms: C_7  and  C_8
REMARK    6  A    between atoms: C_7  and  C_14
REMARK    7  A    between atoms: C_8  and  C_9
REMARK                            x       y       z     vdW  Elec       q    Type
REMARK                         _______ _______ _______ _____ _____    ______ ____
ROOT
ATOM      1  C   UNL     1       4.145   4.682  19.021  0.00  0.00    +0.000 C 
ENDROOT
BRANCH   1   2
ATOM      2  C   UNL     1       5.074   4.832  17.810  0.00  0.00    +0.000 A 
ATOM      3  C   UNL     1       6.168   5.714  17.788  0.00  0.00    +0.000 A 
ATOM      4  C   UNL     1       6.982   5.826  16.656  0.00  0.00    +0.000 A 
ATOM      5  C   UNL     1       6.715   5.067  15.520  0.00  0.00    +0.000 A 
ATOM      6  C   UNL     1       5.650   4.174  15.524  0.00  0.00    +0.000 A 
ATOM      7  C   UNL     1       4.855   4.042  16.664  0.00  0.00    +0.000 A 
ENDBRANCH   1   2
BRANCH   1   8
ATOM      8  N   UNL     1       3.854   5.966  19.699  0.00  0.00    +0.000 NA
ATOM      9  H   UNL     1       4.203   5.896  20.651  0.00  0.00    +0.000 HD
BRANCH   8  10
ATOM     10  C   UNL     1       2.424   6.263  19.800  0.00  0.00    +0.000 C 
BRANCH  10  14
ATOM     11  C   UNL     1       1.071  10.995  18.767  0.00  0.00    +0.000 C 
ATOM     12  N   UNL     1       1.570   9.644  18.681  0.00  0.00    +0.000 N 
ATOM     13  C   UNL     1       1.510   8.681  19.645  0.00  0.00    +0.000 A 
ATOM     14  C   UNL     1       2.152   7.570  19.135  0.00  0.00    +0.000 A 
ATOM     15  C   UNL     1       2.553   7.982  17.841  0.00  0.00    +0.000 A 
ATOM     16  N   UNL     1       2.197   9.239  17.562  0.00  0.00    +0.000 NA
ENDBRANCH  10  14
ENDBRANCH   8  10
ENDBRANCH   1   8
BRANCH   1  17
ATOM     17  C   UNL     1       2.878   3.841  18.694  0.00  0.00    +0.000 C 
BRANCH  17  18
ATOM     18  C   UNL     1       2.600   2.554  19.499  0.00  0.00    +0.000 C 
ATOM     19  C   UNL     1       1.212   2.642  20.127  0.00  0.00    +0.000 C 
ATOM     20  C   UNL     1       1.474   3.114  21.540  0.00  0.00    +0.000 C 
ATOM     21  O   UNL     1       2.781   2.671  21.896  0.00  0.00    +0.000 OA
ATOM     22  C   UNL     1       3.479   2.265  20.711  0.00  0.00    +0.000 C 
ENDBRANCH  17  18
ENDBRANCH   1  17
TORSDOF 6
ENDMDL
