MODEL 1
REMARK VINA RESULT:      -7.8      0.000      0.000
REMARK  Name = 
REMARK  7 active torsions:
REMARK  status: ('A' for Active; 'I' for Inactive)
REMARK    1  A    between atoms: C_2  and  O_3
REMARK    2  A    between atoms: C_2  and  C_4
REMARK    3  A    between atoms: C_4  and  C_5
REMARK    4  A    between atoms: C_5  and  C_6
REMARK    5  A    between atoms: C_6  and  N_7
REMARK    6  A    between atoms: C_12  and  C_13
REMARK    7  A    between atoms: C_14  and  C_15
REMARK                            x       y       z     vdW  Elec       q    Type
REMARK                         _______ _______ _______ _____ _____    ______ ____
ROOT
ATOM      1  N   UNL     1       5.292   4.799  17.489  0.00  0.00    +0.000 N 
ATOM      2  C   UNL     1       5.825   4.610  18.735  0.00  0.00    +0.000 C 
ATOM      3  O   UNL     1       5.629   3.663  19.482  0.00  0.00    +0.000 OA
ATOM      4  S   UNL     1       6.911   5.920  19.136  0.00  0.00    +0.000 S 
ATOM      5  C   UNL     1       6.651   6.712  17.629  0.00  0.00    +0.000 C 
ATOM      6  C   UNL     1       7.227   7.844  17.195  0.00  0.00    +0.000 C 
ATOM      7  C   UNL     1       5.673   5.939  16.812  0.00  0.00    +0.000 C 
ATOM      8  O   UNL     1       5.286   6.281  15.706  0.00  0.00    +0.000 OA
ENDROOT
BRANCH   6   9
ATOM      9  C   UNL     1       8.220   8.610  17.920  0.00  0.00    +0.000 C 
ATOM     10  C   UNL     1       8.257   9.952  17.950  0.00  0.00    +0.000 C 
BRANCH  10  11
ATOM     11  C   UNL     1       9.344  10.643  18.647  0.00  0.00    +0.000 A 
ATOM     12  C   UNL     1      10.464  11.073  17.926  0.00  0.00    +0.000 A 
ATOM     13  C   UNL     1      11.530  11.692  18.584  0.00  0.00    +0.000 A 
ATOM     14  C   UNL     1      11.479  11.888  19.962  0.00  0.00    +0.000 A 
ATOM     15  C   UNL     1      10.364  11.465  20.685  0.00  0.00    +0.000 A 
ATOM     16  C   UNL     1       9.299  10.840  20.031  0.00  0.00    +0.000 A 
ENDBRANCH  10  11
ENDBRANCH   6   9
BRANCH   1  17
ATOM     17  C   UNL     1       4.360   3.844  16.916  0.00  0.00    +0.000 C 
BRANCH  17  18
ATOM     18  C   UNL     1       2.943   3.944  17.493  0.00  0.00    +0.000 C 
BRANCH  18  19
ATOM     19  C   UNL     1       2.581   2.847  18.502  0.00  0.00    +0.000 C 
BRANCH  19  21
ATOM     20  O   UNL     1       0.863   3.840  19.901  0.00  0.00    +0.000 OA
ATOM     21  C   UNL     1       1.177   3.037  19.034  0.00  0.00    +0.000 C 
BRANCH  21  22
ATOM     22  O   UNL     1       0.271   2.223  18.449  0.00  0.00    +0.000 OA
ATOM     23  H   UNL     1      -0.451   1.926  19.035  0.00  0.00    +0.000 HD
ENDBRANCH  21  22
ENDBRANCH  19  21
ENDBRANCH  18  19
ENDBRANCH  17  18
ENDBRANCH   1  17
TORSDOF 7
ENDMDL
MODEL 2
REMARK VINA RESULT:      -7.7      0.658      1.380
REMARK  Name = 
REMARK  7 active torsions:
REMARK  status: ('A' for Active; 'I' for Inactive)
REMARK    1  A    between atoms: C_2  and  O_3
REMARK    2  A    between atoms: C_2  and  C_4
REMARK    3  A    between atoms: C_4  and  C_5
REMARK    4  A    between atoms: C_5  and  C_6
REMARK    5  A    between atoms: C_6  and  N_7
REMARK    6  A    between atoms: C_12  and  C_13
REMARK    7  A    between atoms: C_14  and  C_15
REMARK                            x       y       z     vdW  Elec       q    Type
REMARK                         _______ _______ _______ _____ _____    ______ ____
ROOT
ATOM      1  N   UNL     1       5.219   4.598  17.553  0.00  0.00    +0.000 N 
ATOM      2  C   UNL     1       5.733   4.441  18.810  0.00  0.00    +0.000 C 
ATOM      3  O   UNL     1       5.528   3.513  19.578  0.00  0.00    +0.000 OA
ATOM      4  S   UNL     1       6.808   5.765  19.197  0.00  0.00    +0.000 S 
ATOM      5  C   UNL     1       6.569   6.519  17.666  0.00  0.00    +0.000 C 
ATOM      6  C   UNL     1       7.148   7.642  17.214  0.00  0.00    +0.000 C 
ATOM      7  C   UNL     1       5.607   5.722  16.854  0.00  0.00    +0.000 C 
ATOM      8  O   UNL     1       5.236   6.035  15.734  0.00  0.00    +0.000 OA
ENDROOT
BRANCH   6   9
ATOM      9  C   UNL     1       8.127   8.430  17.935  0.00  0.00    +0.000 C 
ATOM     10  C   UNL     1       8.221   9.766  17.853  0.00  0.00    +0.000 C 
BRANCH  10  11
ATOM     11  C   UNL     1       9.291  10.473  18.559  0.00  0.00    +0.000 A 
ATOM     12  C   UNL     1       9.238  10.595  19.953  0.00  0.00    +0.000 A 
ATOM     13  C   UNL     1      10.226  11.307  20.636  0.00  0.00    +0.000 A 
ATOM     14  C   UNL     1      11.274  11.898  19.931  0.00  0.00    +0.000 A 
ATOM     15  C   UNL     1      11.334  11.777  18.543  0.00  0.00    +0.000 A 
ATOM     16  C   UNL     1      10.343  11.069  17.856  0.00  0.00    +0.000 A 
ENDBRANCH  10  11
ENDBRANCH   6   9
BRANCH   1  17
ATOM     17  C   UNL     1       4.299   3.625  16.989  0.00  0.00    +0.000 C 
BRANCH  17  18
ATOM     18  C   UNL     1       2.826   4.037  17.094  0.00  0.00    +0.000 C 
BRANCH  18  19
ATOM     19  C   UNL     1       2.311   4.222  18.526  0.00  0.00    +0.000 C 
BRANCH  19  21
ATOM     20  O   UNL     1       1.335   2.011  18.757  0.00  0.00    +0.000 OA
ATOM     21  C   UNL     1       2.068   2.886  19.194  0.00  0.00    +0.000 C 
BRANCH  21  22
ATOM     22  O   UNL     1       2.753   2.736  20.349  0.00  0.00    +0.000 OA
ATOM     23  H   UNL     1       3.181   1.866  20.461  0.00  0.00    +0.000 HD
ENDBRANCH  21  22
ENDBRANCH  19  21
ENDBRANCH  18  19
ENDBRANCH  17  18
ENDBRANCH   1  17
TORSDOF 7
ENDMDL
MODEL 3
REMARK VINA RESULT:      -7.7      1.062      1.414
REMARK  Name = 
REMARK  7 active torsions:
REMARK  status: ('A' for Active; 'I' for Inactive)
REMARK    1  A    between atoms: C_2  and  O_3
REMARK    2  A    between atoms: C_2  and  C_4
REMARK    3  A    between atoms: C_4  and  C_5
REMARK    4  A    between atoms: C_5  and  C_6
REMARK    5  A    between atoms: C_6  and  N_7
REMARK    6  A    between atoms: C_12  and  C_13
REMARK    7  A    between atoms: C_14  and  C_15
REMARK                            x       y       z     vdW  Elec       q    Type
REMARK                         _______ _______ _______ _____ _____    ______ ____
ROOT
ATOM      1  N   UNL     1       5.435   4.998  17.309  0.00  0.00    +0.000 N 
ATOM      2  C   UNL     1       6.009   4.723  18.520  0.00  0.00    +0.000 C 
ATOM      3  O   UNL     1       5.865   3.711  19.189  0.00  0.00    +0.000 OA
ATOM      4  S   UNL     1       7.061   6.033  19.004  0.00  0.00    +0.000 S 
ATOM      5  C   UNL     1       6.733   6.939  17.576  0.00  0.00    +0.000 C 
ATOM      6  C   UNL     1       7.259   8.123  17.226  0.00  0.00    +0.000 C 
ATOM      7  C   UNL     1       5.759   6.203  16.722  0.00  0.00    +0.000 C 
ATOM      8  O   UNL     1       5.330   6.623  15.659  0.00  0.00    +0.000 OA
ENDROOT
BRANCH   6   9
ATOM      9  C   UNL     1       8.246   8.861  17.988  0.00  0.00    +0.000 C 
ATOM     10  C   UNL     1       8.479  10.174  17.841  0.00  0.00    +0.000 C 
BRANCH  10  11
ATOM     11  C   UNL     1       9.551  10.822  18.600  0.00  0.00    +0.000 A 
ATOM     12  C   UNL     1      10.697  11.272  17.934  0.00  0.00    +0.000 A 
ATOM     13  C   UNL     1      11.747  11.849  18.650  0.00  0.00    +0.000 A 
ATOM     14  C   UNL     1      11.656  11.983  20.034  0.00  0.00    +0.000 A 
ATOM     15  C   UNL     1      10.516  11.540  20.704  0.00  0.00    +0.000 A 
ATOM     16  C   UNL     1       9.466  10.957  19.990  0.00  0.00    +0.000 A 
ENDBRANCH  10  11
ENDBRANCH   6   9
BRANCH   1  17
ATOM     17  C   UNL     1       4.519   4.061  16.681  0.00  0.00    +0.000 C 
BRANCH  17  18
ATOM     18  C   UNL     1       3.183   3.917  17.418  0.00  0.00    +0.000 C 
BRANCH  18  19
ATOM     19  C   UNL     1       2.611   5.228  17.974  0.00  0.00    +0.000 C 
BRANCH  19  21
ATOM     20  O   UNL     1       2.316   4.253  20.178  0.00  0.00    +0.000 OA
ATOM     21  C   UNL     1       2.603   5.220  19.487  0.00  0.00    +0.000 C 
BRANCH  21  22
ATOM     22  O   UNL     1       2.953   6.408  20.027  0.00  0.00    +0.000 OA
ATOM     23  H   UNL     1       3.596   6.922  19.503  0.00  0.00    +0.000 HD
ENDBRANCH  21  22
ENDBRANCH  19  21
ENDBRANCH  18  19
ENDBRANCH  17  18
ENDBRANCH   1  17
TORSDOF 7
ENDMDL
MODEL 4
REMARK VINA RESULT:      -7.6      1.232      1.814
REMARK  Name = 
REMARK  7 active torsions:
REMARK  status: ('A' for Active; 'I' for Inactive)
REMARK    1  A    between atoms: C_2  and  O_3
REMARK    2  A    between atoms: C_2  and  C_4
REMARK    3  A    between atoms: C_4  and  C_5
REMARK    4  A    between atoms: C_5  and  C_6
REMARK    5  A    between atoms: C_6  and  N_7
REMARK    6  A    between atoms: C_12  and  C_13
REMARK    7  A    between atoms: C_14  and  C_15
REMARK                            x       y       z     vdW  Elec       q    Type
REMARK                         _______ _______ _______ _____ _____    ______ ____
ROOT
ATOM      1  N   UNL     1       5.373   4.962  17.321  0.00  0.00    +0.000 N 
ATOM      2  C   UNL     1       5.962   4.673  18.522  0.00  0.00    +0.000 C 
ATOM      3  O   UNL     1       5.808   3.663  19.192  0.00  0.00    +0.000 OA
ATOM      4  S   UNL     1       7.051   5.959  18.989  0.00  0.00    +0.000 S 
ATOM      5  C   UNL     1       6.718   6.875  17.568  0.00  0.00    +0.000 C 
ATOM      6  C   UNL     1       7.263   8.047  17.211  0.00  0.00    +0.000 C 
ATOM      7  C   UNL     1       5.714   6.161  16.730  0.00  0.00    +0.000 C 
ATOM      8  O   UNL     1       5.276   6.592  15.675  0.00  0.00    +0.000 OA
ENDROOT
BRANCH   6   9
ATOM      9  C   UNL     1       8.279   8.762  17.957  0.00  0.00    +0.000 C 
ATOM     10  C   UNL     1       8.424  10.096  17.938  0.00  0.00    +0.000 C 
BRANCH  10  11
ATOM     11  C   UNL     1       9.528  10.728  18.664  0.00  0.00    +0.000 A 
ATOM     12  C   UNL     1       9.425  10.922  20.046  0.00  0.00    +0.000 A 
ATOM     13  C   UNL     1      10.449  11.565  20.745  0.00  0.00    +0.000 A 
ATOM     14  C   UNL     1      11.581  12.014  20.067  0.00  0.00    +0.000 A 
ATOM     15  C   UNL     1      11.690  11.820  18.691  0.00  0.00    +0.000 A 
ATOM     16  C   UNL     1      10.665  11.182  17.988  0.00  0.00    +0.000 A 
ENDBRANCH  10  11
ENDBRANCH   6   9
BRANCH   1  17
ATOM     17  C   UNL     1       4.427   4.047  16.707  0.00  0.00    +0.000 C 
BRANCH  17  18
ATOM     18  C   UNL     1       3.249   3.678  17.616  0.00  0.00    +0.000 C 
BRANCH  18  19
ATOM     19  C   UNL     1       2.165   4.757  17.734  0.00  0.00    +0.000 C 
BRANCH  19  21
ATOM     20  O   UNL     1       2.692   5.466  19.996  0.00  0.00    +0.000 OA
ATOM     21  C   UNL     1       2.503   5.753  18.822  0.00  0.00    +0.000 C 
BRANCH  21  22
ATOM     22  O   UNL     1       2.586   7.024  18.373  0.00  0.00    +0.000 OA
ATOM     23  H   UNL     1       2.006   7.229  17.615  0.00  0.00    +0.000 HD
ENDBRANCH  21  22
ENDBRANCH  19  21
ENDBRANCH  18  19
ENDBRANCH  17  18
ENDBRANCH   1  17
TORSDOF 7
ENDMDL
MODEL 5
REMARK VINA RESULT:      -7.3      2.070      3.537
REMARK  Name = 
REMARK  7 active torsions:
REMARK  status: ('A' for Active; 'I' for Inactive)
REMARK    1  A    between atoms: C_2  and  O_3
REMARK    2  A    between atoms: C_2  and  C_4
REMARK    3  A    between atoms: C_4  and  C_5
REMARK    4  A    between atoms: C_5  and  C_6
REMARK    5  A    between atoms: C_6  and  N_7
REMARK    6  A    between atoms: C_12  and  C_13
REMARK    7  A    between atoms: C_14  and  C_15
REMARK                            x       y       z     vdW  Elec       q    Type
REMARK                         _______ _______ _______ _____ _____    ______ ____
ROOT
ATOM      1  N   UNL     1       5.403   5.292  17.451  0.00  0.00    +0.000 N 
ATOM      2  C   UNL     1       6.070   4.947  18.594  0.00  0.00    +0.000 C 
ATOM      3  O   UNL     1       5.937   3.919  19.241  0.00  0.00    +0.000 OA
ATOM      4  S   UNL     1       7.227   6.187  19.020  0.00  0.00    +0.000 S 
ATOM      5  C   UNL     1       6.816   7.159  17.658  0.00  0.00    +0.000 C 
ATOM      6  C   UNL     1       7.367   8.329  17.299  0.00  0.00    +0.000 C 
ATOM      7  C   UNL     1       5.733   6.501  16.875  0.00  0.00    +0.000 C 
ATOM      8  O   UNL     1       5.231   6.979  15.870  0.00  0.00    +0.000 OA
ENDROOT
BRANCH   6   9
ATOM      9  C   UNL     1       8.455   8.991  17.989  0.00  0.00    +0.000 C 
ATOM     10  C   UNL     1       8.497  10.310  18.231  0.00  0.00    +0.000 C 
BRANCH  10  11
ATOM     11  C   UNL     1       9.673  10.905  18.869  0.00  0.00    +0.000 A 
ATOM     12  C   UNL     1       9.610  11.292  20.213  0.00  0.00    +0.000 A 
ATOM     13  C   UNL     1      10.708  11.904  20.823  0.00  0.00    +0.000 A 
ATOM     14  C   UNL     1      11.874  12.129  20.094  0.00  0.00    +0.000 A 
ATOM     15  C   UNL     1      11.944  11.742  18.756  0.00  0.00    +0.000 A 
ATOM     16  C   UNL     1      10.845  11.135  18.142  0.00  0.00    +0.000 A 
ENDBRANCH  10  11
ENDBRANCH   6   9
BRANCH   1  17
ATOM     17  C   UNL     1       4.388   4.423  16.880  0.00  0.00    +0.000 C 
BRANCH  17  18
ATOM     18  C   UNL     1       4.846   3.691  15.614  0.00  0.00    +0.000 C 
BRANCH  18  19
ATOM     19  C   UNL     1       6.365   3.650  15.409  0.00  0.00    +0.000 C 
BRANCH  19  21
ATOM     20  O   UNL     1       6.412   3.930  12.997  0.00  0.00    +0.000 OA
ATOM     21  C   UNL     1       6.757   4.313  14.106  0.00  0.00    +0.000 C 
BRANCH  21  22
ATOM     22  O   UNL     1       7.542   5.399  14.276  0.00  0.00    +0.000 OA
ATOM     23  H   UNL     1       7.329   5.939  15.061  0.00  0.00    +0.000 HD
ENDBRANCH  21  22
ENDBRANCH  19  21
ENDBRANCH  18  19
ENDBRANCH  17  18
ENDBRANCH   1  17
TORSDOF 7
ENDMDL
MODEL 6
REMARK VINA RESULT:      -7.3      2.262      3.762
REMARK  Name = 
REMARK  7 active torsions:
REMARK  status: ('A' for Active; 'I' for Inactive)
REMARK    1  A    between atoms: C_2  and  O_3
REMARK    2  A    between atoms: C_2  and  C_4
REMARK    3  A    between atoms: C_4  and  C_5
REMARK    4  A    between atoms: C_5  and  C_6
REMARK    5  A    between atoms: C_6  and  N_7
REMARK    6  A    between atoms: C_12  and  C_13
REMARK    7  A    between atoms: C_14  and  C_15
REMARK                            x       y       z     vdW  Elec       q    Type
REMARK                         _______ _______ _______ _____ _____    ______ ____
ROOT
ATOM      1  N   UNL     1       5.760   5.100  17.017  0.00  0.00    +0.000 N 
ATOM      2  C   UNL     1       6.265   4.764  18.243  0.00  0.00    +0.000 C 
ATOM      3  O   UNL     1       6.111   3.708  18.837  0.00  0.00    +0.000 OA
ATOM      4  S   UNL     1       7.243   6.069  18.875  0.00  0.00    +0.000 S 
ATOM      5  C   UNL     1       6.977   7.056  17.488  0.00  0.00    +0.000 C 
ATOM      6  C   UNL     1       7.486   8.274  17.247  0.00  0.00    +0.000 C 
ATOM      7  C   UNL     1       6.083   6.349  16.528  0.00  0.00    +0.000 C 
ATOM      8  O   UNL     1       5.709   6.824  15.468  0.00  0.00    +0.000 OA
ENDROOT
BRANCH   6   9
ATOM      9  C   UNL     1       8.399   8.988  18.117  0.00  0.00    +0.000 C 
ATOM     10  C   UNL     1       8.655  10.301  18.019  0.00  0.00    +0.000 C 
BRANCH  10  11
ATOM     11  C   UNL     1       9.651  10.925  18.892  0.00  0.00    +0.000 A 
ATOM     12  C   UNL     1       9.325  11.205  20.224  0.00  0.00    +0.000 A 
ATOM     13  C   UNL     1      10.247  11.843  21.057  0.00  0.00    +0.000 A 
ATOM     14  C   UNL     1      11.501  12.200  20.563  0.00  0.00    +0.000 A 
ATOM     15  C   UNL     1      11.833  11.921  19.238  0.00  0.00    +0.000 A 
ATOM     16  C   UNL     1      10.909  11.288  18.401  0.00  0.00    +0.000 A 
ENDBRANCH  10  11
ENDBRANCH   6   9
BRANCH   1  17
ATOM     17  C   UNL     1       4.916   4.181  16.273  0.00  0.00    +0.000 C 
BRANCH  17  18
ATOM     18  C   UNL     1       5.644   3.466  15.128  0.00  0.00    +0.000 C 
BRANCH  18  19
ATOM     19  C   UNL     1       5.221   3.908  13.722  0.00  0.00    +0.000 C 
BRANCH  19  21
ATOM     20  O   UNL     1       7.201   4.343  12.385  0.00  0.00    +0.000 OA
ATOM     21  C   UNL     1       6.294   3.587  12.704  0.00  0.00    +0.000 C 
BRANCH  21  22
ATOM     22  O   UNL     1       6.164   2.356  12.165  0.00  0.00    +0.000 OA
ATOM     23  H   UNL     1       6.673   2.212  11.344  0.00  0.00    +0.000 HD
ENDBRANCH  21  22
ENDBRANCH  19  21
ENDBRANCH  18  19
ENDBRANCH  17  18
ENDBRANCH   1  17
TORSDOF 7
ENDMDL
MODEL 7
REMARK VINA RESULT:      -7.3      1.717      2.300
REMARK  Name = 
REMARK  7 active torsions:
REMARK  status: ('A' for Active; 'I' for Inactive)
REMARK    1  A    between atoms: C_2  and  O_3
REMARK    2  A    between atoms: C_2  and  C_4
REMARK    3  A    between atoms: C_4  and  C_5
REMARK    4  A    between atoms: C_5  and  C_6
REMARK    5  A    between atoms: C_6  and  N_7
REMARK    6  A    between atoms: C_12  and  C_13
REMARK    7  A    between atoms: C_14  and  C_15
REMARK                            x       y       z     vdW  Elec       q    Type
REMARK                         _______ _______ _______ _____ _____    ______ ____
ROOT
ATOM      1  N   UNL     1       4.901   4.765  18.109  0.00  0.00    +0.000 N 
ATOM      2  C   UNL     1       4.096   5.797  17.712  0.00  0.00    +0.000 C 
ATOM      3  O   UNL     1       2.883   5.770  17.567  0.00  0.00    +0.000 OA
ATOM      4  S   UNL     1       5.044   7.246  17.468  0.00  0.00    +0.000 S 
ATOM      5  C   UNL     1       6.514   6.462  17.908  0.00  0.00    +0.000 C 
ATOM      6  C   UNL     1       7.736   7.012  17.986  0.00  0.00    +0.000 C 
ATOM      7  C   UNL     1       6.249   5.031  18.226  0.00  0.00    +0.000 C 
ATOM      8  O   UNL     1       7.114   4.232  18.547  0.00  0.00    +0.000 OA
ENDROOT
BRANCH   6   9
ATOM      9  C   UNL     1       8.046   8.405  17.740  0.00  0.00    +0.000 C 
ATOM     10  C   UNL     1       8.802   9.160  18.551  0.00  0.00    +0.000 C 
BRANCH  10  11
ATOM     11  C   UNL     1       9.001  10.582  18.263  0.00  0.00    +0.000 A 
ATOM     12  C   UNL     1      10.187  11.209  18.661  0.00  0.00    +0.000 A 
ATOM     13  C   UNL     1      10.372  12.575  18.435  0.00  0.00    +0.000 A 
ATOM     14  C   UNL     1       9.375  13.319  17.807  0.00  0.00    +0.000 A 
ATOM     15  C   UNL     1       8.193  12.699  17.404  0.00  0.00    +0.000 A 
ATOM     16  C   UNL     1       8.003  11.333  17.634  0.00  0.00    +0.000 A 
ENDBRANCH  10  11
ENDBRANCH   6   9
BRANCH   1  17
ATOM     17  C   UNL     1       4.354   3.447  18.385  0.00  0.00    +0.000 C 
BRANCH  17  18
ATOM     18  C   UNL     1       3.644   3.347  19.741  0.00  0.00    +0.000 C 
BRANCH  18  19
ATOM     19  C   UNL     1       2.459   2.373  19.775  0.00  0.00    +0.000 C 
BRANCH  19  21
ATOM     20  O   UNL     1       1.604   2.456  22.046  0.00  0.00    +0.000 OA
ATOM     21  C   UNL     1       1.478   2.747  20.865  0.00  0.00    +0.000 C 
BRANCH  21  22
ATOM     22  O   UNL     1       0.422   3.454  20.410  0.00  0.00    +0.000 OA
ATOM     23  H   UNL     1       0.473   3.708  19.468  0.00  0.00    +0.000 HD
ENDBRANCH  21  22
ENDBRANCH  19  21
ENDBRANCH  18  19
ENDBRANCH  17  18
ENDBRANCH   1  17
TORSDOF 7
ENDMDL
MODEL 8
REMARK VINA RESULT:      -7.3      4.869      7.307
REMARK  Name = 
REMARK  7 active torsions:
REMARK  status: ('A' for Active; 'I' for Inactive)
REMARK    1  A    between atoms: C_2  and  O_3
REMARK    2  A    between atoms: C_2  and  C_4
REMARK    3  A    between atoms: C_4  and  C_5
REMARK    4  A    between atoms: C_5  and  C_6
REMARK    5  A    between atoms: C_6  and  N_7
REMARK    6  A    between atoms: C_12  and  C_13
REMARK    7  A    between atoms: C_14  and  C_15
REMARK                            x       y       z     vdW  Elec       q    Type
REMARK                         _______ _______ _______ _____ _____    ______ ____
ROOT
ATOM      1  N   UNL     1       4.901   4.866  17.771  0.00  0.00    +0.000 N 
ATOM      2  C   UNL     1       4.578   4.301  18.973  0.00  0.00    +0.000 C 
ATOM      3  O   UNL     1       5.047   3.281  19.456  0.00  0.00    +0.000 OA
ATOM      4  S   UNL     1       3.389   5.277  19.804  0.00  0.00    +0.000 S 
ATOM      5  C   UNL     1       3.337   6.445  18.538  0.00  0.00    +0.000 C 
ATOM      6  C   UNL     1       2.614   7.574  18.503  0.00  0.00    +0.000 C 
ATOM      7  C   UNL     1       4.255   6.038  17.436  0.00  0.00    +0.000 C 
ATOM      8  O   UNL     1       4.401   6.670  16.402  0.00  0.00    +0.000 OA
ENDROOT
BRANCH   6   9
ATOM      9  C   UNL     1       1.746   8.047  19.562  0.00  0.00    +0.000 C 
ATOM     10  C   UNL     1       1.392   9.331  19.724  0.00  0.00    +0.000 C 
BRANCH  10  11
ATOM     11  C   UNL     1       0.571   9.730  20.870  0.00  0.00    +0.000 A 
ATOM     12  C   UNL     1      -0.327  10.796  20.738  0.00  0.00    +0.000 A 
ATOM     13  C   UNL     1      -1.083  11.219  21.834  0.00  0.00    +0.000 A 
ATOM     14  C   UNL     1      -0.947  10.578  23.064  0.00  0.00    +0.000 A 
ATOM     15  C   UNL     1      -0.057   9.514  23.200  0.00  0.00    +0.000 A 
ATOM     16  C   UNL     1       0.705   9.092  22.106  0.00  0.00    +0.000 A 
ENDBRANCH  10  11
ENDBRANCH   6   9
BRANCH   1  17
ATOM     17  C   UNL     1       5.876   4.251  16.887  0.00  0.00    +0.000 C 
BRANCH  17  18
ATOM     18  C   UNL     1       7.283   4.848  17.010  0.00  0.00    +0.000 C 
BRANCH  18  19
ATOM     19  C   UNL     1       7.545   5.612  18.314  0.00  0.00    +0.000 C 
BRANCH  19  21
ATOM     20  O   UNL     1       7.445   7.694  17.068  0.00  0.00    +0.000 OA
ATOM     21  C   UNL     1       7.846   7.070  18.040  0.00  0.00    +0.000 C 
BRANCH  21  22
ATOM     22  O   UNL     1       8.615   7.642  18.992  0.00  0.00    +0.000 OA
ATOM     23  H   UNL     1       9.357   7.090  19.306  0.00  0.00    +0.000 HD
ENDBRANCH  21  22
ENDBRANCH  19  21
ENDBRANCH  18  19
ENDBRANCH  17  18
ENDBRANCH   1  17
TORSDOF 7
ENDMDL
MODEL 9
REMARK VINA RESULT:      -7.1      1.580      2.062
REMARK  Name = 
REMARK  7 active torsions:
REMARK  status: ('A' for Active; 'I' for Inactive)
REMARK    1  A    between atoms: C_2  and  O_3
REMARK    2  A    between atoms: C_2  and  C_4
REMARK    3  A    between atoms: C_4  and  C_5
REMARK    4  A    between atoms: C_5  and  C_6
REMARK    5  A    between atoms: C_6  and  N_7
REMARK    6  A    between atoms: C_12  and  C_13
REMARK    7  A    between atoms: C_14  and  C_15
REMARK                            x       y       z     vdW  Elec       q    Type
REMARK                         _______ _______ _______ _____ _____    ______ ____
ROOT
ATOM      1  N   UNL     1       4.845   4.812  17.199  0.00  0.00    +0.000 N 
ATOM      2  C   UNL     1       3.981   5.836  17.475  0.00  0.00    +0.000 C 
ATOM      3  O   UNL     1       2.767   5.760  17.599  0.00  0.00    +0.000 OA
ATOM      4  S   UNL     1       4.860   7.332  17.686  0.00  0.00    +0.000 S 
ATOM      5  C   UNL     1       6.384   6.576  17.412  0.00  0.00    +0.000 C 
ATOM      6  C   UNL     1       7.596   7.150  17.455  0.00  0.00    +0.000 C 
ATOM      7  C   UNL     1       6.186   5.127  17.126  0.00  0.00    +0.000 C 
ATOM      8  O   UNL     1       7.093   4.352  16.872  0.00  0.00    +0.000 OA
ENDROOT
BRANCH   6   9
ATOM      9  C   UNL     1       7.854   8.539  17.777  0.00  0.00    +0.000 C 
ATOM     10  C   UNL     1       8.878   8.953  18.539  0.00  0.00    +0.000 C 
BRANCH  10  11
ATOM     11  C   UNL     1       9.019  10.371  18.877  0.00  0.00    +0.000 A 
ATOM     12  C   UNL     1       9.323  10.742  20.192  0.00  0.00    +0.000 A 
ATOM     13  C   UNL     1       9.414  12.092  20.541  0.00  0.00    +0.000 A 
ATOM     14  C   UNL     1       9.206  13.076  19.576  0.00  0.00    +0.000 A 
ATOM     15  C   UNL     1       8.906  12.713  18.264  0.00  0.00    +0.000 A 
ATOM     16  C   UNL     1       8.809  11.363  17.914  0.00  0.00    +0.000 A 
ENDBRANCH  10  11
ENDBRANCH   6   9
BRANCH   1  17
ATOM     17  C   UNL     1       4.364   3.458  16.986  0.00  0.00    +0.000 C 
BRANCH  17  18
ATOM     18  C   UNL     1       3.827   2.788  18.257  0.00  0.00    +0.000 C 
BRANCH  18  19
ATOM     19  C   UNL     1       2.526   1.999  18.067  0.00  0.00    +0.000 C 
BRANCH  19  21
ATOM     20  O   UNL     1       0.227   2.241  18.812  0.00  0.00    +0.000 OA
ATOM     21  C   UNL     1       1.370   2.674  18.773  0.00  0.00    +0.000 C 
BRANCH  21  22
ATOM     22  O   UNL     1       1.719   3.830  19.379  0.00  0.00    +0.000 OA
ATOM     23  H   UNL     1       1.776   4.603  18.786  0.00  0.00    +0.000 HD
ENDBRANCH  21  22
ENDBRANCH  19  21
ENDBRANCH  18  19
ENDBRANCH  17  18
ENDBRANCH   1  17
TORSDOF 7
ENDMDL
