MODEL 1
REMARK VINA RESULT:      -8.6      0.000      0.000
REMARK  Name = 
REMARK  6 active torsions:
REMARK  status: ('A' for Active; 'I' for Inactive)
REMARK    1  A    between atoms: C_2  and  O_18
REMARK    2  A    between atoms: N_3  and  C_4
REMARK    3  A    between atoms: C_10  and  C_11
REMARK    4  A    between atoms: N_13  and  O_14
REMARK    5  A    between atoms: O_18  and  C_19
REMARK    6  A    between atoms: C_19  and  C_20
REMARK                            x       y       z     vdW  Elec       q    Type
REMARK                         _______ _______ _______ _____ _____    ______ ____
ROOT
ATOM      1  C   UNL     1       6.218   6.229  16.994  0.00  0.00    +0.000 C 
ATOM      2  C   UNL     1       5.711   5.803  15.616  0.00  0.00    +0.000 C 
ATOM      3  C   UNL     1       5.224   4.349  15.657  0.00  0.00    +0.000 C 
ATOM      4  C   UNL     1       4.314   4.052  16.825  0.00  0.00    +0.000 A 
ATOM      5  C   UNL     1       3.533   2.882  16.816  0.00  0.00    +0.000 A 
ATOM      6  C   UNL     1       2.696   2.573  17.894  0.00  0.00    +0.000 A 
ATOM      7  C   UNL     1       2.642   3.420  19.004  0.00  0.00    +0.000 A 
ATOM      8  C   UNL     1       3.418   4.584  19.018  0.00  0.00    +0.000 A 
ATOM      9  C   UNL     1       4.268   4.895  17.946  0.00  0.00    +0.000 A 
ATOM     10  C   UNL     1       5.061   6.181  18.004  0.00  0.00    +0.000 C 
ENDROOT
BRANCH   1  13
ATOM     11  O   UNL     1       8.315   7.134  18.667  0.00  0.00    +0.000 OA
ATOM     12  C   UNL     1       7.813   7.901  17.854  0.00  0.00    +0.000 C 
ATOM     13  N   UNL     1       6.835   7.550  16.966  0.00  0.00    +0.000 N 
ATOM     14  H   UNL     1       6.402   8.314  16.461  0.00  0.00    +0.000 HD
BRANCH  12  15
ATOM     15  O   UNL     1       8.121   9.211  17.719  0.00  0.00    +0.000 OA
BRANCH  15  16
ATOM     16  C   UNL     1       8.939   9.771  18.757  0.00  0.00    +0.000 C 
BRANCH  16  17
ATOM     17  C   UNL     1       9.528  11.070  18.284  0.00  0.00    +0.000 A 
ATOM     18  C   UNL     1      10.900  11.203  18.050  0.00  0.00    +0.000 A 
ATOM     19  C   UNL     1      11.412  12.420  17.608  0.00  0.00    +0.000 A 
ATOM     20  C   UNL     1      10.529  13.468  17.407  0.00  0.00    +0.000 A 
ATOM     21  N   UNL     1       9.199  13.378  17.618  0.00  0.00    +0.000 NA
ATOM     22  C   UNL     1       8.731  12.184  18.047  0.00  0.00    +0.000 A 
ENDBRANCH  16  17
ENDBRANCH  15  16
ENDBRANCH  12  15
ENDBRANCH   1  13
BRANCH   7  23
ATOM     23  C   UNL     1       1.723   3.095  20.127  0.00  0.00    +0.000 C 
ATOM     24  O   UNL     1       0.510   3.004  19.958  0.00  0.00    +0.000 OA
ATOM     25  N   UNL     1       2.306   2.884  21.356  0.00  0.00    +0.000 N 
ATOM     26  H   UNL     1       3.290   2.676  21.490  0.00  0.00    +0.000 HD
BRANCH  25  27
ATOM     27  O   UNL     1       1.435   2.505  22.401  0.00  0.00    +0.000 OA
ATOM     28  H   UNL     1       1.037   3.366  22.659  0.00  0.00    +0.000 HD
ENDBRANCH  25  27
ENDBRANCH   7  23
TORSDOF 6
ENDMDL
MODEL 2
REMARK VINA RESULT:      -8.3      5.125      7.451
REMARK  Name = 
REMARK  6 active torsions:
REMARK  status: ('A' for Active; 'I' for Inactive)
REMARK    1  A    between atoms: C_2  and  O_18
REMARK    2  A    between atoms: N_3  and  C_4
REMARK    3  A    between atoms: C_10  and  C_11
REMARK    4  A    between atoms: N_13  and  O_14
REMARK    5  A    between atoms: O_18  and  C_19
REMARK    6  A    between atoms: C_19  and  C_20
REMARK                            x       y       z     vdW  Elec       q    Type
REMARK                         _______ _______ _______ _____ _____    ______ ____
ROOT
ATOM      1  C   UNL     1       3.672   6.080  18.770  0.00  0.00    +0.000 C 
ATOM      2  C   UNL     1       2.641   5.327  19.613  0.00  0.00    +0.000 C 
ATOM      3  C   UNL     1       2.062   6.251  20.691  0.00  0.00    +0.000 C 
ATOM      4  C   UNL     1       1.637   7.601  20.164  0.00  0.00    +0.000 A 
ATOM      5  C   UNL     1       0.798   8.417  20.942  0.00  0.00    +0.000 A 
ATOM      6  C   UNL     1       0.405   9.680  20.486  0.00  0.00    +0.000 A 
ATOM      7  C   UNL     1       0.860  10.151  19.251  0.00  0.00    +0.000 A 
ATOM      8  C   UNL     1       1.696   9.343  18.473  0.00  0.00    +0.000 A 
ATOM      9  C   UNL     1       2.103   8.080  18.930  0.00  0.00    +0.000 A 
ATOM     10  C   UNL     1       2.984   7.240  18.034  0.00  0.00    +0.000 C 
ENDROOT
BRANCH   1  13
ATOM     11  O   UNL     1       6.128   4.748  19.222  0.00  0.00    +0.000 OA
ATOM     12  C   UNL     1       5.572   4.642  18.136  0.00  0.00    +0.000 C 
ATOM     13  N   UNL     1       4.361   5.200  17.833  0.00  0.00    +0.000 N 
ATOM     14  H   UNL     1       4.091   5.166  16.858  0.00  0.00    +0.000 HD
BRANCH  12  15
ATOM     15  O   UNL     1       6.068   3.988  17.061  0.00  0.00    +0.000 OA
BRANCH  15  16
ATOM     16  C   UNL     1       5.233   3.981  15.894  0.00  0.00    +0.000 C 
BRANCH  16  17
ATOM     17  C   UNL     1       6.069   4.269  14.679  0.00  0.00    +0.000 A 
ATOM     18  C   UNL     1       5.814   3.642  13.456  0.00  0.00    +0.000 A 
ATOM     19  C   UNL     1       6.605   3.937  12.349  0.00  0.00    +0.000 A 
ATOM     20  C   UNL     1       7.630   4.858  12.501  0.00  0.00    +0.000 A 
ATOM     21  N   UNL     1       7.905   5.486  13.664  0.00  0.00    +0.000 NA
ATOM     22  C   UNL     1       7.119   5.180  14.721  0.00  0.00    +0.000 A 
ENDBRANCH  16  17
ENDBRANCH  15  16
ENDBRANCH  12  15
ENDBRANCH   1  13
BRANCH   7  23
ATOM     23  C   UNL     1       0.406  11.482  18.765  0.00  0.00    +0.000 C 
ATOM     24  O   UNL     1       1.010  12.511  19.054  0.00  0.00    +0.000 OA
ATOM     25  N   UNL     1      -0.713  11.492  17.963  0.00  0.00    +0.000 N 
ATOM     26  H   UNL     1      -1.073  10.677  17.479  0.00  0.00    +0.000 HD
BRANCH  25  27
ATOM     27  O   UNL     1      -1.096  12.750  17.446  0.00  0.00    +0.000 OA
ATOM     28  H   UNL     1      -0.282  13.034  16.973  0.00  0.00    +0.000 HD
ENDBRANCH  25  27
ENDBRANCH   7  23
TORSDOF 6
ENDMDL
MODEL 3
REMARK VINA RESULT:      -8.1      5.202      7.512
REMARK  Name = 
REMARK  6 active torsions:
REMARK  status: ('A' for Active; 'I' for Inactive)
REMARK    1  A    between atoms: C_2  and  O_18
REMARK    2  A    between atoms: N_3  and  C_4
REMARK    3  A    between atoms: C_10  and  C_11
REMARK    4  A    between atoms: N_13  and  O_14
REMARK    5  A    between atoms: O_18  and  C_19
REMARK    6  A    between atoms: C_19  and  C_20
REMARK                            x       y       z     vdW  Elec       q    Type
REMARK                         _______ _______ _______ _____ _____    ______ ____
ROOT
ATOM      1  C   UNL     1       2.416   6.982  18.654  0.00  0.00    +0.000 C 
ATOM      2  C   UNL     1       2.907   8.146  17.793  0.00  0.00    +0.000 C 
ATOM      3  C   UNL     1       1.798   9.193  17.634  0.00  0.00    +0.000 C 
ATOM      4  C   UNL     1       1.126   9.561  18.936  0.00  0.00    +0.000 A 
ATOM      5  C   UNL     1       0.339  10.724  19.007  0.00  0.00    +0.000 A 
ATOM      6  C   UNL     1      -0.310  11.077  20.195  0.00  0.00    +0.000 A 
ATOM      7  C   UNL     1      -0.194  10.263  21.325  0.00  0.00    +0.000 A 
ATOM      8  C   UNL     1       0.588   9.104  21.260  0.00  0.00    +0.000 A 
ATOM      9  C   UNL     1       1.232   8.738  20.068  0.00  0.00    +0.000 A 
ATOM     10  C   UNL     1       2.086   7.491  20.065  0.00  0.00    +0.000 C 
ENDROOT
BRANCH   1  13
ATOM     11  O   UNL     1       2.096   4.408  17.518  0.00  0.00    +0.000 OA
ATOM     12  C   UNL     1       3.107   4.667  18.159  0.00  0.00    +0.000 C 
ATOM     13  N   UNL     1       3.383   5.891  18.702  0.00  0.00    +0.000 N 
ATOM     14  H   UNL     1       4.173   5.926  19.335  0.00  0.00    +0.000 HD
BRANCH  12  15
ATOM     15  O   UNL     1       4.094   3.790  18.455  0.00  0.00    +0.000 OA
BRANCH  15  16
ATOM     16  C   UNL     1       5.418   4.341  18.530  0.00  0.00    +0.000 C 
BRANCH  16  17
ATOM     17  C   UNL     1       5.970   4.506  17.142  0.00  0.00    +0.000 A 
ATOM     18  C   UNL     1       5.520   3.714  16.082  0.00  0.00    +0.000 A 
ATOM     19  C   UNL     1       6.051   3.897  14.808  0.00  0.00    +0.000 A 
ATOM     20  C   UNL     1       7.016   4.876  14.634  0.00  0.00    +0.000 A 
ATOM     21  N   UNL     1       7.472   5.663  15.631  0.00  0.00    +0.000 NA
ATOM     22  C   UNL     1       6.938   5.463  16.858  0.00  0.00    +0.000 A 
ENDBRANCH  16  17
ENDBRANCH  15  16
ENDBRANCH  12  15
ENDBRANCH   1  13
BRANCH   7  23
ATOM     23  C   UNL     1      -0.862  10.670  22.590  0.00  0.00    +0.000 C 
ATOM     24  O   UNL     1      -0.526  10.199  23.674  0.00  0.00    +0.000 OA
ATOM     25  N   UNL     1      -1.859  11.612  22.481  0.00  0.00    +0.000 N 
ATOM     26  H   UNL     1      -1.982  12.220  21.679  0.00  0.00    +0.000 HD
BRANCH  25  27
ATOM     27  O   UNL     1      -2.439  12.047  23.694  0.00  0.00    +0.000 OA
ATOM     28  H   UNL     1      -1.798  12.728  23.995  0.00  0.00    +0.000 HD
ENDBRANCH  25  27
ENDBRANCH   7  23
TORSDOF 6
ENDMDL
MODEL 4
REMARK VINA RESULT:      -8.1      7.271      9.359
REMARK  Name = 
REMARK  6 active torsions:
REMARK  status: ('A' for Active; 'I' for Inactive)
REMARK    1  A    between atoms: C_2  and  O_18
REMARK    2  A    between atoms: N_3  and  C_4
REMARK    3  A    between atoms: C_10  and  C_11
REMARK    4  A    between atoms: N_13  and  O_14
REMARK    5  A    between atoms: O_18  and  C_19
REMARK    6  A    between atoms: C_19  and  C_20
REMARK                            x       y       z     vdW  Elec       q    Type
REMARK                         _______ _______ _______ _____ _____    ______ ____
ROOT
ATOM      1  C   UNL     1       0.932   9.370  20.597  0.00  0.00    +0.000 C 
ATOM      2  C   UNL     1       0.795   9.608  19.092  0.00  0.00    +0.000 C 
ATOM      3  C   UNL     1       2.024   9.063  18.355  0.00  0.00    +0.000 C 
ATOM      4  C   UNL     1       2.409   7.665  18.779  0.00  0.00    +0.000 A 
ATOM      5  C   UNL     1       3.287   6.914  17.976  0.00  0.00    +0.000 A 
ATOM      6  C   UNL     1       3.675   5.624  18.355  0.00  0.00    +0.000 A 
ATOM      7  C   UNL     1       3.205   5.074  19.550  0.00  0.00    +0.000 A 
ATOM      8  C   UNL     1       2.331   5.817  20.352  0.00  0.00    +0.000 A 
ATOM      9  C   UNL     1       1.947   7.115  19.984  0.00  0.00    +0.000 A 
ATOM     10  C   UNL     1       0.979   7.859  20.875  0.00  0.00    +0.000 C 
ENDROOT
BRANCH   1  13
ATOM     11  O   UNL     1       0.829   9.695  23.407  0.00  0.00    +0.000 OA
ATOM     12  C   UNL     1      -0.111  10.072  22.718  0.00  0.00    +0.000 C 
ATOM     13  N   UNL     1      -0.139  10.010  21.353  0.00  0.00    +0.000 N 
ATOM     14  H   UNL     1      -1.032  10.209  20.919  0.00  0.00    +0.000 HD
BRANCH  12  15
ATOM     15  O   UNL     1      -1.273  10.581  23.187  0.00  0.00    +0.000 OA
BRANCH  15  16
ATOM     16  C   UNL     1      -1.429  12.003  23.060  0.00  0.00    +0.000 C 
BRANCH  16  17
ATOM     17  C   UNL     1      -2.891  12.339  22.968  0.00  0.00    +0.000 A 
ATOM     18  C   UNL     1      -3.469  12.740  21.759  0.00  0.00    +0.000 A 
ATOM     19  C   UNL     1      -4.827  13.040  21.709  0.00  0.00    +0.000 A 
ATOM     20  C   UNL     1      -5.569  12.923  22.874  0.00  0.00    +0.000 A 
ATOM     21  N   UNL     1      -5.048  12.536  24.057  0.00  0.00    +0.000 NA
ATOM     22  C   UNL     1      -3.726  12.250  24.076  0.00  0.00    +0.000 A 
ENDBRANCH  16  17
ENDBRANCH  15  16
ENDBRANCH  12  15
ENDBRANCH   1  13
BRANCH   7  23
ATOM     23  C   UNL     1       3.600   3.688  19.922  0.00  0.00    +0.000 C 
ATOM     24  O   UNL     1       2.877   2.980  20.618  0.00  0.00    +0.000 OA
ATOM     25  N   UNL     1       4.806   3.243  19.431  0.00  0.00    +0.000 N 
ATOM     26  H   UNL     1       5.293   3.667  18.649  0.00  0.00    +0.000 HD
BRANCH  25  27
ATOM     27  O   UNL     1       5.141   1.903  19.728  0.00  0.00    +0.000 OA
ATOM     28  H   UNL     1       5.269   1.934  20.702  0.00  0.00    +0.000 HD
ENDBRANCH  25  27
ENDBRANCH   7  23
TORSDOF 6
ENDMDL
MODEL 5
REMARK VINA RESULT:      -8.0      0.979      1.285
REMARK  Name = 
REMARK  6 active torsions:
REMARK  status: ('A' for Active; 'I' for Inactive)
REMARK    1  A    between atoms: C_2  and  O_18
REMARK    2  A    between atoms: N_3  and  C_4
REMARK    3  A    between atoms: C_10  and  C_11
REMARK    4  A    between atoms: N_13  and  O_14
REMARK    5  A    between atoms: O_18  and  C_19
REMARK    6  A    between atoms: C_19  and  C_20
REMARK                            x       y       z     vdW  Elec       q    Type
REMARK                         _______ _______ _______ _____ _____    ______ ____
ROOT
ATOM      1  C   UNL     1       6.387   6.414  17.050  0.00  0.00    +0.000 C 
ATOM      2  C   UNL     1       5.446   6.275  15.852  0.00  0.00    +0.000 C 
ATOM      3  C   UNL     1       4.898   4.846  15.772  0.00  0.00    +0.000 C 
ATOM      4  C   UNL     1       4.381   4.324  17.092  0.00  0.00    +0.000 A 
ATOM      5  C   UNL     1       3.558   3.184  17.114  0.00  0.00    +0.000 A 
ATOM      6  C   UNL     1       3.081   2.669  18.324  0.00  0.00    +0.000 A 
ATOM      7  C   UNL     1       3.435   3.277  19.531  0.00  0.00    +0.000 A 
ATOM      8  C   UNL     1       4.254   4.411  19.515  0.00  0.00    +0.000 A 
ATOM      9  C   UNL     1       4.746   4.926  18.306  0.00  0.00    +0.000 A 
ATOM     10  C   UNL     1       5.603   6.170  18.349  0.00  0.00    +0.000 C 
ENDROOT
BRANCH   1  13
ATOM     11  O   UNL     1       8.475   7.191  18.796  0.00  0.00    +0.000 OA
ATOM     12  C   UNL     1       8.022   7.999  17.995  0.00  0.00    +0.000 C 
ATOM     13  N   UNL     1       7.053   7.712  17.075  0.00  0.00    +0.000 N 
ATOM     14  H   UNL     1       6.661   8.506  16.583  0.00  0.00    +0.000 HD
BRANCH  12  15
ATOM     15  O   UNL     1       8.381   9.300  17.907  0.00  0.00    +0.000 OA
BRANCH  15  16
ATOM     16  C   UNL     1       9.005   9.858  19.073  0.00  0.00    +0.000 C 
BRANCH  16  17
ATOM     17  C   UNL     1       9.544  11.222  18.749  0.00  0.00    +0.000 A 
ATOM     18  C   UNL     1       9.221  12.335  19.531  0.00  0.00    +0.000 A 
ATOM     19  C   UNL     1       9.742  13.585  19.205  0.00  0.00    +0.000 A 
ATOM     20  C   UNL     1      10.577  13.680  18.104  0.00  0.00    +0.000 A 
ATOM     21  N   UNL     1      10.915  12.629  17.327  0.00  0.00    +0.000 NA
ATOM     22  C   UNL     1      10.395  11.427  17.669  0.00  0.00    +0.000 A 
ENDBRANCH  16  17
ENDBRANCH  15  16
ENDBRANCH  12  15
ENDBRANCH   1  13
BRANCH   7  23
ATOM     23  C   UNL     1       2.893   2.737  20.808  0.00  0.00    +0.000 C 
ATOM     24  O   UNL     1       3.612   2.154  21.614  0.00  0.00    +0.000 OA
ATOM     25  N   UNL     1       1.552   2.943  21.039  0.00  0.00    +0.000 N 
ATOM     26  H   UNL     1       0.991   3.638  20.557  0.00  0.00    +0.000 HD
BRANCH  25  27
ATOM     27  O   UNL     1       1.060   2.492  22.284  0.00  0.00    +0.000 OA
ATOM     28  H   UNL     1       1.731   1.820  22.539  0.00  0.00    +0.000 HD
ENDBRANCH  25  27
ENDBRANCH   7  23
TORSDOF 6
ENDMDL
MODEL 6
REMARK VINA RESULT:      -8.0      7.026      8.535
REMARK  Name = 
REMARK  6 active torsions:
REMARK  status: ('A' for Active; 'I' for Inactive)
REMARK    1  A    between atoms: C_2  and  O_18
REMARK    2  A    between atoms: N_3  and  C_4
REMARK    3  A    between atoms: C_10  and  C_11
REMARK    4  A    between atoms: N_13  and  O_14
REMARK    5  A    between atoms: O_18  and  C_19
REMARK    6  A    between atoms: C_19  and  C_20
REMARK                            x       y       z     vdW  Elec       q    Type
REMARK                         _______ _______ _______ _____ _____    ______ ____
ROOT
ATOM      1  C   UNL     1       1.518   8.979  20.376  0.00  0.00    +0.000 C 
ATOM      2  C   UNL     1       1.250   9.196  18.886  0.00  0.00    +0.000 C 
ATOM      3  C   UNL     1       2.346   8.528  18.047  0.00  0.00    +0.000 C 
ATOM      4  C   UNL     1       2.649   7.110  18.472  0.00  0.00    +0.000 A 
ATOM      5  C   UNL     1       3.373   6.267  17.610  0.00  0.00    +0.000 A 
ATOM      6  C   UNL     1       3.684   4.956  17.987  0.00  0.00    +0.000 A 
ATOM      7  C   UNL     1       3.290   4.475  19.239  0.00  0.00    +0.000 A 
ATOM      8  C   UNL     1       2.570   5.311  20.100  0.00  0.00    +0.000 A 
ATOM      9  C   UNL     1       2.265   6.630  19.734  0.00  0.00    +0.000 A 
ATOM     10  C   UNL     1       1.461   7.476  20.693  0.00  0.00    +0.000 C 
ENDROOT
BRANCH   1  13
ATOM     11  O   UNL     1       1.797   9.484  23.147  0.00  0.00    +0.000 OA
ATOM     12  C   UNL     1       0.797   9.873  22.557  0.00  0.00    +0.000 C 
ATOM     13  N   UNL     1       0.589   9.728  21.214  0.00  0.00    +0.000 N 
ATOM     14  H   UNL     1      -0.342   9.954  20.884  0.00  0.00    +0.000 HD
BRANCH  12  15
ATOM     15  O   UNL     1      -0.267  10.480  23.133  0.00  0.00    +0.000 OA
BRANCH  15  16
ATOM     16  C   UNL     1      -1.115  11.226  22.248  0.00  0.00    +0.000 C 
BRANCH  16  17
ATOM     17  C   UNL     1      -1.806  12.316  23.018  0.00  0.00    +0.000 A 
ATOM     18  C   UNL     1      -3.116  12.160  23.481  0.00  0.00    +0.000 A 
ATOM     19  C   UNL     1      -3.724  13.189  24.196  0.00  0.00    +0.000 A 
ATOM     20  C   UNL     1      -2.996  14.345  24.429  0.00  0.00    +0.000 A 
ATOM     21  N   UNL     1      -1.729  14.531  24.002  0.00  0.00    +0.000 NA
ATOM     22  C   UNL     1      -1.164  13.514  23.311  0.00  0.00    +0.000 A 
ENDBRANCH  16  17
ENDBRANCH  15  16
ENDBRANCH  12  15
ENDBRANCH   1  13
BRANCH   7  23
ATOM     23  C   UNL     1       3.599   3.068  19.611  0.00  0.00    +0.000 C 
ATOM     24  O   UNL     1       2.709   2.261  19.861  0.00  0.00    +0.000 OA
ATOM     25  N   UNL     1       4.931   2.721  19.642  0.00  0.00    +0.000 N 
ATOM     26  H   UNL     1       5.667   3.251  19.188  0.00  0.00    +0.000 HD
BRANCH  25  27
ATOM     27  O   UNL     1       5.213   1.366  19.926  0.00  0.00    +0.000 OA
ATOM     28  H   UNL     1       4.948   1.294  20.870  0.00  0.00    +0.000 HD
ENDBRANCH  25  27
ENDBRANCH   7  23
TORSDOF 6
ENDMDL
MODEL 7
REMARK VINA RESULT:      -8.0      5.441      7.971
REMARK  Name = 
REMARK  6 active torsions:
REMARK  status: ('A' for Active; 'I' for Inactive)
REMARK    1  A    between atoms: C_2  and  O_18
REMARK    2  A    between atoms: N_3  and  C_4
REMARK    3  A    between atoms: C_10  and  C_11
REMARK    4  A    between atoms: N_13  and  O_14
REMARK    5  A    between atoms: O_18  and  C_19
REMARK    6  A    between atoms: C_19  and  C_20
REMARK                            x       y       z     vdW  Elec       q    Type
REMARK                         _______ _______ _______ _____ _____    ______ ____
ROOT
ATOM      1  C   UNL     1       2.044   6.132  19.825  0.00  0.00    +0.000 C 
ATOM      2  C   UNL     1       2.082   4.653  20.213  0.00  0.00    +0.000 C 
ATOM      3  C   UNL     1       2.371   3.788  18.979  0.00  0.00    +0.000 C 
ATOM      4  C   UNL     1       3.528   4.292  18.149  0.00  0.00    +0.000 A 
ATOM      5  C   UNL     1       4.119   3.444  17.195  0.00  0.00    +0.000 A 
ATOM      6  C   UNL     1       5.178   3.891  16.399  0.00  0.00    +0.000 A 
ATOM      7  C   UNL     1       5.652   5.199  16.534  0.00  0.00    +0.000 A 
ATOM      8  C   UNL     1       5.067   6.047  17.481  0.00  0.00    +0.000 A 
ATOM      9  C   UNL     1       3.996   5.609  18.274  0.00  0.00    +0.000 A 
ATOM     10  C   UNL     1       3.423   6.560  19.300  0.00  0.00    +0.000 C 
ENDROOT
BRANCH   1  13
ATOM     11  O   UNL     1       1.279   8.852  19.658  0.00  0.00    +0.000 OA
ATOM     12  C   UNL     1       1.315   8.298  20.749  0.00  0.00    +0.000 C 
ATOM     13  N   UNL     1       1.619   6.978  20.934  0.00  0.00    +0.000 N 
ATOM     14  H   UNL     1       1.764   6.687  21.893  0.00  0.00    +0.000 HD
BRANCH  12  15
ATOM     15  O   UNL     1       1.089   8.897  21.941  0.00  0.00    +0.000 OA
BRANCH  15  16
ATOM     16  C   UNL     1      -0.281   9.219  22.229  0.00  0.00    +0.000 C 
BRANCH  16  17
ATOM     17  C   UNL     1      -0.438  10.711  22.312  0.00  0.00    +0.000 A 
ATOM     18  C   UNL     1      -1.420  11.294  23.118  0.00  0.00    +0.000 A 
ATOM     19  C   UNL     1      -1.535  12.680  23.175  0.00  0.00    +0.000 A 
ATOM     20  C   UNL     1      -0.654  13.443  22.424  0.00  0.00    +0.000 A 
ATOM     21  N   UNL     1       0.309  12.917  21.638  0.00  0.00    +0.000 NA
ATOM     22  C   UNL     1       0.397  11.567  21.603  0.00  0.00    +0.000 A 
ENDBRANCH  16  17
ENDBRANCH  15  16
ENDBRANCH  12  15
ENDBRANCH   1  13
BRANCH   7  23
ATOM     23  C   UNL     1       6.802   5.649  15.704  0.00  0.00    +0.000 C 
ATOM     24  O   UNL     1       7.661   6.402  16.154  0.00  0.00    +0.000 OA
ATOM     25  N   UNL     1       6.856   5.163  14.418  0.00  0.00    +0.000 N 
ATOM     26  H   UNL     1       6.347   4.347  14.096  0.00  0.00    +0.000 HD
BRANCH  25  27
ATOM     27  O   UNL     1       7.989   5.537  13.660  0.00  0.00    +0.000 OA
ATOM     28  H   UNL     1       8.535   4.720  13.692  0.00  0.00    +0.000 HD
ENDBRANCH  25  27
ENDBRANCH   7  23
TORSDOF 6
ENDMDL
MODEL 8
REMARK VINA RESULT:      -7.9      5.842      8.163
REMARK  Name = 
REMARK  6 active torsions:
REMARK  status: ('A' for Active; 'I' for Inactive)
REMARK    1  A    between atoms: C_2  and  O_18
REMARK    2  A    between atoms: N_3  and  C_4
REMARK    3  A    between atoms: C_10  and  C_11
REMARK    4  A    between atoms: N_13  and  O_14
REMARK    5  A    between atoms: O_18  and  C_19
REMARK    6  A    between atoms: C_19  and  C_20
REMARK                            x       y       z     vdW  Elec       q    Type
REMARK                         _______ _______ _______ _____ _____    ______ ____
ROOT
ATOM      1  C   UNL     1       2.125   7.646  18.757  0.00  0.00    +0.000 C 
ATOM      2  C   UNL     1       2.267   6.593  19.857  0.00  0.00    +0.000 C 
ATOM      3  C   UNL     1       2.407   5.197  19.240  0.00  0.00    +0.000 C 
ATOM      4  C   UNL     1       3.417   5.133  18.118  0.00  0.00    +0.000 A 
ATOM      5  C   UNL     1       3.895   3.883  17.685  0.00  0.00    +0.000 A 
ATOM      6  C   UNL     1       4.816   3.795  16.635  0.00  0.00    +0.000 A 
ATOM      7  C   UNL     1       5.259   4.954  15.993  0.00  0.00    +0.000 A 
ATOM      8  C   UNL     1       4.786   6.200  16.420  0.00  0.00    +0.000 A 
ATOM      9  C   UNL     1       3.854   6.296  17.464  0.00  0.00    +0.000 A 
ATOM     10  C   UNL     1       3.401   7.669  17.901  0.00  0.00    +0.000 C 
ENDROOT
BRANCH   1  13
ATOM     11  O   UNL     1       0.325   9.542  17.671  0.00  0.00    +0.000 OA
ATOM     12  C   UNL     1       0.978   9.827  18.666  0.00  0.00    +0.000 C 
ATOM     13  N   UNL     1       1.833   8.969  19.299  0.00  0.00    +0.000 N 
ATOM     14  H   UNL     1       2.423   9.378  20.013  0.00  0.00    +0.000 HD
BRANCH  12  15
ATOM     15  O   UNL     1       0.983  11.032  19.283  0.00  0.00    +0.000 OA
BRANCH  15  16
ATOM     16  C   UNL     1      -0.251  11.763  19.234  0.00  0.00    +0.000 C 
BRANCH  16  17
ATOM     17  C   UNL     1      -0.843  11.838  20.613  0.00  0.00    +0.000 A 
ATOM     18  C   UNL     1      -2.106  12.398  20.833  0.00  0.00    +0.000 A 
ATOM     19  C   UNL     1      -2.626  12.447  22.123  0.00  0.00    +0.000 A 
ATOM     20  C   UNL     1      -1.864  11.927  23.157  0.00  0.00    +0.000 A 
ATOM     21  N   UNL     1      -0.644  11.376  22.985  0.00  0.00    +0.000 NA
ATOM     22  C   UNL     1      -0.165  11.342  21.721  0.00  0.00    +0.000 A 
ENDBRANCH  16  17
ENDBRANCH  15  16
ENDBRANCH  12  15
ENDBRANCH   1  13
BRANCH   7  23
ATOM     23  C   UNL     1       6.264   4.845  14.901  0.00  0.00    +0.000 C 
ATOM     24  O   UNL     1       6.086   4.107  13.936  0.00  0.00    +0.000 OA
ATOM     25  N   UNL     1       7.390   5.627  15.025  0.00  0.00    +0.000 N 
ATOM     26  H   UNL     1       7.458   6.434  15.636  0.00  0.00    +0.000 HD
BRANCH  25  27
ATOM     27  O   UNL     1       8.306   5.573  13.950  0.00  0.00    +0.000 OA
ATOM     28  H   UNL     1       8.070   4.719  13.523  0.00  0.00    +0.000 HD
ENDBRANCH  25  27
ENDBRANCH   7  23
TORSDOF 6
ENDMDL
MODEL 9
REMARK VINA RESULT:      -7.8      5.329      7.867
REMARK  Name = 
REMARK  6 active torsions:
REMARK  status: ('A' for Active; 'I' for Inactive)
REMARK    1  A    between atoms: C_2  and  O_18
REMARK    2  A    between atoms: N_3  and  C_4
REMARK    3  A    between atoms: C_10  and  C_11
REMARK    4  A    between atoms: N_13  and  O_14
REMARK    5  A    between atoms: O_18  and  C_19
REMARK    6  A    between atoms: C_19  and  C_20
REMARK                            x       y       z     vdW  Elec       q    Type
REMARK                         _______ _______ _______ _____ _____    ______ ____
ROOT
ATOM      1  C   UNL     1       2.616   6.940  18.421  0.00  0.00    +0.000 C 
ATOM      2  C   UNL     1       2.978   5.884  19.467  0.00  0.00    +0.000 C 
ATOM      3  C   UNL     1       3.252   4.537  18.787  0.00  0.00    +0.000 C 
ATOM      4  C   UNL     1       4.174   4.641  17.594  0.00  0.00    +0.000 A 
ATOM      5  C   UNL     1       4.776   3.480  17.080  0.00  0.00    +0.000 A 
ATOM      6  C   UNL     1       5.619   3.545  15.964  0.00  0.00    +0.000 A 
ATOM      7  C   UNL     1       5.856   4.771  15.338  0.00  0.00    +0.000 A 
ATOM      8  C   UNL     1       5.258   5.930  15.846  0.00  0.00    +0.000 A 
ATOM      9  C   UNL     1       4.403   5.870  16.956  0.00  0.00    +0.000 A 
ATOM     10  C   UNL     1       3.809   7.158  17.478  0.00  0.00    +0.000 C 
ENDROOT
BRANCH   1  13
ATOM     11  O   UNL     1       1.781   9.274  17.054  0.00  0.00    +0.000 OA
ATOM     12  C   UNL     1       1.855   9.281  18.276  0.00  0.00    +0.000 C 
ATOM     13  N   UNL     1       2.195   8.195  19.034  0.00  0.00    +0.000 N 
ATOM     14  H   UNL     1       2.369   8.377  20.015  0.00  0.00    +0.000 HD
BRANCH  12  15
ATOM     15  O   UNL     1       1.641  10.356  19.069  0.00  0.00    +0.000 OA
BRANCH  15  16
ATOM     16  C   UNL     1       0.267  10.711  19.284  0.00  0.00    +0.000 C 
BRANCH  16  17
ATOM     17  C   UNL     1      -0.082  10.507  20.732  0.00  0.00    +0.000 A 
ATOM     18  C   UNL     1      -0.217   9.225  21.273  0.00  0.00    +0.000 A 
ATOM     19  C   UNL     1      -0.536   9.072  22.619  0.00  0.00    +0.000 A 
ATOM     20  C   UNL     1      -0.705  10.214  23.386  0.00  0.00    +0.000 A 
ATOM     21  N   UNL     1      -0.579  11.467  22.902  0.00  0.00    +0.000 NA
ATOM     22  C   UNL     1      -0.268  11.584  21.590  0.00  0.00    +0.000 A 
ENDBRANCH  16  17
ENDBRANCH  15  16
ENDBRANCH  12  15
ENDBRANCH   1  13
BRANCH   7  23
ATOM     23  C   UNL     1       6.781   4.830  14.173  0.00  0.00    +0.000 C 
ATOM     24  O   UNL     1       7.817   5.487  14.210  0.00  0.00    +0.000 OA
ATOM     25  N   UNL     1       6.420   4.095  13.067  0.00  0.00    +0.000 N 
ATOM     26  H   UNL     1       5.745   3.339  13.082  0.00  0.00    +0.000 HD
BRANCH  25  27
ATOM     27  O   UNL     1       7.338   4.098  11.993  0.00  0.00    +0.000 OA
ATOM     28  H   UNL     1       7.037   4.872  11.467  0.00  0.00    +0.000 HD
ENDBRANCH  25  27
ENDBRANCH   7  23
TORSDOF 6
ENDMDL
