MODEL 1
REMARK VINA RESULT:      -6.8      0.000      0.000
REMARK  Name = 
REMARK  4 active torsions:
REMARK  status: ('A' for Active; 'I' for Inactive)
REMARK    1  A    between atoms: C_4  and  C_5
REMARK    2  A    between atoms: C_5  and  C_6
REMARK    3  A    between atoms: C_5  and  C_13
REMARK    4  A    between atoms: C_6  and  C_7
REMARK                            x       y       z     vdW  Elec       q    Type
REMARK                         _______ _______ _______ _____ _____    ______ ____
ROOT
ATOM      1  C   UNL     1       3.104   5.196  18.465  0.00  0.00    +0.000 C 
ENDROOT
BRANCH   1   5
ATOM      2  C   UNL     1       2.674   2.755  21.342  0.00  0.00    +0.000 C 
ATOM      3  C   UNL     1       3.665   2.523  20.199  0.00  0.00    +0.000 C 
ATOM      4  C   UNL     1       3.002   2.597  18.823  0.00  0.00    +0.000 C 
ATOM      5  C   UNL     1       2.209   3.904  18.601  0.00  0.00    +0.000 C 
ATOM      6  C   UNL     1       1.165   3.975  19.739  0.00  0.00    +0.000 C 
ATOM      7  C   UNL     1       1.818   4.000  21.121  0.00  0.00    +0.000 C 
ENDBRANCH   1   5
BRANCH   1   8
ATOM      8  C   UNL     1       2.236   6.437  18.269  0.00  0.00    +0.000 C 
ATOM      9  C   UNL     1       2.118   7.575  19.262  0.00  0.00    +0.000 C 
ATOM     10  C   UNL     1       2.903   7.775  18.009  0.00  0.00    +0.000 C 
ENDBRANCH   1   8
BRANCH   1  11
ATOM     11  C   UNL     1       4.099   5.078  17.255  0.00  0.00    +0.000 C 
BRANCH  11  12
ATOM     12  C   UNL     1       5.583   5.393  17.575  0.00  0.00    +0.000 C 
ATOM     13  C   UNL     1       5.874   5.391  19.084  0.00  0.00    +0.000 C 
ATOM     14  C   UNL     1       7.383   5.525  19.313  0.00  0.00    +0.000 C 
ATOM     15  C   UNL     1       7.941   6.753  18.597  0.00  0.00    +0.000 C 
ATOM     16  C   UNL     1       7.464   6.846  17.149  0.00  0.00    +0.000 C 
ATOM     17  N   UNL     1       6.006   6.695  17.040  0.00  0.00    +0.000 NA
ATOM     18  H   UNL     1       5.736   6.773  16.064  0.00  0.00    +0.000 HD
ENDBRANCH  11  12
ENDBRANCH   1  11
TORSDOF 4
ENDMDL
MODEL 2
REMARK VINA RESULT:      -6.6      1.908      5.074
REMARK  Name = 
REMARK  4 active torsions:
REMARK  status: ('A' for Active; 'I' for Inactive)
REMARK    1  A    between atoms: C_4  and  C_5
REMARK    2  A    between atoms: C_5  and  C_6
REMARK    3  A    between atoms: C_5  and  C_13
REMARK    4  A    between atoms: C_6  and  C_7
REMARK                            x       y       z     vdW  Elec       q    Type
REMARK                         _______ _______ _______ _____ _____    ______ ____
ROOT
ATOM      1  C   UNL     1       4.161   6.119  17.977  0.00  0.00    +0.000 C 
ENDROOT
BRANCH   1   5
ATOM      2  C   UNL     1       6.706   4.419  15.730  0.00  0.00    +0.000 C 
ATOM      3  C   UNL     1       6.960   4.686  17.214  0.00  0.00    +0.000 C 
ATOM      4  C   UNL     1       6.758   6.156  17.590  0.00  0.00    +0.000 C 
ATOM      5  C   UNL     1       5.378   6.706  17.164  0.00  0.00    +0.000 C 
ATOM      6  C   UNL     1       5.281   6.492  15.637  0.00  0.00    +0.000 C 
ATOM      7  C   UNL     1       5.383   5.016  15.253  0.00  0.00    +0.000 C 
ENDBRANCH   1   5
BRANCH   1   8
ATOM      8  C   UNL     1       3.253   7.241  18.476  0.00  0.00    +0.000 C 
ATOM      9  C   UNL     1       2.755   8.392  17.627  0.00  0.00    +0.000 C 
ATOM     10  C   UNL     1       1.813   7.297  18.001  0.00  0.00    +0.000 C 
ENDBRANCH   1   8
BRANCH   1  11
ATOM     11  C   UNL     1       4.650   5.277  19.210  0.00  0.00    +0.000 C 
BRANCH  11  12
ATOM     12  C   UNL     1       3.642   4.227  19.745  0.00  0.00    +0.000 C 
ATOM     13  C   UNL     1       2.724   3.676  18.642  0.00  0.00    +0.000 C 
ATOM     14  C   UNL     1       1.891   2.519  19.204  0.00  0.00    +0.000 C 
ATOM     15  C   UNL     1       1.131   2.947  20.459  0.00  0.00    +0.000 C 
ATOM     16  C   UNL     1       2.025   3.685  21.454  0.00  0.00    +0.000 C 
ATOM     17  N   UNL     1       2.787   4.764  20.812  0.00  0.00    +0.000 NA
ATOM     18  H   UNL     1       3.357   5.230  21.512  0.00  0.00    +0.000 HD
ENDBRANCH  11  12
ENDBRANCH   1  11
TORSDOF 4
ENDMDL
MODEL 3
REMARK VINA RESULT:      -6.6      1.362      1.571
REMARK  Name = 
REMARK  4 active torsions:
REMARK  status: ('A' for Active; 'I' for Inactive)
REMARK    1  A    between atoms: C_4  and  C_5
REMARK    2  A    between atoms: C_5  and  C_6
REMARK    3  A    between atoms: C_5  and  C_13
REMARK    4  A    between atoms: C_6  and  C_7
REMARK                            x       y       z     vdW  Elec       q    Type
REMARK                         _______ _______ _______ _____ _____    ______ ____
ROOT
ATOM      1  C   UNL     1       2.621   4.950  18.386  0.00  0.00    +0.000 C 
ENDROOT
BRANCH   1   5
ATOM      2  C   UNL     1       2.499   2.669  21.419  0.00  0.00    +0.000 C 
ATOM      3  C   UNL     1       2.633   2.140  19.990  0.00  0.00    +0.000 C 
ATOM      4  C   UNL     1       1.531   2.661  19.065  0.00  0.00    +0.000 C 
ATOM      5  C   UNL     1       1.413   4.201  19.069  0.00  0.00    +0.000 C 
ATOM      6  C   UNL     1       1.163   4.612  20.537  0.00  0.00    +0.000 C 
ATOM      7  C   UNL     1       2.305   4.184  21.459  0.00  0.00    +0.000 C 
ENDBRANCH   1   5
BRANCH   1   8
ATOM      8  C   UNL     1       2.216   6.362  17.967  0.00  0.00    +0.000 C 
ATOM      9  C   UNL     1       2.252   7.575  18.872  0.00  0.00    +0.000 C 
ATOM     10  C   UNL     1       3.286   7.425  17.808  0.00  0.00    +0.000 C 
ENDBRANCH   1   8
BRANCH   1  11
ATOM     11  C   UNL     1       3.134   4.174  17.119  0.00  0.00    +0.000 C 
BRANCH  11  12
ATOM     12  C   UNL     1       4.673   4.049  16.987  0.00  0.00    +0.000 C 
ATOM     13  C   UNL     1       5.423   4.817  18.088  0.00  0.00    +0.000 C 
ATOM     14  C   UNL     1       6.920   4.497  18.004  0.00  0.00    +0.000 C 
ATOM     15  C   UNL     1       7.463   4.774  16.603  0.00  0.00    +0.000 C 
ATOM     16  C   UNL     1       6.579   4.176  15.510  0.00  0.00    +0.000 C 
ATOM     17  N   UNL     1       5.165   4.533  15.690  0.00  0.00    +0.000 NA
ATOM     18  H   UNL     1       4.620   4.123  14.938  0.00  0.00    +0.000 HD
ENDBRANCH  11  12
ENDBRANCH   1  11
TORSDOF 4
ENDMDL
MODEL 4
REMARK VINA RESULT:      -6.5      1.469      1.986
REMARK  Name = 
REMARK  4 active torsions:
REMARK  status: ('A' for Active; 'I' for Inactive)
REMARK    1  A    between atoms: C_4  and  C_5
REMARK    2  A    between atoms: C_5  and  C_6
REMARK    3  A    between atoms: C_5  and  C_13
REMARK    4  A    between atoms: C_6  and  C_7
REMARK                            x       y       z     vdW  Elec       q    Type
REMARK                         _______ _______ _______ _____ _____    ______ ____
ROOT
ATOM      1  C   UNL     1       2.688   4.950  18.423  0.00  0.00    +0.000 C 
ENDROOT
BRANCH   1   5
ATOM      2  C   UNL     1       2.439   2.601  21.397  0.00  0.00    +0.000 C 
ATOM      3  C   UNL     1       2.721   2.111  19.975  0.00  0.00    +0.000 C 
ATOM      4  C   UNL     1       1.673   2.591  18.969  0.00  0.00    +0.000 C 
ATOM      5  C   UNL     1       1.470   4.122  18.989  0.00  0.00    +0.000 C 
ATOM      6  C   UNL     1       1.076   4.487  20.438  0.00  0.00    +0.000 C 
ATOM      7  C   UNL     1       2.159   4.102  21.446  0.00  0.00    +0.000 C 
ENDBRANCH   1   5
BRANCH   1   8
ATOM      8  C   UNL     1       2.248   6.357  18.025  0.00  0.00    +0.000 C 
ATOM      9  C   UNL     1       2.251   7.557  18.949  0.00  0.00    +0.000 C 
ATOM     10  C   UNL     1       3.291   7.449  17.885  0.00  0.00    +0.000 C 
ENDBRANCH   1   8
BRANCH   1  11
ATOM     11  C   UNL     1       3.326   4.246  17.172  0.00  0.00    +0.000 C 
BRANCH  11  12
ATOM     12  C   UNL     1       4.769   4.690  16.817  0.00  0.00    +0.000 C 
ATOM     13  C   UNL     1       5.144   4.367  15.361  0.00  0.00    +0.000 C 
ATOM     14  C   UNL     1       6.502   4.996  15.033  0.00  0.00    +0.000 C 
ATOM     15  C   UNL     1       7.567   4.560  16.038  0.00  0.00    +0.000 C 
ATOM     16  C   UNL     1       7.090   4.691  17.483  0.00  0.00    +0.000 C 
ATOM     17  N   UNL     1       5.776   4.066  17.687  0.00  0.00    +0.000 NA
ATOM     18  H   UNL     1       5.506   4.171  18.660  0.00  0.00    +0.000 HD
ENDBRANCH  11  12
ENDBRANCH   1  11
TORSDOF 4
ENDMDL
MODEL 5
REMARK VINA RESULT:      -6.4      2.132      5.519
REMARK  Name = 
REMARK  4 active torsions:
REMARK  status: ('A' for Active; 'I' for Inactive)
REMARK    1  A    between atoms: C_4  and  C_5
REMARK    2  A    between atoms: C_5  and  C_6
REMARK    3  A    between atoms: C_5  and  C_13
REMARK    4  A    between atoms: C_6  and  C_7
REMARK                            x       y       z     vdW  Elec       q    Type
REMARK                         _______ _______ _______ _____ _____    ______ ____
ROOT
ATOM      1  C   UNL     1       5.578   4.468  16.684  0.00  0.00    +0.000 C 
ENDROOT
BRANCH   1   5
ATOM      2  C   UNL     1       7.950   6.768  18.554  0.00  0.00    +0.000 C 
ATOM      3  C   UNL     1       7.415   5.466  19.153  0.00  0.00    +0.000 C 
ATOM      4  C   UNL     1       5.887   5.390  19.122  0.00  0.00    +0.000 C 
ATOM      5  C   UNL     1       5.296   5.627  17.715  0.00  0.00    +0.000 C 
ATOM      6  C   UNL     1       5.805   7.014  17.261  0.00  0.00    +0.000 C 
ATOM      7  C   UNL     1       7.330   7.076  17.193  0.00  0.00    +0.000 C 
ENDBRANCH   1   5
BRANCH   1   8
ATOM      8  C   UNL     1       5.774   5.030  15.278  0.00  0.00    +0.000 C 
ATOM      9  C   UNL     1       7.048   4.906  14.467  0.00  0.00    +0.000 C 
ATOM     10  C   UNL     1       5.864   4.074  14.103  0.00  0.00    +0.000 C 
ENDBRANCH   1   8
BRANCH   1  11
ATOM     11  C   UNL     1       4.399   3.429  16.654  0.00  0.00    +0.000 C 
BRANCH  11  12
ATOM     12  C   UNL     1       3.423   3.489  17.858  0.00  0.00    +0.000 C 
ATOM     13  C   UNL     1       3.732   2.421  18.920  0.00  0.00    +0.000 C 
ATOM     14  C   UNL     1       2.853   2.659  20.152  0.00  0.00    +0.000 C 
ATOM     15  C   UNL     1       1.374   2.716  19.771  0.00  0.00    +0.000 C 
ATOM     16  C   UNL     1       1.120   3.625  18.570  0.00  0.00    +0.000 C 
ATOM     17  N   UNL     1       2.021   3.322  17.450  0.00  0.00    +0.000 NA
ATOM     18  H   UNL     1       1.809   3.943  16.675  0.00  0.00    +0.000 HD
ENDBRANCH  11  12
ENDBRANCH   1  11
TORSDOF 4
ENDMDL
MODEL 6
REMARK VINA RESULT:      -6.3      2.036      4.172
REMARK  Name = 
REMARK  4 active torsions:
REMARK  status: ('A' for Active; 'I' for Inactive)
REMARK    1  A    between atoms: C_4  and  C_5
REMARK    2  A    between atoms: C_5  and  C_6
REMARK    3  A    between atoms: C_5  and  C_13
REMARK    4  A    between atoms: C_6  and  C_7
REMARK                            x       y       z     vdW  Elec       q    Type
REMARK                         _______ _______ _______ _____ _____    ______ ____
ROOT
ATOM      1  C   UNL     1       3.756   4.695  18.049  0.00  0.00    +0.000 C 
ENDROOT
BRANCH   1   5
ATOM      2  C   UNL     1       1.002   2.895  19.943  0.00  0.00    +0.000 C 
ATOM      3  C   UNL     1       2.229   3.492  20.635  0.00  0.00    +0.000 C 
ATOM      4  C   UNL     1       3.543   2.990  20.034  0.00  0.00    +0.000 C 
ATOM      5  C   UNL     1       3.627   3.190  18.505  0.00  0.00    +0.000 C 
ATOM      6  C   UNL     1       2.410   2.450  17.905  0.00  0.00    +0.000 C 
ATOM      7  C   UNL     1       1.083   3.006  18.422  0.00  0.00    +0.000 C 
ENDBRANCH   1   5
BRANCH   1   8
ATOM      8  C   UNL     1       5.098   4.938  17.362  0.00  0.00    +0.000 C 
ATOM      9  C   UNL     1       5.649   4.106  16.222  0.00  0.00    +0.000 C 
ATOM     10  C   UNL     1       5.119   5.472  15.942  0.00  0.00    +0.000 C 
ENDBRANCH   1   8
BRANCH   1  11
ATOM     11  C   UNL     1       3.627   5.676  19.269  0.00  0.00    +0.000 C 
BRANCH  11  12
ATOM     12  C   UNL     1       2.554   6.785  19.126  0.00  0.00    +0.000 C 
ATOM     13  C   UNL     1       2.901   7.803  18.027  0.00  0.00    +0.000 C 
ATOM     14  C   UNL     1       1.716   8.752  17.818  0.00  0.00    +0.000 C 
ATOM     15  C   UNL     1       1.300   9.409  19.134  0.00  0.00    +0.000 C 
ATOM     16  C   UNL     1       1.167   8.397  20.270  0.00  0.00    +0.000 C 
ATOM     17  N   UNL     1       2.348   7.530  20.376  0.00  0.00    +0.000 NA
ATOM     18  H   UNL     1       2.218   6.882  21.147  0.00  0.00    +0.000 HD
ENDBRANCH  11  12
ENDBRANCH   1  11
TORSDOF 4
ENDMDL
MODEL 7
REMARK VINA RESULT:      -6.3      1.918      5.335
REMARK  Name = 
REMARK  4 active torsions:
REMARK  status: ('A' for Active; 'I' for Inactive)
REMARK    1  A    between atoms: C_4  and  C_5
REMARK    2  A    between atoms: C_5  and  C_6
REMARK    3  A    between atoms: C_5  and  C_13
REMARK    4  A    between atoms: C_6  and  C_7
REMARK                            x       y       z     vdW  Elec       q    Type
REMARK                         _______ _______ _______ _____ _____    ______ ____
ROOT
ATOM      1  C   UNL     1       3.411   5.857  18.017  0.00  0.00    +0.000 C 
ENDROOT
BRANCH   1   5
ATOM      2  C   UNL     1       7.200   6.032  17.839  0.00  0.00    +0.000 C 
ATOM      3  C   UNL     1       6.292   7.096  17.219  0.00  0.00    +0.000 C 
ATOM      4  C   UNL     1       5.257   6.500  16.264  0.00  0.00    +0.000 C 
ATOM      5  C   UNL     1       4.418   5.372  16.904  0.00  0.00    +0.000 C 
ATOM      6  C   UNL     1       5.427   4.305  17.386  0.00  0.00    +0.000 C 
ATOM      7  C   UNL     1       6.408   4.861  18.417  0.00  0.00    +0.000 C 
ENDBRANCH   1   5
BRANCH   1   8
ATOM      8  C   UNL     1       2.094   5.091  17.925  0.00  0.00    +0.000 C 
ATOM      9  C   UNL     1       1.977   3.589  17.769  0.00  0.00    +0.000 C 
ATOM     10  C   UNL     1       1.663   4.214  19.086  0.00  0.00    +0.000 C 
ENDBRANCH   1   8
BRANCH   1  11
ATOM     11  C   UNL     1       3.113   7.394  17.887  0.00  0.00    +0.000 C 
BRANCH  11  12
ATOM     12  C   UNL     1       1.975   7.934  18.791  0.00  0.00    +0.000 C 
ATOM     13  C   UNL     1       1.691   9.426  18.554  0.00  0.00    +0.000 C 
ATOM     14  C   UNL     1       0.442   9.839  19.341  0.00  0.00    +0.000 C 
ATOM     15  C   UNL     1       0.581   9.483  20.820  0.00  0.00    +0.000 C 
ATOM     16  C   UNL     1       1.071   8.051  21.027  0.00  0.00    +0.000 C 
ATOM     17  N   UNL     1       2.263   7.755  20.221  0.00  0.00    +0.000 NA
ATOM     18  H   UNL     1       2.556   6.799  20.398  0.00  0.00    +0.000 HD
ENDBRANCH  11  12
ENDBRANCH   1  11
TORSDOF 4
ENDMDL
MODEL 8
REMARK VINA RESULT:      -6.3      1.532      2.193
REMARK  Name = 
REMARK  4 active torsions:
REMARK  status: ('A' for Active; 'I' for Inactive)
REMARK    1  A    between atoms: C_4  and  C_5
REMARK    2  A    between atoms: C_5  and  C_6
REMARK    3  A    between atoms: C_5  and  C_13
REMARK    4  A    between atoms: C_6  and  C_7
REMARK                            x       y       z     vdW  Elec       q    Type
REMARK                         _______ _______ _______ _____ _____    ______ ____
ROOT
ATOM      1  C   UNL     1       3.054   5.130  19.514  0.00  0.00    +0.000 C 
ENDROOT
BRANCH   1   5
ATOM      2  C   UNL     1       1.442   1.700  19.751  0.00  0.00    +0.000 C 
ATOM      3  C   UNL     1       2.089   2.224  18.468  0.00  0.00    +0.000 C 
ATOM      4  C   UNL     1       1.529   3.582  18.040  0.00  0.00    +0.000 C 
ATOM      5  C   UNL     1       1.595   4.646  19.159  0.00  0.00    +0.000 C 
ATOM      6  C   UNL     1       0.814   4.061  20.357  0.00  0.00    +0.000 C 
ATOM      7  C   UNL     1       1.421   2.751  20.860  0.00  0.00    +0.000 C 
ENDBRANCH   1   5
BRANCH   1   8
ATOM      8  C   UNL     1       3.339   6.492  18.885  0.00  0.00    +0.000 C 
ATOM      9  C   UNL     1       2.468   7.162  17.843  0.00  0.00    +0.000 C 
ATOM     10  C   UNL     1       2.459   7.674  19.244  0.00  0.00    +0.000 C 
ENDBRANCH   1   8
BRANCH   1  11
ATOM     11  C   UNL     1       4.135   4.105  19.014  0.00  0.00    +0.000 C 
BRANCH  11  12
ATOM     12  C   UNL     1       5.115   4.637  17.937  0.00  0.00    +0.000 C 
ATOM     13  C   UNL     1       4.702   4.229  16.513  0.00  0.00    +0.000 C 
ATOM     14  C   UNL     1       5.604   4.940  15.498  0.00  0.00    +0.000 C 
ATOM     15  C   UNL     1       7.079   4.676  15.793  0.00  0.00    +0.000 C 
ATOM     16  C   UNL     1       7.421   4.885  17.268  0.00  0.00    +0.000 C 
ATOM     17  N   UNL     1       6.492   4.172  18.154  0.00  0.00    +0.000 NA
ATOM     18  H   UNL     1       6.763   4.333  19.120  0.00  0.00    +0.000 HD
ENDBRANCH  11  12
ENDBRANCH   1  11
TORSDOF 4
ENDMDL
MODEL 9
REMARK VINA RESULT:      -6.1      1.655      2.305
REMARK  Name = 
REMARK  4 active torsions:
REMARK  status: ('A' for Active; 'I' for Inactive)
REMARK    1  A    between atoms: C_4  and  C_5
REMARK    2  A    between atoms: C_5  and  C_6
REMARK    3  A    between atoms: C_5  and  C_13
REMARK    4  A    between atoms: C_6  and  C_7
REMARK                            x       y       z     vdW  Elec       q    Type
REMARK                         _______ _______ _______ _____ _____    ______ ____
ROOT
ATOM      1  C   UNL     1       3.724   4.792  18.736  0.00  0.00    +0.000 C 
ENDROOT
BRANCH   1   5
ATOM      2  C   UNL     1       1.505   3.079  21.297  0.00  0.00    +0.000 C 
ATOM      3  C   UNL     1       2.950   2.653  21.037  0.00  0.00    +0.000 C 
ATOM      4  C   UNL     1       3.217   2.351  19.561  0.00  0.00    +0.000 C 
ATOM      5  C   UNL     1       2.812   3.510  18.622  0.00  0.00    +0.000 C 
ATOM      6  C   UNL     1       1.313   3.775  18.886  0.00  0.00    +0.000 C 
ATOM      7  C   UNL     1       1.043   4.173  20.336  0.00  0.00    +0.000 C 
ENDBRANCH   1   5
BRANCH   1   8
ATOM      8  C   UNL     1       3.241   5.885  17.786  0.00  0.00    +0.000 C 
ATOM      9  C   UNL     1       2.289   7.001  18.166  0.00  0.00    +0.000 C 
ATOM     10  C   UNL     1       3.737   7.306  17.977  0.00  0.00    +0.000 C 
ENDBRANCH   1   8
BRANCH   1  11
ATOM     11  C   UNL     1       5.223   4.459  18.403  0.00  0.00    +0.000 C 
BRANCH  11  12
ATOM     12  C   UNL     1       5.671   4.764  16.950  0.00  0.00    +0.000 C 
ATOM     13  C   UNL     1       5.112   3.752  15.937  0.00  0.00    +0.000 C 
ATOM     14  C   UNL     1       5.440   4.221  14.515  0.00  0.00    +0.000 C 
ATOM     15  C   UNL     1       6.939   4.470  14.350  0.00  0.00    +0.000 C 
ATOM     16  C   UNL     1       7.516   5.307  15.490  0.00  0.00    +0.000 C 
ATOM     17  N   UNL     1       7.134   4.780  16.807  0.00  0.00    +0.000 NA
ATOM     18  H   UNL     1       7.546   5.361  17.531  0.00  0.00    +0.000 HD
ENDBRANCH  11  12
ENDBRANCH   1  11
TORSDOF 4
ENDMDL
