MODEL 1
REMARK VINA RESULT:      -8.5      0.000      0.000
REMARK  Name = 
REMARK  5 active torsions:
REMARK  status: ('A' for Active; 'I' for Inactive)
REMARK    1  A    between atoms: C_2  and  C_23
REMARK    2  A    between atoms: N_3  and  C_4
REMARK    3  A    between atoms: C_8  and  N_9
REMARK    4  A    between atoms: C_10  and  C_12
REMARK    5  A    between atoms: C_16  and  C_17
REMARK                            x       y       z     vdW  Elec       q    Type
REMARK                         _______ _______ _______ _____ _____    ______ ____
ROOT
ATOM      1  C   UNL     1      -0.411  11.235  18.728  0.00  0.00    +0.000 A 
ATOM      2  C   UNL     1       0.475  12.306  18.866  0.00  0.00    +0.000 A 
ATOM      3  C   UNL     1       1.827  12.138  18.591  0.00  0.00    +0.000 A 
ATOM      4  C   UNL     1       2.306  10.895  18.187  0.00  0.00    +0.000 A 
ATOM      5  C   UNL     1       1.451   9.794  18.072  0.00  0.00    +0.000 A 
ATOM      6  C   UNL     1       0.086   9.974  18.347  0.00  0.00    +0.000 A 
ENDROOT
BRANCH   1   9
ATOM      7  O   UNL     1      -2.615  11.398  16.775  0.00  0.00    +0.000 OA
ATOM      8  C   UNL     1      -2.778  11.474  17.987  0.00  0.00    +0.000 C 
ATOM      9  N   UNL     1      -1.798  11.372  18.964  0.00  0.00    +0.000 N 
ATOM     10  H   UNL     1      -2.110  11.242  19.917  0.00  0.00    +0.000 HD
BRANCH   8  11
ATOM     11  C   UNL     1      -4.167  11.608  18.492  0.00  0.00    +0.000 A 
ATOM     12  C   UNL     1      -5.200  11.015  17.753  0.00  0.00    +0.000 A 
ATOM     13  C   UNL     1      -6.522  11.126  18.182  0.00  0.00    +0.000 A 
ATOM     14  C   UNL     1      -6.816  11.840  19.343  0.00  0.00    +0.000 A 
ATOM     15  C   UNL     1      -5.793  12.449  20.072  0.00  0.00    +0.000 A 
ATOM     16  C   UNL     1      -4.467  12.338  19.647  0.00  0.00    +0.000 A 
ENDBRANCH   8  11
ENDBRANCH   1   9
BRANCH   5  17
ATOM     17  N   UNL     1       1.914   8.511  17.667  0.00  0.00    +0.000 N 
ATOM     18  C   UNL     1       2.337   7.520  18.538  0.00  0.00    +0.000 C 
ATOM     19  O   UNL     1       2.294   7.575  19.764  0.00  0.00    +0.000 OA
ATOM     20  H   UNL     1       1.813   8.273  16.689  0.00  0.00    +0.000 HD
BRANCH  18  21
ATOM     21  C   UNL     1       2.845   6.247  17.962  0.00  0.00    +0.000 A 
ATOM     22  C   UNL     1       1.982   5.141  18.029  0.00  0.00    +0.000 A 
ATOM     23  C   UNL     1       2.408   3.878  17.630  0.00  0.00    +0.000 A 
ATOM     24  C   UNL     1       3.708   3.706  17.167  0.00  0.00    +0.000 A 
ATOM     25  C   UNL     1       4.594   4.797  17.092  0.00  0.00    +0.000 A 
ATOM     26  C   UNL     1       4.150   6.078  17.487  0.00  0.00    +0.000 A 
BRANCH  25  27
ATOM     27  C   UNL     1       6.015   4.585  16.625  0.00  0.00    +0.000 C 
ATOM     28  F   UNL     1       6.889   4.323  17.637  0.00  0.00    +0.000 F 
ATOM     29  F   UNL     1       6.122   3.541  15.759  0.00  0.00    +0.000 F 
ATOM     30  F   UNL     1       6.516   5.669  15.972  0.00  0.00    +0.000 F 
ENDBRANCH  25  27
ENDBRANCH  18  21
ENDBRANCH   5  17
TORSDOF 5
ENDMDL
MODEL 2
REMARK VINA RESULT:      -8.4      3.961      6.085
REMARK  Name = 
REMARK  5 active torsions:
REMARK  status: ('A' for Active; 'I' for Inactive)
REMARK    1  A    between atoms: C_2  and  C_23
REMARK    2  A    between atoms: N_3  and  C_4
REMARK    3  A    between atoms: C_8  and  N_9
REMARK    4  A    between atoms: C_10  and  C_12
REMARK    5  A    between atoms: C_16  and  C_17
REMARK                            x       y       z     vdW  Elec       q    Type
REMARK                         _______ _______ _______ _____ _____    ______ ____
ROOT
ATOM      1  C   UNL     1       2.098   5.315  20.791  0.00  0.00    +0.000 A 
ATOM      2  C   UNL     1       1.906   4.096  21.445  0.00  0.00    +0.000 A 
ATOM      3  C   UNL     1       2.615   2.968  21.052  0.00  0.00    +0.000 A 
ATOM      4  C   UNL     1       3.515   3.047  19.993  0.00  0.00    +0.000 A 
ATOM      5  C   UNL     1       3.706   4.243  19.294  0.00  0.00    +0.000 A 
ATOM      6  C   UNL     1       2.987   5.379  19.701  0.00  0.00    +0.000 A 
ENDROOT
BRANCH   1   9
ATOM      7  O   UNL     1       2.143   7.981  19.531  0.00  0.00    +0.000 OA
ATOM      8  C   UNL     1       1.517   7.726  20.553  0.00  0.00    +0.000 C 
ATOM      9  N   UNL     1       1.422   6.493  21.182  0.00  0.00    +0.000 N 
ATOM     10  H   UNL     1       0.705   6.390  21.888  0.00  0.00    +0.000 HD
BRANCH   8  11
ATOM     11  C   UNL     1       0.704   8.811  21.156  0.00  0.00    +0.000 A 
ATOM     12  C   UNL     1       0.550   8.829  22.549  0.00  0.00    +0.000 A 
ATOM     13  C   UNL     1      -0.215   9.823  23.157  0.00  0.00    +0.000 A 
ATOM     14  C   UNL     1      -0.838  10.794  22.375  0.00  0.00    +0.000 A 
ATOM     15  C   UNL     1      -0.704  10.770  20.985  0.00  0.00    +0.000 A 
ATOM     16  C   UNL     1       0.064   9.778  20.372  0.00  0.00    +0.000 A 
ENDBRANCH   8  11
ENDBRANCH   1   9
BRANCH   5  17
ATOM     17  N   UNL     1       4.614   4.351  18.204  0.00  0.00    +0.000 N 
ATOM     18  C   UNL     1       4.309   4.019  16.894  0.00  0.00    +0.000 C 
ATOM     19  O   UNL     1       3.206   3.671  16.479  0.00  0.00    +0.000 OA
ATOM     20  H   UNL     1       5.497   4.811  18.384  0.00  0.00    +0.000 HD
BRANCH  18  21
ATOM     21  C   UNL     1       5.380   4.134  15.871  0.00  0.00    +0.000 A 
ATOM     22  C   UNL     1       6.520   4.869  16.237  0.00  0.00    +0.000 A 
ATOM     23  C   UNL     1       7.524   5.137  15.312  0.00  0.00    +0.000 A 
ATOM     24  C   UNL     1       7.394   4.681  14.005  0.00  0.00    +0.000 A 
ATOM     25  C   UNL     1       6.261   3.946  13.610  0.00  0.00    +0.000 A 
ATOM     26  C   UNL     1       5.252   3.667  14.557  0.00  0.00    +0.000 A 
BRANCH  25  27
ATOM     27  C   UNL     1       6.116   3.494  12.176  0.00  0.00    +0.000 C 
ATOM     28  F   UNL     1       6.977   4.110  11.319  0.00  0.00    +0.000 F 
ATOM     29  F   UNL     1       6.338   2.158  12.033  0.00  0.00    +0.000 F 
ATOM     30  F   UNL     1       4.869   3.722  11.681  0.00  0.00    +0.000 F 
ENDBRANCH  25  27
ENDBRANCH  18  21
ENDBRANCH   5  17
TORSDOF 5
ENDMDL
MODEL 3
REMARK VINA RESULT:      -8.4      7.406      9.396
REMARK  Name = 
REMARK  5 active torsions:
REMARK  status: ('A' for Active; 'I' for Inactive)
REMARK    1  A    between atoms: C_2  and  C_23
REMARK    2  A    between atoms: N_3  and  C_4
REMARK    3  A    between atoms: C_8  and  N_9
REMARK    4  A    between atoms: C_10  and  C_12
REMARK    5  A    between atoms: C_16  and  C_17
REMARK                            x       y       z     vdW  Elec       q    Type
REMARK                         _______ _______ _______ _____ _____    ______ ____
ROOT
ATOM      1  C   UNL     1       5.660   4.904  17.526  0.00  0.00    +0.000 A 
ATOM      2  C   UNL     1       6.085   4.212  16.390  0.00  0.00    +0.000 A 
ATOM      3  C   UNL     1       6.985   4.796  15.508  0.00  0.00    +0.000 A 
ATOM      4  C   UNL     1       7.460   6.082  15.749  0.00  0.00    +0.000 A 
ATOM      5  C   UNL     1       7.030   6.815  16.859  0.00  0.00    +0.000 A 
ATOM      6  C   UNL     1       6.122   6.215  17.748  0.00  0.00    +0.000 A 
ENDROOT
BRANCH   1   9
ATOM      7  O   UNL     1       2.712   4.979  17.571  0.00  0.00    +0.000 OA
ATOM      8  C   UNL     1       3.389   4.437  18.438  0.00  0.00    +0.000 C 
ATOM      9  N   UNL     1       4.772   4.332  18.466  0.00  0.00    +0.000 N 
ATOM     10  H   UNL     1       5.171   3.679  19.126  0.00  0.00    +0.000 HD
BRANCH   8  11
ATOM     11  C   UNL     1       2.676   3.744  19.539  0.00  0.00    +0.000 A 
ATOM     12  C   UNL     1       1.275   3.779  19.548  0.00  0.00    +0.000 A 
ATOM     13  C   UNL     1       0.564   3.152  20.570  0.00  0.00    +0.000 A 
ATOM     14  C   UNL     1       1.250   2.500  21.592  0.00  0.00    +0.000 A 
ATOM     15  C   UNL     1       2.647   2.478  21.599  0.00  0.00    +0.000 A 
ATOM     16  C   UNL     1       3.363   3.102  20.576  0.00  0.00    +0.000 A 
ENDBRANCH   8  11
ENDBRANCH   1   9
BRANCH   5  17
ATOM     17  N   UNL     1       7.493   8.133  17.128  0.00  0.00    +0.000 N 
ATOM     18  C   UNL     1       8.273   8.484  18.218  0.00  0.00    +0.000 C 
ATOM     19  O   UNL     1       8.737   7.706  19.048  0.00  0.00    +0.000 OA
ATOM     20  H   UNL     1       7.339   8.831  16.411  0.00  0.00    +0.000 HD
BRANCH  18  21
ATOM     21  C   UNL     1       8.635   9.914  18.394  0.00  0.00    +0.000 A 
ATOM     22  C   UNL     1       8.072  10.820  17.481  0.00  0.00    +0.000 A 
ATOM     23  C   UNL     1       8.443  12.161  17.485  0.00  0.00    +0.000 A 
ATOM     24  C   UNL     1       9.390  12.609  18.399  0.00  0.00    +0.000 A 
ATOM     25  C   UNL     1       9.972  11.722  19.323  0.00  0.00    +0.000 A 
ATOM     26  C   UNL     1       9.582  10.365  19.321  0.00  0.00    +0.000 A 
BRANCH  25  27
ATOM     27  C   UNL     1      11.030  12.216  20.282  0.00  0.00    +0.000 C 
ATOM     28  F   UNL     1      11.332  13.536  20.130  0.00  0.00    +0.000 F 
ATOM     29  F   UNL     1      10.656  12.066  21.582  0.00  0.00    +0.000 F 
ATOM     30  F   UNL     1      12.207  11.547  20.150  0.00  0.00    +0.000 F 
ENDBRANCH  25  27
ENDBRANCH  18  21
ENDBRANCH   5  17
TORSDOF 5
ENDMDL
MODEL 4
REMARK VINA RESULT:      -8.3      4.129      6.530
REMARK  Name = 
REMARK  5 active torsions:
REMARK  status: ('A' for Active; 'I' for Inactive)
REMARK    1  A    between atoms: C_2  and  C_23
REMARK    2  A    between atoms: N_3  and  C_4
REMARK    3  A    between atoms: C_8  and  N_9
REMARK    4  A    between atoms: C_10  and  C_12
REMARK    5  A    between atoms: C_16  and  C_17
REMARK                            x       y       z     vdW  Elec       q    Type
REMARK                         _______ _______ _______ _____ _____    ______ ____
ROOT
ATOM      1  C   UNL     1       2.556   4.929  19.973  0.00  0.00    +0.000 A 
ATOM      2  C   UNL     1       2.627   3.817  20.815  0.00  0.00    +0.000 A 
ATOM      3  C   UNL     1       3.273   2.660  20.397  0.00  0.00    +0.000 A 
ATOM      4  C   UNL     1       3.844   2.602  19.129  0.00  0.00    +0.000 A 
ATOM      5  C   UNL     1       3.761   3.685  18.248  0.00  0.00    +0.000 A 
ATOM      6  C   UNL     1       3.110   4.852  18.681  0.00  0.00    +0.000 A 
ENDROOT
BRANCH   1   9
ATOM      7  O   UNL     1       2.776   7.611  18.765  0.00  0.00    +0.000 OA
ATOM      8  C   UNL     1       2.116   7.373  19.770  0.00  0.00    +0.000 C 
ATOM      9  N   UNL     1       1.939   6.136  20.373  0.00  0.00    +0.000 N 
ATOM     10  H   UNL     1       1.203   6.061  21.062  0.00  0.00    +0.000 HD
BRANCH   8  11
ATOM     11  C   UNL     1       1.352   8.492  20.376  0.00  0.00    +0.000 A 
ATOM     12  C   UNL     1       0.936   9.539  19.542  0.00  0.00    +0.000 A 
ATOM     13  C   UNL     1       0.226  10.616  20.071  0.00  0.00    +0.000 A 
ATOM     14  C   UNL     1      -0.057  10.656  21.435  0.00  0.00    +0.000 A 
ATOM     15  C   UNL     1       0.372   9.626  22.274  0.00  0.00    +0.000 A 
ATOM     16  C   UNL     1       1.081   8.543  21.748  0.00  0.00    +0.000 A 
ENDBRANCH   8  11
ENDBRANCH   1   9
BRANCH   5  17
ATOM     17  N   UNL     1       4.330   3.652  16.945  0.00  0.00    +0.000 N 
ATOM     18  C   UNL     1       5.506   4.289  16.586  0.00  0.00    +0.000 C 
ATOM     19  O   UNL     1       6.258   4.892  17.348  0.00  0.00    +0.000 OA
ATOM     20  H   UNL     1       3.906   3.025  16.273  0.00  0.00    +0.000 HD
BRANCH  18  21
ATOM     21  C   UNL     1       5.947   4.207  15.169  0.00  0.00    +0.000 A 
ATOM     22  C   UNL     1       7.155   4.849  14.851  0.00  0.00    +0.000 A 
ATOM     23  C   UNL     1       7.593   4.935  13.533  0.00  0.00    +0.000 A 
ATOM     24  C   UNL     1       6.820   4.387  12.515  0.00  0.00    +0.000 A 
ATOM     25  C   UNL     1       5.604   3.741  12.806  0.00  0.00    +0.000 A 
ATOM     26  C   UNL     1       5.173   3.647  14.147  0.00  0.00    +0.000 A 
BRANCH  25  27
ATOM     27  C   UNL     1       4.756   3.187  11.684  0.00  0.00    +0.000 C 
ATOM     28  F   UNL     1       4.605   4.046  10.638  0.00  0.00    +0.000 F 
ATOM     29  F   UNL     1       5.280   2.047  11.158  0.00  0.00    +0.000 F 
ATOM     30  F   UNL     1       3.497   2.869  12.091  0.00  0.00    +0.000 F 
ENDBRANCH  25  27
ENDBRANCH  18  21
ENDBRANCH   5  17
TORSDOF 5
ENDMDL
MODEL 5
REMARK VINA RESULT:      -8.3      4.086      6.366
REMARK  Name = 
REMARK  5 active torsions:
REMARK  status: ('A' for Active; 'I' for Inactive)
REMARK    1  A    between atoms: C_2  and  C_23
REMARK    2  A    between atoms: N_3  and  C_4
REMARK    3  A    between atoms: C_8  and  N_9
REMARK    4  A    between atoms: C_10  and  C_12
REMARK    5  A    between atoms: C_16  and  C_17
REMARK                            x       y       z     vdW  Elec       q    Type
REMARK                         _______ _______ _______ _____ _____    ______ ____
ROOT
ATOM      1  C   UNL     1       2.391   5.171  20.155  0.00  0.00    +0.000 A 
ATOM      2  C   UNL     1       2.413   4.035  20.968  0.00  0.00    +0.000 A 
ATOM      3  C   UNL     1       3.030   2.870  20.530  0.00  0.00    +0.000 A 
ATOM      4  C   UNL     1       3.621   2.827  19.271  0.00  0.00    +0.000 A 
ATOM      5  C   UNL     1       3.588   3.935  18.419  0.00  0.00    +0.000 A 
ATOM      6  C   UNL     1       2.966   5.110  18.871  0.00  0.00    +0.000 A 
ENDROOT
BRANCH   1   9
ATOM      7  O   UNL     1       2.498   7.823  18.869  0.00  0.00    +0.000 OA
ATOM      8  C   UNL     1       1.925   7.608  19.931  0.00  0.00    +0.000 C 
ATOM      9  N   UNL     1       1.804   6.385  20.577  0.00  0.00    +0.000 N 
ATOM     10  H   UNL     1       1.128   6.325  21.327  0.00  0.00    +0.000 HD
BRANCH   8  11
ATOM     11  C   UNL     1       1.210   8.739  20.573  0.00  0.00    +0.000 A 
ATOM     12  C   UNL     1       0.894   8.637  21.935  0.00  0.00    +0.000 A 
ATOM     13  C   UNL     1       0.212   9.670  22.576  0.00  0.00    +0.000 A 
ATOM     14  C   UNL     1      -0.166  10.801  21.856  0.00  0.00    +0.000 A 
ATOM     15  C   UNL     1       0.128  10.900  20.494  0.00  0.00    +0.000 A 
ATOM     16  C   UNL     1       0.813   9.869  19.848  0.00  0.00    +0.000 A 
ENDBRANCH   8  11
ENDBRANCH   1   9
BRANCH   5  17
ATOM     17  N   UNL     1       4.178   3.917  17.124  0.00  0.00    +0.000 N 
ATOM     18  C   UNL     1       5.507   4.211  16.865  0.00  0.00    +0.000 C 
ATOM     19  O   UNL     1       6.370   4.441  17.709  0.00  0.00    +0.000 OA
ATOM     20  H   UNL     1       3.616   3.553  16.367  0.00  0.00    +0.000 HD
BRANCH  18  21
ATOM     21  C   UNL     1       5.966   4.204  15.452  0.00  0.00    +0.000 A 
ATOM     22  C   UNL     1       7.131   4.936  15.168  0.00  0.00    +0.000 A 
ATOM     23  C   UNL     1       7.575   5.092  13.858  0.00  0.00    +0.000 A 
ATOM     24  C   UNL     1       6.851   4.524  12.816  0.00  0.00    +0.000 A 
ATOM     25  C   UNL     1       5.680   3.789  13.072  0.00  0.00    +0.000 A 
ATOM     26  C   UNL     1       5.242   3.624  14.404  0.00  0.00    +0.000 A 
BRANCH  25  27
ATOM     27  C   UNL     1       4.883   3.213  11.924  0.00  0.00    +0.000 C 
ATOM     28  F   UNL     1       5.325   1.993  11.510  0.00  0.00    +0.000 F 
ATOM     29  F   UNL     1       3.570   3.047  12.241  0.00  0.00    +0.000 F 
ATOM     30  F   UNL     1       4.906   4.011  10.822  0.00  0.00    +0.000 F 
ENDBRANCH  25  27
ENDBRANCH  18  21
ENDBRANCH   5  17
TORSDOF 5
ENDMDL
MODEL 6
REMARK VINA RESULT:      -8.3      7.421      9.267
REMARK  Name = 
REMARK  5 active torsions:
REMARK  status: ('A' for Active; 'I' for Inactive)
REMARK    1  A    between atoms: C_2  and  C_23
REMARK    2  A    between atoms: N_3  and  C_4
REMARK    3  A    between atoms: C_8  and  N_9
REMARK    4  A    between atoms: C_10  and  C_12
REMARK    5  A    between atoms: C_16  and  C_17
REMARK                            x       y       z     vdW  Elec       q    Type
REMARK                         _______ _______ _______ _____ _____    ______ ____
ROOT
ATOM      1  C   UNL     1       5.521   4.943  17.470  0.00  0.00    +0.000 A 
ATOM      2  C   UNL     1       5.992   4.228  16.367  0.00  0.00    +0.000 A 
ATOM      3  C   UNL     1       6.946   4.783  15.524  0.00  0.00    +0.000 A 
ATOM      4  C   UNL     1       7.430   6.065  15.771  0.00  0.00    +0.000 A 
ATOM      5  C   UNL     1       6.956   6.822  16.847  0.00  0.00    +0.000 A 
ATOM      6  C   UNL     1       5.994   6.250  17.696  0.00  0.00    +0.000 A 
ENDROOT
BRANCH   1   9
ATOM      7  O   UNL     1       2.629   5.485  17.669  0.00  0.00    +0.000 OA
ATOM      8  C   UNL     1       3.230   4.729  18.424  0.00  0.00    +0.000 C 
ATOM      9  N   UNL     1       4.577   4.401  18.371  0.00  0.00    +0.000 N 
ATOM     10  H   UNL     1       4.880   3.609  18.922  0.00  0.00    +0.000 HD
BRANCH   8  11
ATOM     11  C   UNL     1       2.442   4.018  19.462  0.00  0.00    +0.000 A 
ATOM     12  C   UNL     1       2.948   3.981  20.769  0.00  0.00    +0.000 A 
ATOM     13  C   UNL     1       2.248   3.314  21.773  0.00  0.00    +0.000 A 
ATOM     14  C   UNL     1       1.048   2.672  21.471  0.00  0.00    +0.000 A 
ATOM     15  C   UNL     1       0.550   2.688  20.166  0.00  0.00    +0.000 A 
ATOM     16  C   UNL     1       1.246   3.358  19.158  0.00  0.00    +0.000 A 
ENDBRANCH   8  11
ENDBRANCH   1   9
BRANCH   5  17
ATOM     17  N   UNL     1       7.428   8.136  17.120  0.00  0.00    +0.000 N 
ATOM     18  C   UNL     1       8.231   8.473  18.197  0.00  0.00    +0.000 C 
ATOM     19  O   UNL     1       8.711   7.685  19.009  0.00  0.00    +0.000 OA
ATOM     20  H   UNL     1       7.261   8.841  16.414  0.00  0.00    +0.000 HD
BRANCH  18  21
ATOM     21  C   UNL     1       8.600   9.900  18.382  0.00  0.00    +0.000 A 
ATOM     22  C   UNL     1       8.038  10.815  17.476  0.00  0.00    +0.000 A 
ATOM     23  C   UNL     1       8.415  12.154  17.487  0.00  0.00    +0.000 A 
ATOM     24  C   UNL     1       9.367  12.592  18.401  0.00  0.00    +0.000 A 
ATOM     25  C   UNL     1       9.948  11.696  19.317  0.00  0.00    +0.000 A 
ATOM     26  C   UNL     1       9.552  10.342  19.308  0.00  0.00    +0.000 A 
BRANCH  25  27
ATOM     27  C   UNL     1      11.011  12.180  20.276  0.00  0.00    +0.000 C 
ATOM     28  F   UNL     1      10.660  12.062  21.587  0.00  0.00    +0.000 F 
ATOM     29  F   UNL     1      12.179  11.494  20.139  0.00  0.00    +0.000 F 
ATOM     30  F   UNL     1      11.322  13.492  20.090  0.00  0.00    +0.000 F 
ENDBRANCH  25  27
ENDBRANCH  18  21
ENDBRANCH   5  17
TORSDOF 5
ENDMDL
MODEL 7
REMARK VINA RESULT:      -8.2      5.103     10.500
REMARK  Name = 
REMARK  5 active torsions:
REMARK  status: ('A' for Active; 'I' for Inactive)
REMARK    1  A    between atoms: C_2  and  C_23
REMARK    2  A    between atoms: N_3  and  C_4
REMARK    3  A    between atoms: C_8  and  N_9
REMARK    4  A    between atoms: C_10  and  C_12
REMARK    5  A    between atoms: C_16  and  C_17
REMARK                            x       y       z     vdW  Elec       q    Type
REMARK                         _______ _______ _______ _____ _____    ______ ____
ROOT
ATOM      1  C   UNL     1       6.292   4.676  16.139  0.00  0.00    +0.000 A 
ATOM      2  C   UNL     1       7.426   4.535  16.940  0.00  0.00    +0.000 A 
ATOM      3  C   UNL     1       7.533   5.234  18.136  0.00  0.00    +0.000 A 
ATOM      4  C   UNL     1       6.510   6.089  18.535  0.00  0.00    +0.000 A 
ATOM      5  C   UNL     1       5.375   6.279  17.740  0.00  0.00    +0.000 A 
ATOM      6  C   UNL     1       5.274   5.565  16.535  0.00  0.00    +0.000 A 
ENDROOT
BRANCH   1   9
ATOM      7  O   UNL     1       7.390   5.270  13.466  0.00  0.00    +0.000 OA
ATOM      8  C   UNL     1       6.654   4.317  13.700  0.00  0.00    +0.000 C 
ATOM      9  N   UNL     1       6.129   3.957  14.933  0.00  0.00    +0.000 N 
ATOM     10  H   UNL     1       5.718   3.036  15.007  0.00  0.00    +0.000 HD
BRANCH   8  11
ATOM     11  C   UNL     1       6.343   3.393  12.581  0.00  0.00    +0.000 A 
ATOM     12  C   UNL     1       5.006   3.264  12.180  0.00  0.00    +0.000 A 
ATOM     13  C   UNL     1       4.666   2.398  11.142  0.00  0.00    +0.000 A 
ATOM     14  C   UNL     1       5.659   1.650  10.511  0.00  0.00    +0.000 A 
ATOM     15  C   UNL     1       6.990   1.760  10.919  0.00  0.00    +0.000 A 
ATOM     16  C   UNL     1       7.335   2.628  11.957  0.00  0.00    +0.000 A 
ENDBRANCH   8  11
ENDBRANCH   1   9
BRANCH   5  17
ATOM     17  N   UNL     1       4.317   7.151  18.120  0.00  0.00    +0.000 N 
ATOM     18  C   UNL     1       3.200   6.761  18.840  0.00  0.00    +0.000 C 
ATOM     19  O   UNL     1       3.008   5.646  19.318  0.00  0.00    +0.000 OA
ATOM     20  H   UNL     1       4.453   8.140  17.952  0.00  0.00    +0.000 HD
BRANCH  18  21
ATOM     21  C   UNL     1       2.150   7.776  19.116  0.00  0.00    +0.000 A 
ATOM     22  C   UNL     1       1.816   8.635  18.057  0.00  0.00    +0.000 A 
ATOM     23  C   UNL     1       0.935   9.695  18.248  0.00  0.00    +0.000 A 
ATOM     24  C   UNL     1       0.385   9.913  19.506  0.00  0.00    +0.000 A 
ATOM     25  C   UNL     1       0.706   9.070  20.585  0.00  0.00    +0.000 A 
ATOM     26  C   UNL     1       1.591   7.989  20.381  0.00  0.00    +0.000 A 
BRANCH  25  27
ATOM     27  C   UNL     1       0.132   9.346  21.956  0.00  0.00    +0.000 C 
ATOM     28  F   UNL     1      -0.854   8.479  22.320  0.00  0.00    +0.000 F 
ATOM     29  F   UNL     1       1.076   9.269  22.934  0.00  0.00    +0.000 F 
ATOM     30  F   UNL     1      -0.410  10.590  22.053  0.00  0.00    +0.000 F 
ENDBRANCH  25  27
ENDBRANCH  18  21
ENDBRANCH   5  17
TORSDOF 5
ENDMDL
MODEL 8
REMARK VINA RESULT:      -8.2      2.381      2.994
REMARK  Name = 
REMARK  5 active torsions:
REMARK  status: ('A' for Active; 'I' for Inactive)
REMARK    1  A    between atoms: C_2  and  C_23
REMARK    2  A    between atoms: N_3  and  C_4
REMARK    3  A    between atoms: C_8  and  N_9
REMARK    4  A    between atoms: C_10  and  C_12
REMARK    5  A    between atoms: C_16  and  C_17
REMARK                            x       y       z     vdW  Elec       q    Type
REMARK                         _______ _______ _______ _____ _____    ______ ____
ROOT
ATOM      1  C   UNL     1      -0.860  11.536  18.931  0.00  0.00    +0.000 A 
ATOM      2  C   UNL     1      -0.008  12.634  18.800  0.00  0.00    +0.000 A 
ATOM      3  C   UNL     1       1.356  12.446  18.607  0.00  0.00    +0.000 A 
ATOM      4  C   UNL     1       1.879  11.158  18.553  0.00  0.00    +0.000 A 
ATOM      5  C   UNL     1       1.059  10.037  18.714  0.00  0.00    +0.000 A 
ATOM      6  C   UNL     1      -0.319  10.236  18.905  0.00  0.00    +0.000 A 
ENDROOT
BRANCH   1   9
ATOM      7  O   UNL     1      -2.992  11.356  16.901  0.00  0.00    +0.000 OA
ATOM      8  C   UNL     1      -3.200  11.615  18.081  0.00  0.00    +0.000 C 
ATOM      9  N   UNL     1      -2.256  11.683  19.095  0.00  0.00    +0.000 N 
ATOM     10  H   UNL     1      -2.601  11.696  20.045  0.00  0.00    +0.000 HD
BRANCH   8  11
ATOM     11  C   UNL     1      -4.609  11.801  18.509  0.00  0.00    +0.000 A 
ATOM     12  C   UNL     1      -4.856  12.548  19.669  0.00  0.00    +0.000 A 
ATOM     13  C   UNL     1      -6.162  12.739  20.116  0.00  0.00    +0.000 A 
ATOM     14  C   UNL     1      -7.224  12.172  19.413  0.00  0.00    +0.000 A 
ATOM     15  C   UNL     1      -6.983  11.410  18.267  0.00  0.00    +0.000 A 
ATOM     16  C   UNL     1      -5.676  11.220  17.814  0.00  0.00    +0.000 A 
ENDBRANCH   8  11
ENDBRANCH   1   9
BRANCH   5  17
ATOM     17  N   UNL     1       1.567   8.709  18.670  0.00  0.00    +0.000 N 
ATOM     18  C   UNL     1       1.847   7.939  19.787  0.00  0.00    +0.000 C 
ATOM     19  O   UNL     1       1.620   8.255  20.952  0.00  0.00    +0.000 OA
ATOM     20  H   UNL     1       1.613   8.263  17.762  0.00  0.00    +0.000 HD
BRANCH  18  21
ATOM     21  C   UNL     1       2.426   6.586  19.582  0.00  0.00    +0.000 A 
ATOM     22  C   UNL     1       3.315   6.440  18.504  0.00  0.00    +0.000 A 
ATOM     23  C   UNL     1       3.816   5.190  18.155  0.00  0.00    +0.000 A 
ATOM     24  C   UNL     1       3.425   4.068  18.876  0.00  0.00    +0.000 A 
ATOM     25  C   UNL     1       2.533   4.184  19.958  0.00  0.00    +0.000 A 
ATOM     26  C   UNL     1       2.039   5.458  20.315  0.00  0.00    +0.000 A 
BRANCH  25  27
ATOM     27  C   UNL     1       2.086   2.949  20.705  0.00  0.00    +0.000 C 
ATOM     28  F   UNL     1       0.864   3.078  21.294  0.00  0.00    +0.000 F 
ATOM     29  F   UNL     1       1.996   1.860  19.893  0.00  0.00    +0.000 F 
ATOM     30  F   UNL     1       2.946   2.604  21.702  0.00  0.00    +0.000 F 
ENDBRANCH  25  27
ENDBRANCH  18  21
ENDBRANCH   5  17
TORSDOF 5
ENDMDL
MODEL 9
REMARK VINA RESULT:      -8.2      1.773      2.342
REMARK  Name = 
REMARK  5 active torsions:
REMARK  status: ('A' for Active; 'I' for Inactive)
REMARK    1  A    between atoms: C_2  and  C_23
REMARK    2  A    between atoms: N_3  and  C_4
REMARK    3  A    between atoms: C_8  and  N_9
REMARK    4  A    between atoms: C_10  and  C_12
REMARK    5  A    between atoms: C_16  and  C_17
REMARK                            x       y       z     vdW  Elec       q    Type
REMARK                         _______ _______ _______ _____ _____    ______ ____
ROOT
ATOM      1  C   UNL     1      -0.697  11.171  18.428  0.00  0.00    +0.000 A 
ATOM      2  C   UNL     1       0.090  12.304  18.642  0.00  0.00    +0.000 A 
ATOM      3  C   UNL     1       1.475  12.222  18.568  0.00  0.00    +0.000 A 
ATOM      4  C   UNL     1       2.085  11.002  18.290  0.00  0.00    +0.000 A 
ATOM      5  C   UNL     1       1.328   9.841  18.104  0.00  0.00    +0.000 A 
ATOM      6  C   UNL     1      -0.071   9.935  18.177  0.00  0.00    +0.000 A 
ENDROOT
BRANCH   1   9
ATOM      7  O   UNL     1      -2.602  11.183  16.176  0.00  0.00    +0.000 OA
ATOM      8  C   UNL     1      -2.942  11.253  17.352  0.00  0.00    +0.000 C 
ATOM      9  N   UNL     1      -2.109  11.219  18.461  0.00  0.00    +0.000 N 
ATOM     10  H   UNL     1      -2.546  11.073  19.361  0.00  0.00    +0.000 HD
BRANCH   8  11
ATOM     11  C   UNL     1      -4.396  11.299  17.650  0.00  0.00    +0.000 A 
ATOM     12  C   UNL     1      -5.160  12.317  17.063  0.00  0.00    +0.000 A 
ATOM     13  C   UNL     1      -6.527  12.406  17.324  0.00  0.00    +0.000 A 
ATOM     14  C   UNL     1      -7.130  11.488  18.181  0.00  0.00    +0.000 A 
ATOM     15  C   UNL     1      -6.369  10.483  18.784  0.00  0.00    +0.000 A 
ATOM     16  C   UNL     1      -5.001  10.388  18.523  0.00  0.00    +0.000 A 
ENDBRANCH   8  11
ENDBRANCH   1   9
BRANCH   5  17
ATOM     17  N   UNL     1       1.925   8.580  17.825  0.00  0.00    +0.000 N 
ATOM     18  C   UNL     1       2.286   7.653  18.789  0.00  0.00    +0.000 C 
ATOM     19  O   UNL     1       2.068   7.749  19.995  0.00  0.00    +0.000 OA
ATOM     20  H   UNL     1       1.978   8.301  16.854  0.00  0.00    +0.000 HD
BRANCH  18  21
ATOM     21  C   UNL     1       2.951   6.400  18.347  0.00  0.00    +0.000 A 
ATOM     22  C   UNL     1       3.962   6.534  17.381  0.00  0.00    +0.000 A 
ATOM     23  C   UNL     1       4.561   5.413  16.814  0.00  0.00    +0.000 A 
ATOM     24  C   UNL     1       4.147   4.143  17.201  0.00  0.00    +0.000 A 
ATOM     25  C   UNL     1       3.134   3.981  18.163  0.00  0.00    +0.000 A 
ATOM     26  C   UNL     1       2.540   5.122  18.744  0.00  0.00    +0.000 A 
BRANCH  25  27
ATOM     27  C   UNL     1       2.667   2.594  18.542  0.00  0.00    +0.000 C 
ATOM     28  F   UNL     1       3.595   1.624  18.311  0.00  0.00    +0.000 F 
ATOM     29  F   UNL     1       2.349   2.501  19.862  0.00  0.00    +0.000 F 
ATOM     30  F   UNL     1       1.553   2.215  17.859  0.00  0.00    +0.000 F 
ENDBRANCH  25  27
ENDBRANCH  18  21
ENDBRANCH   5  17
TORSDOF 5
ENDMDL
