MODEL 1
REMARK VINA RESULT:      -6.0      0.000      0.000
REMARK  Name = 
REMARK  2 active torsions:
REMARK  status: ('A' for Active; 'I' for Inactive)
REMARK    1  A    between atoms: C_1  and  N_2
REMARK    2  A    between atoms: C_6  and  C_7
REMARK                            x       y       z     vdW  Elec       q    Type
REMARK                         _______ _______ _______ _____ _____    ______ ____
ROOT
ATOM      1  C   UNL     1       3.753   3.929  17.747  0.00  0.00    +0.000 C 
ATOM      2  O   UNL     1       2.896   3.418  17.022  0.00  0.00    +0.000 OA
ATOM      3  N   UNL     1       5.007   4.261  17.233  0.00  0.00    +0.000 N 
ATOM      4  C   UNL     1       5.236   4.214  15.791  0.00  0.00    +0.000 C 
ATOM      5  C   UNL     1       5.951   5.495  15.310  0.00  0.00    +0.000 C 
ATOM      6  N   UNL     1       7.175   5.812  16.073  0.00  0.00    +0.000 NA
ATOM      7  C   UNL     1       6.888   5.841  17.518  0.00  0.00    +0.000 C 
ATOM      8  C   UNL     1       6.213   4.548  18.015  0.00  0.00    +0.000 C 
ATOM      9  H   UNL     1       7.517   6.729  15.783  0.00  0.00    +0.000 HD
ENDROOT
BRANCH   1  15
ATOM     10  C   UNL     1       4.402   2.206  20.226  0.00  0.00    +0.000 C 
ATOM     11  N   UNL     1       3.326   3.177  20.178  0.00  0.00    +0.000 NA
ATOM     12  C   UNL     1       2.015   2.594  19.916  0.00  0.00    +0.000 C 
ATOM     13  C   UNL     1       1.147   3.832  19.784  0.00  0.00    +0.000 C 
ATOM     14  C   UNL     1       2.098   4.953  19.367  0.00  0.00    +0.000 C 
ATOM     15  C   UNL     1       3.483   4.303  19.234  0.00  0.00    +0.000 C 
ENDBRANCH   1  15
TORSDOF 1
ENDMDL
MODEL 2
REMARK VINA RESULT:      -6.0      1.484      2.218
REMARK  Name = 
REMARK  2 active torsions:
REMARK  status: ('A' for Active; 'I' for Inactive)
REMARK    1  A    between atoms: C_1  and  N_2
REMARK    2  A    between atoms: C_6  and  C_7
REMARK                            x       y       z     vdW  Elec       q    Type
REMARK                         _______ _______ _______ _____ _____    ______ ____
ROOT
ATOM      1  C   UNL     1       4.432   3.905  18.664  0.00  0.00    +0.000 C 
ATOM      2  O   UNL     1       4.866   3.136  19.526  0.00  0.00    +0.000 OA
ATOM      3  N   UNL     1       5.296   4.767  17.987  0.00  0.00    +0.000 N 
ATOM      4  C   UNL     1       6.741   4.608  18.133  0.00  0.00    +0.000 C 
ATOM      5  C   UNL     1       7.436   4.650  16.755  0.00  0.00    +0.000 C 
ATOM      6  N   UNL     1       7.069   5.827  15.942  0.00  0.00    +0.000 NA
ATOM      7  C   UNL     1       5.604   5.941  15.833  0.00  0.00    +0.000 C 
ATOM      8  C   UNL     1       4.905   5.943  17.206  0.00  0.00    +0.000 C 
ATOM      9  H   UNL     1       7.466   5.720  15.008  0.00  0.00    +0.000 HD
ENDROOT
BRANCH   1  15
ATOM     10  C   UNL     1       2.151   5.553  19.935  0.00  0.00    +0.000 C 
ATOM     11  N   UNL     1       1.951   4.288  19.258  0.00  0.00    +0.000 NA
ATOM     12  C   UNL     1       1.844   3.145  20.157  0.00  0.00    +0.000 C 
ATOM     13  C   UNL     1       1.786   1.985  19.180  0.00  0.00    +0.000 C 
ATOM     14  C   UNL     1       2.473   2.489  17.911  0.00  0.00    +0.000 C 
ATOM     15  C   UNL     1       2.940   3.918  18.223  0.00  0.00    +0.000 C 
ENDBRANCH   1  15
TORSDOF 1
ENDMDL
MODEL 3
REMARK VINA RESULT:      -6.0      1.764      5.098
REMARK  Name = 
REMARK  2 active torsions:
REMARK  status: ('A' for Active; 'I' for Inactive)
REMARK    1  A    between atoms: C_1  and  N_2
REMARK    2  A    between atoms: C_6  and  C_7
REMARK                            x       y       z     vdW  Elec       q    Type
REMARK                         _______ _______ _______ _____ _____    ______ ____
ROOT
ATOM      1  C   UNL     1       5.009   4.212  18.315  0.00  0.00    +0.000 C 
ATOM      2  O   UNL     1       6.003   4.305  19.041  0.00  0.00    +0.000 OA
ATOM      3  N   UNL     1       3.998   3.299  18.615  0.00  0.00    +0.000 N 
ATOM      4  C   UNL     1       4.002   2.610  19.904  0.00  0.00    +0.000 C 
ATOM      5  C   UNL     1       2.599   2.656  20.550  0.00  0.00    +0.000 C 
ATOM      6  N   UNL     1       1.520   2.191  19.656  0.00  0.00    +0.000 NA
ATOM      7  C   UNL     1       1.567   2.914  18.373  0.00  0.00    +0.000 C 
ATOM      8  C   UNL     1       2.951   2.837  17.700  0.00  0.00    +0.000 C 
ATOM      9  H   UNL     1       0.620   2.368  20.106  0.00  0.00    +0.000 HD
ENDROOT
BRANCH   1  15
ATOM     10  C   UNL     1       6.081   3.768  15.454  0.00  0.00    +0.000 C 
ATOM     11  N   UNL     1       5.796   5.074  16.014  0.00  0.00    +0.000 NA
ATOM     12  C   UNL     1       6.973   5.771  16.520  0.00  0.00    +0.000 C 
ATOM     13  C   UNL     1       6.354   7.004  17.154  0.00  0.00    +0.000 C 
ATOM     14  C   UNL     1       4.919   6.607  17.498  0.00  0.00    +0.000 C 
ATOM     15  C   UNL     1       4.777   5.136  17.084  0.00  0.00    +0.000 C 
ENDBRANCH   1  15
TORSDOF 1
ENDMDL
MODEL 4
REMARK VINA RESULT:      -6.0      1.527      1.686
REMARK  Name = 
REMARK  2 active torsions:
REMARK  status: ('A' for Active; 'I' for Inactive)
REMARK    1  A    between atoms: C_1  and  N_2
REMARK    2  A    between atoms: C_6  and  C_7
REMARK                            x       y       z     vdW  Elec       q    Type
REMARK                         _______ _______ _______ _____ _____    ______ ____
ROOT
ATOM      1  C   UNL     1       3.411   5.132  18.288  0.00  0.00    +0.000 C 
ATOM      2  O   UNL     1       2.487   5.909  18.032  0.00  0.00    +0.000 OA
ATOM      3  N   UNL     1       4.637   5.253  17.633  0.00  0.00    +0.000 N 
ATOM      4  C   UNL     1       4.906   6.429  16.808  0.00  0.00    +0.000 C 
ATOM      5  C   UNL     1       6.301   7.011  17.128  0.00  0.00    +0.000 C 
ATOM      6  N   UNL     1       7.387   6.012  17.072  0.00  0.00    +0.000 NA
ATOM      7  C   UNL     1       7.060   4.848  17.915  0.00  0.00    +0.000 C 
ATOM      8  C   UNL     1       5.689   4.235  17.573  0.00  0.00    +0.000 C 
ATOM      9  H   UNL     1       8.248   6.440  17.415  0.00  0.00    +0.000 HD
ENDROOT
BRANCH   1  15
ATOM     10  C   UNL     1       2.798   2.138  17.851  0.00  0.00    +0.000 C 
ATOM     11  N   UNL     1       2.476   2.857  19.067  0.00  0.00    +0.000 NA
ATOM     12  C   UNL     1       1.087   3.296  19.146  0.00  0.00    +0.000 C 
ATOM     13  C   UNL     1       1.094   4.118  20.421  0.00  0.00    +0.000 C 
ATOM     14  C   UNL     1       2.539   4.580  20.600  0.00  0.00    +0.000 C 
ATOM     15  C   UNL     1       3.309   4.036  19.388  0.00  0.00    +0.000 C 
ENDBRANCH   1  15
TORSDOF 1
ENDMDL
MODEL 5
REMARK VINA RESULT:      -5.9      1.490      2.383
REMARK  Name = 
REMARK  2 active torsions:
REMARK  status: ('A' for Active; 'I' for Inactive)
REMARK    1  A    between atoms: C_1  and  N_2
REMARK    2  A    between atoms: C_6  and  C_7
REMARK                            x       y       z     vdW  Elec       q    Type
REMARK                         _______ _______ _______ _____ _____    ______ ____
ROOT
ATOM      1  C   UNL     1       4.328   4.799  18.699  0.00  0.00    +0.000 C 
ATOM      2  O   UNL     1       4.251   5.542  19.681  0.00  0.00    +0.000 OA
ATOM      3  N   UNL     1       5.051   5.189  17.572  0.00  0.00    +0.000 N 
ATOM      4  C   UNL     1       5.903   6.375  17.631  0.00  0.00    +0.000 C 
ATOM      5  C   UNL     1       7.293   6.078  17.028  0.00  0.00    +0.000 C 
ATOM      6  N   UNL     1       7.238   5.481  15.678  0.00  0.00    +0.000 NA
ATOM      7  C   UNL     1       6.363   4.295  15.676  0.00  0.00    +0.000 C 
ATOM      8  C   UNL     1       4.959   4.593  16.237  0.00  0.00    +0.000 C 
ATOM      9  H   UNL     1       8.180   5.201  15.403  0.00  0.00    +0.000 HD
ENDROOT
BRANCH   1  15
ATOM     10  C   UNL     1       1.507   4.042  17.698  0.00  0.00    +0.000 C 
ATOM     11  N   UNL     1       2.228   3.299  18.712  0.00  0.00    +0.000 NA
ATOM     12  C   UNL     1       1.832   3.624  20.077  0.00  0.00    +0.000 C 
ATOM     13  C   UNL     1       2.832   2.820  20.889  0.00  0.00    +0.000 C 
ATOM     14  C   UNL     1       4.040   2.629  19.973  0.00  0.00    +0.000 C 
ATOM     15  C   UNL     1       3.704   3.373  18.672  0.00  0.00    +0.000 C 
ENDBRANCH   1  15
TORSDOF 1
ENDMDL
MODEL 6
REMARK VINA RESULT:      -5.7      1.737      4.967
REMARK  Name = 
REMARK  2 active torsions:
REMARK  status: ('A' for Active; 'I' for Inactive)
REMARK    1  A    between atoms: C_1  and  N_2
REMARK    2  A    between atoms: C_6  and  C_7
REMARK                            x       y       z     vdW  Elec       q    Type
REMARK                         _______ _______ _______ _____ _____    ______ ____
ROOT
ATOM      1  C   UNL     1       4.770   4.899  18.317  0.00  0.00    +0.000 C 
ATOM      2  O   UNL     1       4.466   6.093  18.252  0.00  0.00    +0.000 OA
ATOM      3  N   UNL     1       3.842   3.956  18.760  0.00  0.00    +0.000 N 
ATOM      4  C   UNL     1       2.444   4.343  18.936  0.00  0.00    +0.000 C 
ATOM      5  C   UNL     1       1.505   3.299  18.293  0.00  0.00    +0.000 C 
ATOM      6  N   UNL     1       1.774   1.913  18.726  0.00  0.00    +0.000 NA
ATOM      7  C   UNL     1       3.197   1.580  18.531  0.00  0.00    +0.000 C 
ATOM      8  C   UNL     1       4.141   2.593  19.207  0.00  0.00    +0.000 C 
ATOM      9  H   UNL     1       1.204   1.276  18.168  0.00  0.00    +0.000 HD
ENDROOT
BRANCH   1  15
ATOM     10  C   UNL     1       7.541   5.750  19.381  0.00  0.00    +0.000 C 
ATOM     11  N   UNL     1       7.311   5.252  18.040  0.00  0.00    +0.000 NA
ATOM     12  C   UNL     1       7.198   6.300  17.032  0.00  0.00    +0.000 C 
ATOM     13  C   UNL     1       6.827   5.501  15.795  0.00  0.00    +0.000 C 
ATOM     14  C   UNL     1       6.171   4.224  16.318  0.00  0.00    +0.000 C 
ATOM     15  C   UNL     1       6.152   4.356  17.848  0.00  0.00    +0.000 C 
ENDBRANCH   1  15
TORSDOF 1
ENDMDL
MODEL 7
REMARK VINA RESULT:      -5.6      1.657      5.080
REMARK  Name = 
REMARK  2 active torsions:
REMARK  status: ('A' for Active; 'I' for Inactive)
REMARK    1  A    between atoms: C_1  and  N_2
REMARK    2  A    between atoms: C_6  and  C_7
REMARK                            x       y       z     vdW  Elec       q    Type
REMARK                         _______ _______ _______ _____ _____    ______ ____
ROOT
ATOM      1  C   UNL     1       4.181   4.333  17.906  0.00  0.00    +0.000 C 
ATOM      2  O   UNL     1       4.626   3.456  17.160  0.00  0.00    +0.000 OA
ATOM      3  N   UNL     1       2.919   4.195  18.483  0.00  0.00    +0.000 N 
ATOM      4  C   UNL     1       2.212   2.920  18.387  0.00  0.00    +0.000 C 
ATOM      5  C   UNL     1       1.642   2.508  19.762  0.00  0.00    +0.000 C 
ATOM      6  N   UNL     1       0.834   3.562  20.408  0.00  0.00    +0.000 NA
ATOM      7  C   UNL     1       1.591   4.825  20.472  0.00  0.00    +0.000 C 
ATOM      8  C   UNL     1       2.128   5.265  19.097  0.00  0.00    +0.000 C 
ATOM      9  H   UNL     1       0.601   3.265  21.356  0.00  0.00    +0.000 HD
ENDROOT
BRANCH   1  15
ATOM     10  C   UNL     1       4.977   6.684  16.070  0.00  0.00    +0.000 C 
ATOM     11  N   UNL     1       5.744   6.271  17.228  0.00  0.00    +0.000 NA
ATOM     12  C   UNL     1       6.887   5.424  16.908  0.00  0.00    +0.000 C 
ATOM     13  C   UNL     1       7.389   5.048  18.291  0.00  0.00    +0.000 C 
ATOM     14  C   UNL     1       6.178   5.179  19.213  0.00  0.00    +0.000 C 
ATOM     15  C   UNL     1       5.005   5.590  18.312  0.00  0.00    +0.000 C 
ENDBRANCH   1  15
TORSDOF 1
ENDMDL
MODEL 8
REMARK VINA RESULT:      -5.5      1.233      1.265
REMARK  Name = 
REMARK  2 active torsions:
REMARK  status: ('A' for Active; 'I' for Inactive)
REMARK    1  A    between atoms: C_1  and  N_2
REMARK    2  A    between atoms: C_6  and  C_7
REMARK                            x       y       z     vdW  Elec       q    Type
REMARK                         _______ _______ _______ _____ _____    ______ ____
ROOT
ATOM      1  C   UNL     1       3.913   3.376  17.843  0.00  0.00    +0.000 C 
ATOM      2  O   UNL     1       3.939   2.185  17.523  0.00  0.00    +0.000 OA
ATOM      3  N   UNL     1       4.784   4.288  17.245  0.00  0.00    +0.000 N 
ATOM      4  C   UNL     1       5.574   3.882  16.084  0.00  0.00    +0.000 C 
ATOM      5  C   UNL     1       5.495   4.950  14.971  0.00  0.00    +0.000 C 
ATOM      6  N   UNL     1       5.819   6.314  15.435  0.00  0.00    +0.000 NA
ATOM      7  C   UNL     1       5.000   6.668  16.608  0.00  0.00    +0.000 C 
ATOM      8  C   UNL     1       5.106   5.628  17.740  0.00  0.00    +0.000 C 
ATOM      9  H   UNL     1       5.624   6.974  14.681  0.00  0.00    +0.000 HD
ENDROOT
BRANCH   1  15
ATOM     10  C   UNL     1       3.647   2.632  20.827  0.00  0.00    +0.000 C 
ATOM     11  N   UNL     1       2.544   3.097  20.012  0.00  0.00    +0.000 NA
ATOM     12  C   UNL     1       1.692   2.029  19.503  0.00  0.00    +0.000 C 
ATOM     13  C   UNL     1       0.744   2.793  18.596  0.00  0.00    +0.000 C 
ATOM     14  C   UNL     1       1.500   4.058  18.193  0.00  0.00    +0.000 C 
ATOM     15  C   UNL     1       2.881   3.954  18.855  0.00  0.00    +0.000 C 
ENDBRANCH   1  15
TORSDOF 1
ENDMDL
MODEL 9
REMARK VINA RESULT:      -5.5      1.726      5.015
REMARK  Name = 
REMARK  2 active torsions:
REMARK  status: ('A' for Active; 'I' for Inactive)
REMARK    1  A    between atoms: C_1  and  N_2
REMARK    2  A    between atoms: C_6  and  C_7
REMARK                            x       y       z     vdW  Elec       q    Type
REMARK                         _______ _______ _______ _____ _____    ______ ____
ROOT
ATOM      1  C   UNL     1       4.757   4.543  18.774  0.00  0.00    +0.000 C 
ATOM      2  O   UNL     1       5.108   5.493  19.479  0.00  0.00    +0.000 OA
ATOM      3  N   UNL     1       3.691   3.732  19.161  0.00  0.00    +0.000 N 
ATOM      4  C   UNL     1       2.844   4.133  20.283  0.00  0.00    +0.000 C 
ATOM      5  C   UNL     1       1.351   3.987  19.917  0.00  0.00    +0.000 C 
ATOM      6  N   UNL     1       0.998   2.657  19.382  0.00  0.00    +0.000 NA
ATOM      7  C   UNL     1       1.885   2.302  18.260  0.00  0.00    +0.000 C 
ATOM      8  C   UNL     1       3.377   2.403  18.628  0.00  0.00    +0.000 C 
ATOM      9  H   UNL     1       0.033   2.680  19.050  0.00  0.00    +0.000 HD
ENDROOT
BRANCH   1  15
ATOM     10  C   UNL     1       7.767   4.661  18.096  0.00  0.00    +0.000 C 
ATOM     11  N   UNL     1       6.714   4.876  17.125  0.00  0.00    +0.000 NA
ATOM     12  C   UNL     1       6.434   6.282  16.857  0.00  0.00    +0.000 C 
ATOM     13  C   UNL     1       5.227   6.189  15.941  0.00  0.00    +0.000 C 
ATOM     14  C   UNL     1       4.573   4.847  16.266  0.00  0.00    +0.000 C 
ATOM     15  C   UNL     1       5.411   4.231  17.396  0.00  0.00    +0.000 C 
ENDBRANCH   1  15
TORSDOF 1
ENDMDL
