MODEL 1
REMARK VINA RESULT:      -7.2      0.000      0.000
REMARK  Name = 
REMARK  3 active torsions:
REMARK  status: ('A' for Active; 'I' for Inactive)
REMARK    1  A    between atoms: C_2  and  C_3
REMARK    2  A    between atoms: C_3  and  C_4
REMARK    3  A    between atoms: N_11  and  C_12
REMARK                            x       y       z     vdW  Elec       q    Type
REMARK                         _______ _______ _______ _____ _____    ______ ____
ROOT
ATOM      1  O   UNL     1       7.668   9.211  17.429  0.00  0.00    +0.000 OA
ATOM      2  C   UNL     1       8.302   8.600  18.283  0.00  0.00    +0.000 C 
ATOM      3  N   UNL     1       9.179   9.164  19.185  0.00  0.00    +0.000 N 
ATOM      4  H   UNL     1       9.719   8.507  19.749  0.00  0.00    +0.000 HD
ENDROOT
BRANCH   3   5
ATOM      5  C   UNL     1       9.492  10.526  19.332  0.00  0.00    +0.000 A 
ATOM      6  C   UNL     1       9.288  11.241  20.515  0.00  0.00    +0.000 A 
ATOM      7  C   UNL     1       9.598  12.603  20.582  0.00  0.00    +0.000 A 
ATOM      8  C   UNL     1      10.109  13.264  19.465  0.00  0.00    +0.000 A 
ATOM      9 CL   UNL     1      10.423  14.957  19.603  0.00  0.00    +0.000 Cl
ATOM     10  C   UNL     1      10.342  12.550  18.286  0.00  0.00    +0.000 A 
ATOM     11 CL   UNL     1      10.975  13.294  16.860  0.00  0.00    +0.000 Cl
ATOM     12  C   UNL     1      10.050  11.182  18.229  0.00  0.00    +0.000 A 
ENDBRANCH   3   5
BRANCH   2  13
ATOM     13  C   UNL     1       8.069   7.104  18.464  0.00  0.00    +0.000 C 
BRANCH  13  14
ATOM     14  C   UNL     1       6.886   6.485  17.707  0.00  0.00    +0.000 C 
ATOM     15  N   UNL     1       7.251   6.294  16.266  0.00  0.00    +0.000 NA
ATOM     16  C   UNL     1       6.276   5.416  15.599  0.00  0.00    +0.000 C 
ATOM     17  C   UNL     1       6.321   4.032  16.243  0.00  0.00    +0.000 C 
ATOM     18  N   UNL     1       6.071   4.111  17.661  0.00  0.00    +0.000 N 
ATOM     19  C   UNL     1       6.479   5.171  18.428  0.00  0.00    +0.000 C 
ATOM     20  O   UNL     1       6.438   5.069  19.652  0.00  0.00    +0.000 OA
ATOM     21  H   UNL     1       8.159   5.820  16.239  0.00  0.00    +0.000 HD
ATOM     22  H   UNL     1       5.866   3.268  18.187  0.00  0.00    +0.000 HD
ENDBRANCH  13  14
ENDBRANCH   2  13
TORSDOF 3
ENDMDL
MODEL 2
REMARK VINA RESULT:      -7.2      0.919      1.745
REMARK  Name = 
REMARK  3 active torsions:
REMARK  status: ('A' for Active; 'I' for Inactive)
REMARK    1  A    between atoms: C_2  and  C_3
REMARK    2  A    between atoms: C_3  and  C_4
REMARK    3  A    between atoms: N_11  and  C_12
REMARK                            x       y       z     vdW  Elec       q    Type
REMARK                         _______ _______ _______ _____ _____    ______ ____
ROOT
ATOM      1  O   UNL     1       7.499   8.915  17.230  0.00  0.00    +0.000 OA
ATOM      2  C   UNL     1       8.100   8.302  18.106  0.00  0.00    +0.000 C 
ATOM      3  N   UNL     1       8.980   8.857  19.011  0.00  0.00    +0.000 N 
ATOM      4  H   UNL     1       9.491   8.195  19.597  0.00  0.00    +0.000 HD
ENDROOT
BRANCH   3   5
ATOM      5  C   UNL     1       9.334  10.212  19.136  0.00  0.00    +0.000 A 
ATOM      6  C   UNL     1       9.796  10.990  18.072  0.00  0.00    +0.000 A 
ATOM      7  C   UNL     1      10.156  12.325  18.275  0.00  0.00    +0.000 A 
ATOM      8  C   UNL     1      10.064  12.894  19.546  0.00  0.00    +0.000 A 
ATOM      9 CL   UNL     1      10.571  14.534  19.736  0.00  0.00    +0.000 Cl
ATOM     10  C   UNL     1       9.576  12.130  20.610  0.00  0.00    +0.000 A 
ATOM     11 CL   UNL     1       9.429  12.760  22.213  0.00  0.00    +0.000 Cl
ATOM     12  C   UNL     1       9.197  10.798  20.399  0.00  0.00    +0.000 A 
ENDBRANCH   3   5
BRANCH   2  13
ATOM     13  C   UNL     1       7.817   6.819  18.313  0.00  0.00    +0.000 C 
BRANCH  13  14
ATOM     14  C   UNL     1       6.601   6.231  17.584  0.00  0.00    +0.000 C 
ATOM     15  N   UNL     1       6.847   6.236  16.106  0.00  0.00    +0.000 NA
ATOM     16  C   UNL     1       5.857   5.392  15.415  0.00  0.00    +0.000 C 
ATOM     17  C   UNL     1       6.019   3.945  15.877  0.00  0.00    +0.000 C 
ATOM     18  N   UNL     1       5.890   3.840  17.309  0.00  0.00    +0.000 N 
ATOM     19  C   UNL     1       6.317   4.820  18.166  0.00  0.00    +0.000 C 
ATOM     20  O   UNL     1       6.387   4.570  19.368  0.00  0.00    +0.000 OA
ATOM     21  H   UNL     1       7.770   5.818  15.946  0.00  0.00    +0.000 HD
ATOM     22  H   UNL     1       5.770   2.930  17.741  0.00  0.00    +0.000 HD
ENDBRANCH  13  14
ENDBRANCH   2  13
TORSDOF 3
ENDMDL
MODEL 3
REMARK VINA RESULT:      -7.0      6.373      7.924
REMARK  Name = 
REMARK  3 active torsions:
REMARK  status: ('A' for Active; 'I' for Inactive)
REMARK    1  A    between atoms: C_2  and  C_3
REMARK    2  A    between atoms: C_3  and  C_4
REMARK    3  A    between atoms: N_11  and  C_12
REMARK                            x       y       z     vdW  Elec       q    Type
REMARK                         _______ _______ _______ _____ _____    ______ ____
ROOT
ATOM      1  O   UNL     1       4.158   5.286  17.926  0.00  0.00    +0.000 OA
ATOM      2  C   UNL     1       4.811   4.301  18.253  0.00  0.00    +0.000 C 
ATOM      3  N   UNL     1       5.801   3.711  17.497  0.00  0.00    +0.000 N 
ATOM      4  H   UNL     1       6.166   2.827  17.855  0.00  0.00    +0.000 HD
ENDROOT
BRANCH   3   5
ATOM      5  C   UNL     1       6.280   4.127  16.242  0.00  0.00    +0.000 A 
ATOM      6  C   UNL     1       7.275   5.093  16.078  0.00  0.00    +0.000 A 
ATOM      7  C   UNL     1       7.684   5.478  14.798  0.00  0.00    +0.000 A 
ATOM      8  C   UNL     1       7.096   4.906  13.669  0.00  0.00    +0.000 A 
ATOM      9 CL   UNL     1       7.614   5.464  12.119  0.00  0.00    +0.000 Cl
ATOM     10  C   UNL     1       6.120   3.918  13.825  0.00  0.00    +0.000 A 
ATOM     11 CL   UNL     1       5.346   3.158  12.479  0.00  0.00    +0.000 Cl
ATOM     12  C   UNL     1       5.727   3.520  15.109  0.00  0.00    +0.000 A 
ENDBRANCH   3   5
BRANCH   2  13
ATOM     13  C   UNL     1       4.615   3.696  19.638  0.00  0.00    +0.000 C 
BRANCH  13  14
ATOM     14  C   UNL     1       3.251   3.057  19.935  0.00  0.00    +0.000 C 
ATOM     15  N   UNL     1       2.192   4.116  19.970  0.00  0.00    +0.000 NA
ATOM     16  C   UNL     1       0.852   3.508  19.925  0.00  0.00    +0.000 C 
ATOM     17  C   UNL     1       0.680   2.768  18.600  0.00  0.00    +0.000 C 
ATOM     18  N   UNL     1       1.711   1.777  18.421  0.00  0.00    +0.000 N 
ATOM     19  C   UNL     1       2.992   1.949  18.878  0.00  0.00    +0.000 C 
ATOM     20  O   UNL     1       3.868   1.177  18.495  0.00  0.00    +0.000 OA
ATOM     21  H   UNL     1       2.298   4.686  19.124  0.00  0.00    +0.000 HD
ATOM     22  H   UNL     1       1.616   1.072  17.698  0.00  0.00    +0.000 HD
ENDBRANCH  13  14
ENDBRANCH   2  13
TORSDOF 3
ENDMDL
MODEL 4
REMARK VINA RESULT:      -7.0      6.157      7.156
REMARK  Name = 
REMARK  3 active torsions:
REMARK  status: ('A' for Active; 'I' for Inactive)
REMARK    1  A    between atoms: C_2  and  C_3
REMARK    2  A    between atoms: C_3  and  C_4
REMARK    3  A    between atoms: N_11  and  C_12
REMARK                            x       y       z     vdW  Elec       q    Type
REMARK                         _______ _______ _______ _____ _____    ______ ____
ROOT
ATOM      1  O   UNL     1       2.050   4.946  17.880  0.00  0.00    +0.000 OA
ATOM      2  C   UNL     1       2.955   5.215  18.664  0.00  0.00    +0.000 C 
ATOM      3  N   UNL     1       3.140   6.433  19.283  0.00  0.00    +0.000 N 
ATOM      4  H   UNL     1       4.008   6.535  19.811  0.00  0.00    +0.000 HD
ENDROOT
BRANCH   3   5
ATOM      5  C   UNL     1       2.331   7.577  19.176  0.00  0.00    +0.000 A 
ATOM      6  C   UNL     1       2.173   8.302  17.992  0.00  0.00    +0.000 A 
ATOM      7  C   UNL     1       1.371   9.448  17.966  0.00  0.00    +0.000 A 
ATOM      8  C   UNL     1       0.726   9.883  19.123  0.00  0.00    +0.000 A 
ATOM      9 CL   UNL     1      -0.208  11.333  19.030  0.00  0.00    +0.000 Cl
ATOM     10  C   UNL     1       0.856   9.147  20.305  0.00  0.00    +0.000 A 
ATOM     11 CL   UNL     1       0.087   9.617  21.780  0.00  0.00    +0.000 Cl
ATOM     12  C   UNL     1       1.643   7.989  20.323  0.00  0.00    +0.000 A 
ENDBRANCH   3   5
BRANCH   2  13
ATOM     13  C   UNL     1       3.927   4.122  19.091  0.00  0.00    +0.000 C 
BRANCH  13  14
ATOM     14  C   UNL     1       5.131   3.861  18.176  0.00  0.00    +0.000 C 
ATOM     15  N   UNL     1       4.703   3.940  16.742  0.00  0.00    +0.000 NA
ATOM     16  C   UNL     1       5.877   4.020  15.856  0.00  0.00    +0.000 C 
ATOM     17  C   UNL     1       6.643   5.308  16.151  0.00  0.00    +0.000 C 
ATOM     18  N   UNL     1       7.028   5.377  17.539  0.00  0.00    +0.000 N 
ATOM     19  C   UNL     1       6.255   4.865  18.549  0.00  0.00    +0.000 C 
ATOM     20  O   UNL     1       6.527   5.159  19.711  0.00  0.00    +0.000 OA
ATOM     21  H   UNL     1       4.173   4.810  16.626  0.00  0.00    +0.000 HD
ATOM     22  H   UNL     1       7.711   6.063  17.841  0.00  0.00    +0.000 HD
ENDBRANCH  13  14
ENDBRANCH   2  13
TORSDOF 3
ENDMDL
MODEL 5
REMARK VINA RESULT:      -6.9      6.864      7.747
REMARK  Name = 
REMARK  3 active torsions:
REMARK  status: ('A' for Active; 'I' for Inactive)
REMARK    1  A    between atoms: C_2  and  C_3
REMARK    2  A    between atoms: C_3  and  C_4
REMARK    3  A    between atoms: N_11  and  C_12
REMARK                            x       y       z     vdW  Elec       q    Type
REMARK                         _______ _______ _______ _____ _____    ______ ____
ROOT
ATOM      1  O   UNL     1       3.872   5.327  17.507  0.00  0.00    +0.000 OA
ATOM      2  C   UNL     1       3.920   5.222  18.728  0.00  0.00    +0.000 C 
ATOM      3  N   UNL     1       3.356   6.099  19.629  0.00  0.00    +0.000 N 
ATOM      4  H   UNL     1       3.588   5.938  20.611  0.00  0.00    +0.000 HD
ENDROOT
BRANCH   3   5
ATOM      5  C   UNL     1       2.599   7.248  19.342  0.00  0.00    +0.000 A 
ATOM      6  C   UNL     1       2.629   7.904  18.109  0.00  0.00    +0.000 A 
ATOM      7  C   UNL     1       1.869   9.059  17.902  0.00  0.00    +0.000 A 
ATOM      8  C   UNL     1       1.076   9.573  18.929  0.00  0.00    +0.000 A 
ATOM      9 CL   UNL     1       0.201  11.030  18.620  0.00  0.00    +0.000 Cl
ATOM     10  C   UNL     1       1.018   8.906  20.156  0.00  0.00    +0.000 A 
ATOM     11 CL   UNL     1       0.058   9.476  21.476  0.00  0.00    +0.000 Cl
ATOM     12  C   UNL     1       1.765   7.738  20.353  0.00  0.00    +0.000 A 
ENDBRANCH   3   5
BRANCH   2  13
ATOM     13  C   UNL     1       4.564   3.988  19.350  0.00  0.00    +0.000 C 
BRANCH  13  14
ATOM     14  C   UNL     1       3.622   2.919  19.918  0.00  0.00    +0.000 C 
ATOM     15  N   UNL     1       2.598   3.564  20.801  0.00  0.00    +0.000 NA
ATOM     16  C   UNL     1       1.501   2.625  21.091  0.00  0.00    +0.000 C 
ATOM     17  C   UNL     1       0.787   2.268  19.790  0.00  0.00    +0.000 C 
ATOM     18  N   UNL     1       1.707   1.717  18.826  0.00  0.00    +0.000 N 
ATOM     19  C   UNL     1       3.012   2.125  18.731  0.00  0.00    +0.000 C 
ATOM     20  O   UNL     1       3.670   1.785  17.749  0.00  0.00    +0.000 OA
ATOM     21  H   UNL     1       2.196   4.352  20.282  0.00  0.00    +0.000 HD
ATOM     22  H   UNL     1       1.354   1.247  18.000  0.00  0.00    +0.000 HD
ENDBRANCH  13  14
ENDBRANCH   2  13
TORSDOF 3
ENDMDL
MODEL 6
REMARK VINA RESULT:      -6.9      1.594      1.898
REMARK  Name = 
REMARK  3 active torsions:
REMARK  status: ('A' for Active; 'I' for Inactive)
REMARK    1  A    between atoms: C_2  and  C_3
REMARK    2  A    between atoms: C_3  and  C_4
REMARK    3  A    between atoms: N_11  and  C_12
REMARK                            x       y       z     vdW  Elec       q    Type
REMARK                         _______ _______ _______ _____ _____    ______ ____
ROOT
ATOM      1  O   UNL     1       7.829   8.082  16.983  0.00  0.00    +0.000 OA
ATOM      2  C   UNL     1       8.158   7.865  18.145  0.00  0.00    +0.000 C 
ATOM      3  N   UNL     1       8.731   8.783  18.998  0.00  0.00    +0.000 N 
ATOM      4  H   UNL     1       9.058   8.414  19.893  0.00  0.00    +0.000 HD
ENDROOT
BRANCH   3   5
ATOM      5  C   UNL     1       9.018  10.133  18.732  0.00  0.00    +0.000 A 
ATOM      6  C   UNL     1       8.258  10.927  17.869  0.00  0.00    +0.000 A 
ATOM      7  C   UNL     1       8.617  12.257  17.629  0.00  0.00    +0.000 A 
ATOM      8  C   UNL     1       9.743  12.803  18.246  0.00  0.00    +0.000 A 
ATOM      9 CL   UNL     1      10.158  14.437  17.867  0.00  0.00    +0.000 Cl
ATOM     10  C   UNL     1      10.492  12.024  19.132  0.00  0.00    +0.000 A 
ATOM     11 CL   UNL     1      11.898  12.627  19.938  0.00  0.00    +0.000 Cl
ATOM     12  C   UNL     1      10.118  10.699  19.385  0.00  0.00    +0.000 A 
ENDBRANCH   3   5
BRANCH   2  13
ATOM     13  C   UNL     1       7.844   6.512  18.773  0.00  0.00    +0.000 C 
BRANCH  13  14
ATOM     14  C   UNL     1       6.678   5.716  18.172  0.00  0.00    +0.000 C 
ATOM     15  N   UNL     1       5.648   6.659  17.629  0.00  0.00    +0.000 NA
ATOM     16  C   UNL     1       4.693   5.941  16.768  0.00  0.00    +0.000 C 
ATOM     17  C   UNL     1       5.435   5.368  15.562  0.00  0.00    +0.000 C 
ATOM     18  N   UNL     1       6.516   4.508  15.978  0.00  0.00    +0.000 N 
ATOM     19  C   UNL     1       7.250   4.737  17.112  0.00  0.00    +0.000 C 
ATOM     20  O   UNL     1       8.292   4.106  17.282  0.00  0.00    +0.000 OA
ATOM     21  H   UNL     1       6.136   7.342  17.040  0.00  0.00    +0.000 HD
ATOM     22  H   UNL     1       6.966   3.899  15.303  0.00  0.00    +0.000 HD
ENDBRANCH  13  14
ENDBRANCH   2  13
TORSDOF 3
ENDMDL
MODEL 7
REMARK VINA RESULT:      -6.9      6.638      7.367
REMARK  Name = 
REMARK  3 active torsions:
REMARK  status: ('A' for Active; 'I' for Inactive)
REMARK    1  A    between atoms: C_2  and  C_3
REMARK    2  A    between atoms: C_3  and  C_4
REMARK    3  A    between atoms: N_11  and  C_12
REMARK                            x       y       z     vdW  Elec       q    Type
REMARK                         _______ _______ _______ _____ _____    ______ ____
ROOT
ATOM      1  O   UNL     1       4.961   6.344  18.295  0.00  0.00    +0.000 OA
ATOM      2  C   UNL     1       3.984   5.726  17.884  0.00  0.00    +0.000 C 
ATOM      3  N   UNL     1       2.679   6.168  17.933  0.00  0.00    +0.000 N 
ATOM      4  H   UNL     1       1.969   5.486  17.661  0.00  0.00    +0.000 HD
ENDROOT
BRANCH   3   5
ATOM      5  C   UNL     1       2.214   7.402  18.419  0.00  0.00    +0.000 A 
ATOM      6  C   UNL     1       2.021   8.526  17.612  0.00  0.00    +0.000 A 
ATOM      7  C   UNL     1       1.580   9.730  18.168  0.00  0.00    +0.000 A 
ATOM      8  C   UNL     1       1.335   9.825  19.539  0.00  0.00    +0.000 A 
ATOM      9 CL   UNL     1       0.841  11.356  20.167  0.00  0.00    +0.000 Cl
ATOM     10  C   UNL     1       1.499   8.697  20.349  0.00  0.00    +0.000 A 
ATOM     11 CL   UNL     1       1.214   8.730  22.053  0.00  0.00    +0.000 Cl
ATOM     12  C   UNL     1       1.921   7.487  19.784  0.00  0.00    +0.000 A 
ENDBRANCH   3   5
BRANCH   2  13
ATOM     13  C   UNL     1       4.185   4.396  17.168  0.00  0.00    +0.000 C 
BRANCH  13  14
ATOM     14  C   UNL     1       4.013   3.120  18.004  0.00  0.00    +0.000 C 
ATOM     15  N   UNL     1       4.918   3.170  19.197  0.00  0.00    +0.000 NA
ATOM     16  C   UNL     1       4.544   2.134  20.174  0.00  0.00    +0.000 C 
ATOM     17  C   UNL     1       3.134   2.414  20.688  0.00  0.00    +0.000 C 
ATOM     18  N   UNL     1       2.187   2.477  19.602  0.00  0.00    +0.000 N 
ATOM     19  C   UNL     1       2.510   2.972  18.365  0.00  0.00    +0.000 C 
ATOM     20  O   UNL     1       1.607   3.208  17.565  0.00  0.00    +0.000 OA
ATOM     21  H   UNL     1       4.781   4.081  19.649  0.00  0.00    +0.000 HD
ATOM     22  H   UNL     1       1.192   2.450  19.795  0.00  0.00    +0.000 HD
ENDBRANCH  13  14
ENDBRANCH   2  13
TORSDOF 3
ENDMDL
MODEL 8
REMARK VINA RESULT:      -6.9      1.648      1.829
REMARK  Name = 
REMARK  3 active torsions:
REMARK  status: ('A' for Active; 'I' for Inactive)
REMARK    1  A    between atoms: C_2  and  C_3
REMARK    2  A    between atoms: C_3  and  C_4
REMARK    3  A    between atoms: N_11  and  C_12
REMARK                            x       y       z     vdW  Elec       q    Type
REMARK                         _______ _______ _______ _____ _____    ______ ____
ROOT
ATOM      1  O   UNL     1       8.597   7.257  18.846  0.00  0.00    +0.000 OA
ATOM      2  C   UNL     1       7.903   7.898  18.062  0.00  0.00    +0.000 C 
ATOM      3  N   UNL     1       7.993   9.255  17.839  0.00  0.00    +0.000 N 
ATOM      4  H   UNL     1       7.265   9.657  17.247  0.00  0.00    +0.000 HD
ENDROOT
BRANCH   3   5
ATOM      5  C   UNL     1       8.899  10.158  18.423  0.00  0.00    +0.000 A 
ATOM      6  C   UNL     1       9.089  10.276  19.802  0.00  0.00    +0.000 A 
ATOM      7  C   UNL     1       9.989  11.215  20.315  0.00  0.00    +0.000 A 
ATOM      8  C   UNL     1      10.702  12.050  19.454  0.00  0.00    +0.000 A 
ATOM      9 CL   UNL     1      11.759  13.221  20.158  0.00  0.00    +0.000 Cl
ATOM     10  C   UNL     1      10.538  11.919  18.072  0.00  0.00    +0.000 A 
ATOM     11 CL   UNL     1      11.386  12.912  16.939  0.00  0.00    +0.000 Cl
ATOM     12  C   UNL     1       9.651  10.963  17.561  0.00  0.00    +0.000 A 
ENDBRANCH   3   5
BRANCH   2  13
ATOM     13  C   UNL     1       6.908   7.165  17.169  0.00  0.00    +0.000 C 
BRANCH  13  14
ATOM     14  C   UNL     1       6.163   5.973  17.785  0.00  0.00    +0.000 C 
ATOM     15  N   UNL     1       4.687   6.148  17.598  0.00  0.00    +0.000 NA
ATOM     16  C   UNL     1       3.978   4.888  17.878  0.00  0.00    +0.000 C 
ATOM     17  C   UNL     1       4.419   3.828  16.872  0.00  0.00    +0.000 C 
ATOM     18  N   UNL     1       5.849   3.643  16.904  0.00  0.00    +0.000 N 
ATOM     19  C   UNL     1       6.723   4.669  17.154  0.00  0.00    +0.000 C 
ATOM     20  O   UNL     1       7.921   4.494  16.942  0.00  0.00    +0.000 OA
ATOM     21  H   UNL     1       4.526   6.376  16.611  0.00  0.00    +0.000 HD
ATOM     22  H   UNL     1       6.266   2.840  16.448  0.00  0.00    +0.000 HD
ENDBRANCH  13  14
ENDBRANCH   2  13
TORSDOF 3
ENDMDL
MODEL 9
REMARK VINA RESULT:      -6.9      4.866      7.180
REMARK  Name = 
REMARK  3 active torsions:
REMARK  status: ('A' for Active; 'I' for Inactive)
REMARK    1  A    between atoms: C_2  and  C_3
REMARK    2  A    between atoms: C_3  and  C_4
REMARK    3  A    between atoms: N_11  and  C_12
REMARK                            x       y       z     vdW  Elec       q    Type
REMARK                         _______ _______ _______ _____ _____    ______ ____
ROOT
ATOM      1  O   UNL     1       2.560   4.505  17.313  0.00  0.00    +0.000 OA
ATOM      2  C   UNL     1       3.322   3.558  17.479  0.00  0.00    +0.000 C 
ATOM      3  N   UNL     1       4.695   3.642  17.572  0.00  0.00    +0.000 N 
ATOM      4  H   UNL     1       5.194   2.752  17.587  0.00  0.00    +0.000 HD
ENDROOT
BRANCH   3   5
ATOM      5  C   UNL     1       5.483   4.806  17.531  0.00  0.00    +0.000 A 
ATOM      6  C   UNL     1       5.342   5.799  16.559  0.00  0.00    +0.000 A 
ATOM      7  C   UNL     1       6.180   6.918  16.564  0.00  0.00    +0.000 A 
ATOM      8  C   UNL     1       7.170   7.052  17.538  0.00  0.00    +0.000 A 
ATOM      9 CL   UNL     1       8.201   8.435  17.455  0.00  0.00    +0.000 Cl
ATOM     10  C   UNL     1       7.299   6.077  18.530  0.00  0.00    +0.000 A 
ATOM     11 CL   UNL     1       8.497   6.169  19.773  0.00  0.00    +0.000 Cl
ATOM     12  C   UNL     1       6.444   4.967  18.534  0.00  0.00    +0.000 A 
ENDBRANCH   3   5
BRANCH   2  13
ATOM     13  C   UNL     1       2.748   2.163  17.700  0.00  0.00    +0.000 C 
BRANCH  13  14
ATOM     14  C   UNL     1       2.299   1.810  19.124  0.00  0.00    +0.000 C 
ATOM     15  N   UNL     1       3.317   2.294  20.111  0.00  0.00    +0.000 NA
ATOM     16  C   UNL     1       2.767   2.265  21.477  0.00  0.00    +0.000 C 
ATOM     17  C   UNL     1       1.586   3.229  21.565  0.00  0.00    +0.000 C 
ATOM     18  N   UNL     1       0.577   2.905  20.587  0.00  0.00    +0.000 N 
ATOM     19  C   UNL     1       0.880   2.400  19.349  0.00  0.00    +0.000 C 
ATOM     20  O   UNL     1       0.001   2.364  18.491  0.00  0.00    +0.000 OA
ATOM     21  H   UNL     1       3.523   3.273  19.886  0.00  0.00    +0.000 HD
ATOM     22  H   UNL     1      -0.346   3.319  20.655  0.00  0.00    +0.000 HD
ENDBRANCH  13  14
ENDBRANCH   2  13
TORSDOF 3
ENDMDL
