MODEL 1
REMARK VINA RESULT:      -7.9      0.000      0.000
REMARK  Name = 
REMARK  5 active torsions:
REMARK  status: ('A' for Active; 'I' for Inactive)
REMARK    1  A    between atoms: N_3  and  C_4
REMARK    2  A    between atoms: C_4  and  C_5
REMARK    3  A    between atoms: C_5  and  C_6
REMARK    4  A    between atoms: C_6  and  N_7
REMARK    5  A    between atoms: N_17  and  C_18
REMARK                            x       y       z     vdW  Elec       q    Type
REMARK                         _______ _______ _______ _____ _____    ______ ____
ROOT
ATOM      1  O   UNL     1       0.811   5.186  20.119  0.00  0.00    +0.000 OA
ATOM      2  C   UNL     1       1.882   5.538  20.604  0.00  0.00    +0.000 C 
ATOM      3  N   UNL     1       2.680   4.668  21.311  0.00  0.00    +0.000 N 
ATOM      4  N   UNL     1       2.439   6.800  20.511  0.00  0.00    +0.000 N 
ATOM      5  H   UNL     1       3.292   5.083  21.997  0.00  0.00    +0.000 HD
ATOM      6  H   UNL     1       3.442   6.858  20.639  0.00  0.00    +0.000 HD
ENDROOT
BRANCH   4   7
ATOM      7  C   UNL     1       1.829   7.905  19.863  0.00  0.00    +0.000 A 
ATOM      8  C   UNL     1       2.063   8.215  18.519  0.00  0.00    +0.000 A 
ATOM      9  C   UNL     1       1.575   9.403  17.970  0.00  0.00    +0.000 A 
ATOM     10  C   UNL     1       0.803  10.255  18.750  0.00  0.00    +0.000 A 
ATOM     11  F   UNL     1       0.388  11.421  18.238  0.00  0.00    +0.000 F 
ATOM     12  C   UNL     1       0.465   9.918  20.053  0.00  0.00    +0.000 A 
ATOM     13  C   UNL     1       0.979   8.742  20.599  0.00  0.00    +0.000 A 
ATOM     14  F   UNL     1       0.686   8.440  21.874  0.00  0.00    +0.000 F 
ENDBRANCH   4   7
BRANCH   3  15
ATOM     15  C   UNL     1       2.251   3.298  21.556  0.00  0.00    +0.000 C 
BRANCH  15  16
ATOM     16  C   UNL     1       3.241   2.263  21.020  0.00  0.00    +0.000 C 
BRANCH  16  17
ATOM     17  C   UNL     1       3.252   2.240  19.493  0.00  0.00    +0.000 C 
BRANCH  17  18
ATOM     18  N   UNL     1       4.033   3.317  18.933  0.00  0.00    +0.000 N 
ATOM     19  N   UNL     1       5.277   3.675  19.421  0.00  0.00    +0.000 NA
ATOM     20  C   UNL     1       5.618   4.678  18.671  0.00  0.00    +0.000 A 
ATOM     21  C   UNL     1       6.866   5.468  18.722  0.00  0.00    +0.000 A 
ATOM     22  C   UNL     1       7.013   6.472  17.837  0.00  0.00    +0.000 A 
ATOM     23  C   UNL     1       5.981   6.775  16.861  0.00  0.00    +0.000 A 
ATOM     24  C   UNL     1       4.856   6.048  16.831  0.00  0.00    +0.000 A 
ATOM     25  N   UNL     1       4.703   5.028  17.724  0.00  0.00    +0.000 N 
ATOM     26  C   UNL     1       3.650   4.159  17.882  0.00  0.00    +0.000 A 
ATOM     27  O   UNL     1       2.604   4.120  17.249  0.00  0.00    +0.000 OA
ENDBRANCH  17  18
ENDBRANCH  16  17
ENDBRANCH  15  16
ENDBRANCH   3  15
TORSDOF 5
ENDMDL
MODEL 2
REMARK VINA RESULT:      -7.8      1.079      1.459
REMARK  Name = 
REMARK  5 active torsions:
REMARK  status: ('A' for Active; 'I' for Inactive)
REMARK    1  A    between atoms: N_3  and  C_4
REMARK    2  A    between atoms: C_4  and  C_5
REMARK    3  A    between atoms: C_5  and  C_6
REMARK    4  A    between atoms: C_6  and  N_7
REMARK    5  A    between atoms: N_17  and  C_18
REMARK                            x       y       z     vdW  Elec       q    Type
REMARK                         _______ _______ _______ _____ _____    ______ ____
ROOT
ATOM      1  O   UNL     1       0.982   5.127  19.902  0.00  0.00    +0.000 OA
ATOM      2  C   UNL     1       1.927   5.499  20.592  0.00  0.00    +0.000 C 
ATOM      3  N   UNL     1       2.684   4.615  21.325  0.00  0.00    +0.000 N 
ATOM      4  N   UNL     1       2.369   6.802  20.726  0.00  0.00    +0.000 N 
ATOM      5  H   UNL     1       3.141   4.991  22.143  0.00  0.00    +0.000 HD
ATOM      6  H   UNL     1       3.330   6.922  21.023  0.00  0.00    +0.000 HD
ENDROOT
BRANCH   4   7
ATOM      7  C   UNL     1       1.766   7.927  20.106  0.00  0.00    +0.000 A 
ATOM      8  C   UNL     1       0.869   8.767  20.775  0.00  0.00    +0.000 A 
ATOM      9  C   UNL     1       0.174   9.759  20.081  0.00  0.00    +0.000 A 
ATOM     10  C   UNL     1       0.418   9.950  18.727  0.00  0.00    +0.000 A 
ATOM     11  F   UNL     1      -0.295  10.862  18.053  0.00  0.00    +0.000 F 
ATOM     12  C   UNL     1       1.381   9.203  18.064  0.00  0.00    +0.000 A 
ATOM     13  C   UNL     1       2.051   8.199  18.761  0.00  0.00    +0.000 A 
ATOM     14  F   UNL     1       2.951   7.448  18.106  0.00  0.00    +0.000 F 
ENDBRANCH   4   7
BRANCH   3  15
ATOM     15  C   UNL     1       2.354   3.196  21.350  0.00  0.00    +0.000 C 
BRANCH  15  16
ATOM     16  C   UNL     1       3.439   2.326  20.715  0.00  0.00    +0.000 C 
BRANCH  16  17
ATOM     17  C   UNL     1       3.495   2.519  19.202  0.00  0.00    +0.000 C 
BRANCH  17  18
ATOM     18  N   UNL     1       4.451   3.527  18.812  0.00  0.00    +0.000 N 
ATOM     19  N   UNL     1       5.469   3.958  19.643  0.00  0.00    +0.000 NA
ATOM     20  C   UNL     1       6.073   4.865  18.937  0.00  0.00    +0.000 A 
ATOM     21  C   UNL     1       7.255   5.669  19.310  0.00  0.00    +0.000 A 
ATOM     22  C   UNL     1       7.721   6.558  18.411  0.00  0.00    +0.000 A 
ATOM     23  C   UNL     1       7.086   6.725  17.115  0.00  0.00    +0.000 A 
ATOM     24  C   UNL     1       6.016   5.986  16.797  0.00  0.00    +0.000 A 
ATOM     25  N   UNL     1       5.540   5.083  17.702  0.00  0.00    +0.000 N 
ATOM     26  C   UNL     1       4.469   4.227  17.600  0.00  0.00    +0.000 A 
ATOM     27  O   UNL     1       3.696   4.098  16.661  0.00  0.00    +0.000 OA
ENDBRANCH  17  18
ENDBRANCH  16  17
ENDBRANCH  15  16
ENDBRANCH   3  15
TORSDOF 5
ENDMDL
MODEL 3
REMARK VINA RESULT:      -7.6      5.164      7.137
REMARK  Name = 
REMARK  5 active torsions:
REMARK  status: ('A' for Active; 'I' for Inactive)
REMARK    1  A    between atoms: N_3  and  C_4
REMARK    2  A    between atoms: C_4  and  C_5
REMARK    3  A    between atoms: C_5  and  C_6
REMARK    4  A    between atoms: C_6  and  N_7
REMARK    5  A    between atoms: N_17  and  C_18
REMARK                            x       y       z     vdW  Elec       q    Type
REMARK                         _______ _______ _______ _____ _____    ______ ____
ROOT
ATOM      1  O   UNL     1       7.811   9.648  17.806  0.00  0.00    +0.000 OA
ATOM      2  C   UNL     1       8.556   9.111  18.621  0.00  0.00    +0.000 C 
ATOM      3  N   UNL     1       8.568   7.748  18.806  0.00  0.00    +0.000 N 
ATOM      4  N   UNL     1       9.468   9.758  19.434  0.00  0.00    +0.000 N 
ATOM      5  H   UNL     1       8.865   7.425  19.715  0.00  0.00    +0.000 HD
ATOM      6  H   UNL     1      10.235   9.196  19.784  0.00  0.00    +0.000 HD
ENDROOT
BRANCH   4   7
ATOM      7  C   UNL     1       9.656  11.163  19.477  0.00  0.00    +0.000 A 
ATOM      8  C   UNL     1       9.262  11.945  20.569  0.00  0.00    +0.000 A 
ATOM      9  C   UNL     1       9.315  13.339  20.498  0.00  0.00    +0.000 A 
ATOM     10  C   UNL     1       9.816  13.951  19.357  0.00  0.00    +0.000 A 
ATOM     11  F   UNL     1       9.809  15.288  19.270  0.00  0.00    +0.000 F 
ATOM     12  C   UNL     1      10.315  13.197  18.304  0.00  0.00    +0.000 A 
ATOM     13  C   UNL     1      10.234  11.807  18.375  0.00  0.00    +0.000 A 
ATOM     14  F   UNL     1      10.678  11.081  17.336  0.00  0.00    +0.000 F 
ENDBRANCH   4   7
BRANCH   3  15
ATOM     15  C   UNL     1       7.650   6.889  18.071  0.00  0.00    +0.000 C 
BRANCH  15  16
ATOM     16  C   UNL     1       7.363   5.574  18.795  0.00  0.00    +0.000 C 
BRANCH  16  17
ATOM     17  C   UNL     1       6.450   4.670  17.970  0.00  0.00    +0.000 C 
BRANCH  17  18
ATOM     18  N   UNL     1       5.190   4.414  18.626  0.00  0.00    +0.000 N 
ATOM     19  N   UNL     1       5.011   3.384  19.531  0.00  0.00    +0.000 NA
ATOM     20  C   UNL     1       3.759   3.486  19.861  0.00  0.00    +0.000 A 
ATOM     21  C   UNL     1       2.999   2.651  20.814  0.00  0.00    +0.000 A 
ATOM     22  C   UNL     1       1.699   2.941  21.008  0.00  0.00    +0.000 A 
ATOM     23  C   UNL     1       1.057   4.039  20.306  0.00  0.00    +0.000 A 
ATOM     24  C   UNL     1       1.763   4.784  19.446  0.00  0.00    +0.000 A 
ATOM     25  N   UNL     1       3.081   4.496  19.246  0.00  0.00    +0.000 N 
ATOM     26  C   UNL     1       3.994   5.112  18.423  0.00  0.00    +0.000 A 
ATOM     27  O   UNL     1       3.811   6.063  17.674  0.00  0.00    +0.000 OA
ENDBRANCH  17  18
ENDBRANCH  16  17
ENDBRANCH  15  16
ENDBRANCH   3  15
TORSDOF 5
ENDMDL
MODEL 4
REMARK VINA RESULT:      -7.5      5.478      7.313
REMARK  Name = 
REMARK  5 active torsions:
REMARK  status: ('A' for Active; 'I' for Inactive)
REMARK    1  A    between atoms: N_3  and  C_4
REMARK    2  A    between atoms: C_4  and  C_5
REMARK    3  A    between atoms: C_5  and  C_6
REMARK    4  A    between atoms: C_6  and  N_7
REMARK    5  A    between atoms: N_17  and  C_18
REMARK                            x       y       z     vdW  Elec       q    Type
REMARK                         _______ _______ _______ _____ _____    ______ ____
ROOT
ATOM      1  O   UNL     1       8.039  10.052  17.637  0.00  0.00    +0.000 OA
ATOM      2  C   UNL     1       8.688   9.566  18.559  0.00  0.00    +0.000 C 
ATOM      3  N   UNL     1       8.659   8.219  18.836  0.00  0.00    +0.000 N 
ATOM      4  N   UNL     1       9.523  10.258  19.416  0.00  0.00    +0.000 N 
ATOM      5  H   UNL     1       8.856   7.956  19.791  0.00  0.00    +0.000 HD
ATOM      6  H   UNL     1      10.242   9.715  19.879  0.00  0.00    +0.000 HD
ENDROOT
BRANCH   4   7
ATOM      7  C   UNL     1       9.730  11.662  19.382  0.00  0.00    +0.000 A 
ATOM      8  C   UNL     1       9.092  12.540  20.266  0.00  0.00    +0.000 A 
ATOM      9  C   UNL     1       9.196  13.921  20.090  0.00  0.00    +0.000 A 
ATOM     10  C   UNL     1       9.984  14.427  19.064  0.00  0.00    +0.000 A 
ATOM     11  F   UNL     1      10.031  15.750  18.862  0.00  0.00    +0.000 F 
ATOM     12  C   UNL     1      10.713  13.580  18.242  0.00  0.00    +0.000 A 
ATOM     13  C   UNL     1      10.583  12.202  18.410  0.00  0.00    +0.000 A 
ATOM     14  F   UNL     1      11.256  11.384  17.585  0.00  0.00    +0.000 F 
ENDBRANCH   4   7
BRANCH   3  15
ATOM     15  C   UNL     1       7.806   7.320  18.071  0.00  0.00    +0.000 C 
BRANCH  15  16
ATOM     16  C   UNL     1       7.700   5.929  18.696  0.00  0.00    +0.000 C 
BRANCH  16  17
ATOM     17  C   UNL     1       7.263   4.887  17.669  0.00  0.00    +0.000 C 
BRANCH  17  18
ATOM     18  N   UNL     1       5.946   4.363  17.944  0.00  0.00    +0.000 N 
ATOM     19  N   UNL     1       5.552   3.948  19.203  0.00  0.00    +0.000 NA
ATOM     20  C   UNL     1       4.335   3.535  19.017  0.00  0.00    +0.000 A 
ATOM     21  C   UNL     1       3.398   2.986  20.020  0.00  0.00    +0.000 A 
ATOM     22  C   UNL     1       2.171   2.621  19.602  0.00  0.00    +0.000 A 
ATOM     23  C   UNL     1       1.775   2.758  18.211  0.00  0.00    +0.000 A 
ATOM     24  C   UNL     1       2.639   3.258  17.318  0.00  0.00    +0.000 A 
ATOM     25  N   UNL     1       3.883   3.632  17.735  0.00  0.00    +0.000 N 
ATOM     26  C   UNL     1       4.923   4.161  17.010  0.00  0.00    +0.000 A 
ATOM     27  O   UNL     1       4.958   4.405  15.812  0.00  0.00    +0.000 OA
ENDBRANCH  17  18
ENDBRANCH  16  17
ENDBRANCH  15  16
ENDBRANCH   3  15
TORSDOF 5
ENDMDL
MODEL 5
REMARK VINA RESULT:      -7.4      6.184      8.204
REMARK  Name = 
REMARK  5 active torsions:
REMARK  status: ('A' for Active; 'I' for Inactive)
REMARK    1  A    between atoms: N_3  and  C_4
REMARK    2  A    between atoms: C_4  and  C_5
REMARK    3  A    between atoms: C_5  and  C_6
REMARK    4  A    between atoms: C_6  and  N_7
REMARK    5  A    between atoms: N_17  and  C_18
REMARK                            x       y       z     vdW  Elec       q    Type
REMARK                         _______ _______ _______ _____ _____    ______ ____
ROOT
ATOM      1  O   UNL     1       6.256   5.791  18.689  0.00  0.00    +0.000 OA
ATOM      2  C   UNL     1       5.919   6.366  17.657  0.00  0.00    +0.000 C 
ATOM      3  N   UNL     1       6.708   7.330  17.073  0.00  0.00    +0.000 N 
ATOM      4  N   UNL     1       4.757   6.138  16.945  0.00  0.00    +0.000 N 
ATOM      5  H   UNL     1       6.227   8.018  16.512  0.00  0.00    +0.000 HD
ATOM      6  H   UNL     1       4.769   6.407  15.969  0.00  0.00    +0.000 HD
ENDROOT
BRANCH   4   7
ATOM      7  C   UNL     1       3.745   5.219  17.325  0.00  0.00    +0.000 A 
ATOM      8  C   UNL     1       2.644   5.588  18.106  0.00  0.00    +0.000 A 
ATOM      9  C   UNL     1       1.763   4.619  18.592  0.00  0.00    +0.000 A 
ATOM     10  C   UNL     1       1.951   3.286  18.252  0.00  0.00    +0.000 A 
ATOM     11  F   UNL     1       1.141   2.354  18.770  0.00  0.00    +0.000 F 
ATOM     12  C   UNL     1       2.971   2.907  17.391  0.00  0.00    +0.000 A 
ATOM     13  C   UNL     1       3.859   3.879  16.930  0.00  0.00    +0.000 A 
ATOM     14  F   UNL     1       4.871   3.503  16.132  0.00  0.00    +0.000 F 
ENDBRANCH   4   7
BRANCH   3  15
ATOM     15  C   UNL     1       7.959   7.744  17.693  0.00  0.00    +0.000 C 
BRANCH  15  16
ATOM     16  C   UNL     1       8.048   9.258  17.890  0.00  0.00    +0.000 C 
BRANCH  16  17
ATOM     17  C   UNL     1       8.950   9.615  19.069  0.00  0.00    +0.000 C 
BRANCH  17  18
ATOM     18  N   UNL     1       9.658  10.856  18.863  0.00  0.00    +0.000 N 
ATOM     19  N   UNL     1      10.227  11.203  17.652  0.00  0.00    +0.000 NA
ATOM     20  C   UNL     1      10.773  12.357  17.893  0.00  0.00    +0.000 A 
ATOM     21  C   UNL     1      11.520  13.223  16.958  0.00  0.00    +0.000 A 
ATOM     22  C   UNL     1      11.999  14.391  17.427  0.00  0.00    +0.000 A 
ATOM     23  C   UNL     1      11.792  14.792  18.808  0.00  0.00    +0.000 A 
ATOM     24  C   UNL     1      11.111  13.992  19.640  0.00  0.00    +0.000 A 
ATOM     25  N   UNL     1      10.622  12.809  19.170  0.00  0.00    +0.000 N 
ATOM     26  C   UNL     1       9.905  11.839  19.829  0.00  0.00    +0.000 A 
ATOM     27  O   UNL     1       9.555  11.827  21.001  0.00  0.00    +0.000 OA
ENDBRANCH  17  18
ENDBRANCH  16  17
ENDBRANCH  15  16
ENDBRANCH   3  15
TORSDOF 5
ENDMDL
MODEL 6
REMARK VINA RESULT:      -7.4      5.207      6.991
REMARK  Name = 
REMARK  5 active torsions:
REMARK  status: ('A' for Active; 'I' for Inactive)
REMARK    1  A    between atoms: N_3  and  C_4
REMARK    2  A    between atoms: C_4  and  C_5
REMARK    3  A    between atoms: C_5  and  C_6
REMARK    4  A    between atoms: C_6  and  N_7
REMARK    5  A    between atoms: N_17  and  C_18
REMARK                            x       y       z     vdW  Elec       q    Type
REMARK                         _______ _______ _______ _____ _____    ______ ____
ROOT
ATOM      1  O   UNL     1       7.884   9.651  17.694  0.00  0.00    +0.000 OA
ATOM      2  C   UNL     1       8.580   9.176  18.588  0.00  0.00    +0.000 C 
ATOM      3  N   UNL     1       8.558   7.834  18.889  0.00  0.00    +0.000 N 
ATOM      4  N   UNL     1       9.463   9.877  19.387  0.00  0.00    +0.000 N 
ATOM      5  H   UNL     1       8.805   7.586  19.836  0.00  0.00    +0.000 HD
ATOM      6  H   UNL     1      10.202   9.337  19.820  0.00  0.00    +0.000 HD
ENDROOT
BRANCH   4   7
ATOM      7  C   UNL     1       9.675  11.279  19.319  0.00  0.00    +0.000 A 
ATOM      8  C   UNL     1      10.209  11.908  18.189  0.00  0.00    +0.000 A 
ATOM      9  C   UNL     1      10.554  13.260  18.227  0.00  0.00    +0.000 A 
ATOM     10  C   UNL     1      10.312  14.000  19.378  0.00  0.00    +0.000 A 
ATOM     11  F   UNL     1      10.700  15.281  19.430  0.00  0.00    +0.000 F 
ATOM     12  C   UNL     1       9.683  13.427  20.474  0.00  0.00    +0.000 A 
ATOM     13  C   UNL     1       9.366  12.070  20.434  0.00  0.00    +0.000 A 
ATOM     14  F   UNL     1       8.797  11.507  21.513  0.00  0.00    +0.000 F 
ENDBRANCH   4   7
BRANCH   3  15
ATOM     15  C   UNL     1       7.660   6.928  18.186  0.00  0.00    +0.000 C 
BRANCH  15  16
ATOM     16  C   UNL     1       7.837   5.471  18.612  0.00  0.00    +0.000 C 
BRANCH  16  17
ATOM     17  C   UNL     1       7.190   4.514  17.614  0.00  0.00    +0.000 C 
BRANCH  17  18
ATOM     18  N   UNL     1       5.811   4.233  17.936  0.00  0.00    +0.000 N 
ATOM     19  N   UNL     1       5.386   3.933  19.218  0.00  0.00    +0.000 NA
ATOM     20  C   UNL     1       4.112   3.729  19.073  0.00  0.00    +0.000 A 
ATOM     21  C   UNL     1       3.123   3.382  20.115  0.00  0.00    +0.000 A 
ATOM     22  C   UNL     1       1.841   3.219  19.738  0.00  0.00    +0.000 A 
ATOM     23  C   UNL     1       1.436   3.377  18.352  0.00  0.00    +0.000 A 
ATOM     24  C   UNL     1       2.348   3.692  17.422  0.00  0.00    +0.000 A 
ATOM     25  N   UNL     1       3.648   3.860  17.799  0.00  0.00    +0.000 N 
ATOM     26  C   UNL     1       4.743   4.179  17.032  0.00  0.00    +0.000 A 
ATOM     27  O   UNL     1       4.787   4.374  15.825  0.00  0.00    +0.000 OA
ENDBRANCH  17  18
ENDBRANCH  16  17
ENDBRANCH  15  16
ENDBRANCH   3  15
TORSDOF 5
ENDMDL
MODEL 7
REMARK VINA RESULT:      -7.4      1.553      2.115
REMARK  Name = 
REMARK  5 active torsions:
REMARK  status: ('A' for Active; 'I' for Inactive)
REMARK    1  A    between atoms: N_3  and  C_4
REMARK    2  A    between atoms: C_4  and  C_5
REMARK    3  A    between atoms: C_5  and  C_6
REMARK    4  A    between atoms: C_6  and  N_7
REMARK    5  A    between atoms: N_17  and  C_18
REMARK                            x       y       z     vdW  Elec       q    Type
REMARK                         _______ _______ _______ _____ _____    ______ ____
ROOT
ATOM      1  O   UNL     1       0.937   4.833  19.584  0.00  0.00    +0.000 OA
ATOM      2  C   UNL     1       1.819   5.058  20.409  0.00  0.00    +0.000 C 
ATOM      3  N   UNL     1       2.403   4.051  21.141  0.00  0.00    +0.000 N 
ATOM      4  N   UNL     1       2.348   6.299  20.710  0.00  0.00    +0.000 N 
ATOM      5  H   UNL     1       2.785   4.315  22.037  0.00  0.00    +0.000 HD
ATOM      6  H   UNL     1       3.272   6.303  21.126  0.00  0.00    +0.000 HD
ENDROOT
BRANCH   4   7
ATOM      7  C   UNL     1       1.922   7.521  20.130  0.00  0.00    +0.000 A 
ATOM      8  C   UNL     1       1.155   8.462  20.828  0.00  0.00    +0.000 A 
ATOM      9  C   UNL     1       0.619   9.569  20.168  0.00  0.00    +0.000 A 
ATOM     10  C   UNL     1       0.897   9.769  18.822  0.00  0.00    +0.000 A 
ATOM     11  F   UNL     1       0.331  10.799  18.179  0.00  0.00    +0.000 F 
ATOM     12  C   UNL     1       1.742   8.910  18.134  0.00  0.00    +0.000 A 
ATOM     13  C   UNL     1       2.252   7.794  18.795  0.00  0.00    +0.000 A 
ATOM     14  F   UNL     1       3.035   6.941  18.115  0.00  0.00    +0.000 F 
ENDBRANCH   4   7
BRANCH   3  15
ATOM     15  C   UNL     1       1.955   2.672  20.999  0.00  0.00    +0.000 C 
BRANCH  15  16
ATOM     16  C   UNL     1       2.298   2.076  19.634  0.00  0.00    +0.000 C 
BRANCH  16  17
ATOM     17  C   UNL     1       3.808   1.956  19.441  0.00  0.00    +0.000 C 
BRANCH  17  18
ATOM     18  N   UNL     1       4.334   2.978  18.568  0.00  0.00    +0.000 N 
ATOM     19  N   UNL     1       4.156   2.958  17.197  0.00  0.00    +0.000 NA
ATOM     20  C   UNL     1       4.790   4.018  16.794  0.00  0.00    +0.000 A 
ATOM     21  C   UNL     1       4.933   4.521  15.413  0.00  0.00    +0.000 A 
ATOM     22  C   UNL     1       5.636   5.654  15.224  0.00  0.00    +0.000 A 
ATOM     23  C   UNL     1       6.239   6.363  16.340  0.00  0.00    +0.000 A 
ATOM     24  C   UNL     1       6.098   5.890  17.586  0.00  0.00    +0.000 A 
ATOM     25  N   UNL     1       5.385   4.744  17.783  0.00  0.00    +0.000 N 
ATOM     26  C   UNL     1       5.111   4.078  18.953  0.00  0.00    +0.000 A 
ATOM     27  O   UNL     1       5.463   4.372  20.087  0.00  0.00    +0.000 OA
ENDBRANCH  17  18
ENDBRANCH  16  17
ENDBRANCH  15  16
ENDBRANCH   3  15
TORSDOF 5
ENDMDL
MODEL 8
REMARK VINA RESULT:      -7.3      1.853      4.302
REMARK  Name = 
REMARK  5 active torsions:
REMARK  status: ('A' for Active; 'I' for Inactive)
REMARK    1  A    between atoms: N_3  and  C_4
REMARK    2  A    between atoms: C_4  and  C_5
REMARK    3  A    between atoms: C_5  and  C_6
REMARK    4  A    between atoms: C_6  and  N_7
REMARK    5  A    between atoms: N_17  and  C_18
REMARK                            x       y       z     vdW  Elec       q    Type
REMARK                         _______ _______ _______ _____ _____    ______ ____
ROOT
ATOM      1  O   UNL     1       4.251   6.595  18.726  0.00  0.00    +0.000 OA
ATOM      2  C   UNL     1       3.753   7.177  17.766  0.00  0.00    +0.000 C 
ATOM      3  N   UNL     1       4.263   7.050  16.495  0.00  0.00    +0.000 N 
ATOM      4  N   UNL     1       2.645   8.002  17.805  0.00  0.00    +0.000 N 
ATOM      5  H   UNL     1       4.094   7.823  15.868  0.00  0.00    +0.000 HD
ATOM      6  H   UNL     1       2.146   8.125  16.932  0.00  0.00    +0.000 HD
ENDROOT
BRANCH   4   7
ATOM      7  C   UNL     1       1.928   8.336  18.984  0.00  0.00    +0.000 A 
ATOM      8  C   UNL     1       1.936   7.528  20.126  0.00  0.00    +0.000 A 
ATOM      9  C   UNL     1       1.088   7.809  21.199  0.00  0.00    +0.000 A 
ATOM     10  C   UNL     1       0.270   8.931  21.153  0.00  0.00    +0.000 A 
ATOM     11  F   UNL     1      -0.586   9.163  22.157  0.00  0.00    +0.000 F 
ATOM     12  C   UNL     1       0.322   9.808  20.079  0.00  0.00    +0.000 A 
ATOM     13  C   UNL     1       1.155   9.504  19.003  0.00  0.00    +0.000 A 
ATOM     14  F   UNL     1       1.171  10.332  17.945  0.00  0.00    +0.000 F 
ENDBRANCH   4   7
BRANCH   3  15
ATOM     15  C   UNL     1       5.458   6.254  16.249  0.00  0.00    +0.000 C 
BRANCH  15  16
ATOM     16  C   UNL     1       5.153   4.934  15.541  0.00  0.00    +0.000 C 
BRANCH  16  17
ATOM     17  C   UNL     1       5.418   3.737  16.452  0.00  0.00    +0.000 C 
BRANCH  17  18
ATOM     18  N   UNL     1       4.385   3.563  17.445  0.00  0.00    +0.000 N 
ATOM     19  N   UNL     1       3.043   3.467  17.123  0.00  0.00    +0.000 NA
ATOM     20  C   UNL     1       2.463   3.345  18.278  0.00  0.00    +0.000 A 
ATOM     21  C   UNL     1       1.021   3.190  18.559  0.00  0.00    +0.000 A 
ATOM     22  C   UNL     1       0.638   3.075  19.845  0.00  0.00    +0.000 A 
ATOM     23  C   UNL     1       1.608   3.101  20.927  0.00  0.00    +0.000 A 
ATOM     24  C   UNL     1       2.911   3.242  20.651  0.00  0.00    +0.000 A 
ATOM     25  N   UNL     1       3.305   3.358  19.350  0.00  0.00    +0.000 N 
ATOM     26  C   UNL     1       4.568   3.512  18.832  0.00  0.00    +0.000 A 
ATOM     27  O   UNL     1       5.627   3.587  19.440  0.00  0.00    +0.000 OA
ENDBRANCH  17  18
ENDBRANCH  16  17
ENDBRANCH  15  16
ENDBRANCH   3  15
TORSDOF 5
ENDMDL
MODEL 9
REMARK VINA RESULT:      -7.2      5.345      7.246
REMARK  Name = 
REMARK  5 active torsions:
REMARK  status: ('A' for Active; 'I' for Inactive)
REMARK    1  A    between atoms: N_3  and  C_4
REMARK    2  A    between atoms: C_4  and  C_5
REMARK    3  A    between atoms: C_5  and  C_6
REMARK    4  A    between atoms: C_6  and  N_7
REMARK    5  A    between atoms: N_17  and  C_18
REMARK                            x       y       z     vdW  Elec       q    Type
REMARK                         _______ _______ _______ _____ _____    ______ ____
ROOT
ATOM      1  O   UNL     1       5.838   4.826  18.759  0.00  0.00    +0.000 OA
ATOM      2  C   UNL     1       5.367   5.804  18.185  0.00  0.00    +0.000 C 
ATOM      3  N   UNL     1       6.166   6.750  17.586  0.00  0.00    +0.000 N 
ATOM      4  N   UNL     1       4.022   6.090  18.043  0.00  0.00    +0.000 N 
ATOM      5  H   UNL     1       5.777   7.678  17.508  0.00  0.00    +0.000 HD
ATOM      6  H   UNL     1       3.772   6.704  17.277  0.00  0.00    +0.000 HD
ENDROOT
BRANCH   4   7
ATOM      7  C   UNL     1       2.969   5.305  18.580  0.00  0.00    +0.000 A 
ATOM      8  C   UNL     1       2.335   5.617  19.787  0.00  0.00    +0.000 A 
ATOM      9  C   UNL     1       1.421   4.729  20.358  0.00  0.00    +0.000 A 
ATOM     10  C   UNL     1       1.097   3.553  19.693  0.00  0.00    +0.000 A 
ATOM     11  F   UNL     1       0.267   2.676  20.273  0.00  0.00    +0.000 F 
ATOM     12  C   UNL     1       1.629   3.272  18.443  0.00  0.00    +0.000 A 
ATOM     13  C   UNL     1       2.559   4.154  17.894  0.00  0.00    +0.000 A 
ATOM     14  F   UNL     1       3.106   3.857  16.703  0.00  0.00    +0.000 F 
ENDBRANCH   4   7
BRANCH   3  15
ATOM     15  C   UNL     1       7.618   6.651  17.659  0.00  0.00    +0.000 C 
BRANCH  15  16
ATOM     16  C   UNL     1       8.258   7.855  18.349  0.00  0.00    +0.000 C 
BRANCH  16  17
ATOM     17  C   UNL     1       7.834   9.166  17.691  0.00  0.00    +0.000 C 
BRANCH  17  18
ATOM     18  N   UNL     1       8.567  10.300  18.201  0.00  0.00    +0.000 N 
ATOM     19  N   UNL     1       9.504  10.194  19.214  0.00  0.00    +0.000 NA
ATOM     20  C   UNL     1       9.902  11.418  19.386  0.00  0.00    +0.000 A 
ATOM     21  C   UNL     1      10.916  11.918  20.338  0.00  0.00    +0.000 A 
ATOM     22  C   UNL     1      11.178  13.239  20.342  0.00  0.00    +0.000 A 
ATOM     23  C   UNL     1      10.489  14.149  19.443  0.00  0.00    +0.000 A 
ATOM     24  C   UNL     1       9.573  13.675  18.587  0.00  0.00    +0.000 A 
ATOM     25  N   UNL     1       9.305  12.338  18.577  0.00  0.00    +0.000 N 
ATOM     26  C   UNL     1       8.418  11.633  17.799  0.00  0.00    +0.000 A 
ATOM     27  O   UNL     1       7.660  12.065  16.942  0.00  0.00    +0.000 OA
ENDBRANCH  17  18
ENDBRANCH  16  17
ENDBRANCH  15  16
ENDBRANCH   3  15
TORSDOF 5
ENDMDL
