MODEL 1
REMARK VINA RESULT:      -8.9      0.000      0.000
REMARK  Name = 
REMARK  4 active torsions:
REMARK  status: ('A' for Active; 'I' for Inactive)
REMARK    1  A    between atoms: C_1  and  C_2
REMARK    2  A    between atoms: N_6  and  C_7
REMARK    3  A    between atoms: N_23  and  C_24
REMARK    4  A    between atoms: C_24  and  C_25
REMARK                            x       y       z     vdW  Elec       q    Type
REMARK                         _______ _______ _______ _____ _____    ______ ____
ROOT
ATOM      1  C   UNL     1       1.082  10.736  18.243  0.00  0.00    +0.000 C 
ATOM      2  C   UNL     1       1.074   9.971  19.549  0.00  0.00    +0.000 A 
ATOM      3  C   UNL     1       1.459   8.691  19.660  0.00  0.00    +0.000 A 
ATOM      4  C   UNL     1       2.071   7.762  18.666  0.00  0.00    +0.000 A 
ATOM      5  O   UNL     1       2.259   7.998  17.487  0.00  0.00    +0.000 OA
ATOM      6  N   UNL     1       2.357   6.592  19.414  0.00  0.00    +0.000 N 
ATOM      7  N   UNL     1       1.742   6.659  20.682  0.00  0.00    +0.000 N 
ATOM      8  C   UNL     1       1.351   7.964  20.901  0.00  0.00    +0.000 A 
ATOM      9  C   UNL     1       0.973   8.577  22.021  0.00  0.00    +0.000 A 
ATOM     10  C   UNL     1       0.624  10.014  21.975  0.00  0.00    +0.000 A 
ATOM     11  O   UNL     1       0.315  10.566  23.032  0.00  0.00    +0.000 OA
ATOM     12  N   UNL     1       0.673  10.651  20.725  0.00  0.00    +0.000 N 
ATOM     13  H   UNL     1       2.317   6.280  21.435  0.00  0.00    +0.000 HD
ENDROOT
BRANCH   6  14
ATOM     14  C   UNL     1       2.658   5.346  18.820  0.00  0.00    +0.000 A 
ATOM     15  C   UNL     1       1.719   4.317  18.845  0.00  0.00    +0.000 A 
ATOM     16  C   UNL     1       1.950   3.222  18.037  0.00  0.00    +0.000 A 
ATOM     17  N   UNL     1       3.008   3.110  17.206  0.00  0.00    +0.000 NA
ATOM     18  C   UNL     1       3.933   4.087  17.213  0.00  0.00    +0.000 A 
ATOM     19  C   UNL     1       4.984   4.041  16.306  0.00  0.00    +0.000 A 
ATOM     20  C   UNL     1       5.986   5.013  16.307  0.00  0.00    +0.000 A 
ATOM     21 CL   UNL     1       7.171   5.032  15.061  0.00  0.00    +0.000 Cl
ATOM     22  C   UNL     1       6.018   5.986  17.292  0.00  0.00    +0.000 A 
ATOM     23  C   UNL     1       4.958   6.068  18.183  0.00  0.00    +0.000 A 
ATOM     24  C   UNL     1       3.855   5.187  18.084  0.00  0.00    +0.000 A 
ENDBRANCH   6  14
BRANCH  12  25
ATOM     25  C   UNL     1       0.427  12.103  20.732  0.00  0.00    +0.000 C 
BRANCH  25  26
ATOM     26  C   UNL     1      -1.026  12.530  20.745  0.00  0.00    +0.000 A 
ATOM     27  C   UNL     1      -1.896  12.157  19.722  0.00  0.00    +0.000 A 
ATOM     28  C   UNL     1      -3.254  12.447  19.847  0.00  0.00    +0.000 A 
ATOM     29  C   UNL     1      -3.710  13.101  20.982  0.00  0.00    +0.000 A 
ATOM     30  C   UNL     1      -2.783  13.456  21.945  0.00  0.00    +0.000 A 
ATOM     31  N   UNL     1      -1.460  13.187  21.855  0.00  0.00    +0.000 NA
ENDBRANCH  25  26
ENDBRANCH  12  25
TORSDOF 3
ENDMDL
MODEL 2
REMARK VINA RESULT:      -8.7      1.479      2.410
REMARK  Name = 
REMARK  4 active torsions:
REMARK  status: ('A' for Active; 'I' for Inactive)
REMARK    1  A    between atoms: C_1  and  C_2
REMARK    2  A    between atoms: N_6  and  C_7
REMARK    3  A    between atoms: N_23  and  C_24
REMARK    4  A    between atoms: C_24  and  C_25
REMARK                            x       y       z     vdW  Elec       q    Type
REMARK                         _______ _______ _______ _____ _____    ______ ____
ROOT
ATOM      1  C   UNL     1       0.925  10.596  17.987  0.00  0.00    +0.000 C 
ATOM      2  C   UNL     1       1.012   9.926  19.342  0.00  0.00    +0.000 A 
ATOM      3  C   UNL     1       1.460   8.676  19.522  0.00  0.00    +0.000 A 
ATOM      4  C   UNL     1       2.069   7.706  18.566  0.00  0.00    +0.000 A 
ATOM      5  O   UNL     1       2.193   7.865  17.366  0.00  0.00    +0.000 OA
ATOM      6  N   UNL     1       2.442   6.604  19.379  0.00  0.00    +0.000 N 
ATOM      7  N   UNL     1       1.883   6.735  20.667  0.00  0.00    +0.000 N 
ATOM      8  C   UNL     1       1.442   8.034  20.814  0.00  0.00    +0.000 A 
ATOM      9  C   UNL     1       1.087   8.709  21.906  0.00  0.00    +0.000 A 
ATOM     10  C   UNL     1       0.670  10.123  21.778  0.00  0.00    +0.000 A 
ATOM     11  O   UNL     1       0.384  10.734  22.808  0.00  0.00    +0.000 OA
ATOM     12  N   UNL     1       0.633  10.670  20.486  0.00  0.00    +0.000 N 
ATOM     13  H   UNL     1       2.508   6.436  21.416  0.00  0.00    +0.000 HD
ENDROOT
BRANCH   6  14
ATOM     14  C   UNL     1       2.774   5.333  18.858  0.00  0.00    +0.000 A 
ATOM     15  C   UNL     1       1.880   4.273  18.987  0.00  0.00    +0.000 A 
ATOM     16  C   UNL     1       2.127   3.136  18.245  0.00  0.00    +0.000 A 
ATOM     17  N   UNL     1       3.160   3.008  17.385  0.00  0.00    +0.000 NA
ATOM     18  C   UNL     1       4.044   4.019  17.293  0.00  0.00    +0.000 A 
ATOM     19  C   UNL     1       5.064   3.952  16.352  0.00  0.00    +0.000 A 
ATOM     20  C   UNL     1       6.025   4.959  16.252  0.00  0.00    +0.000 A 
ATOM     21 CL   UNL     1       7.164   4.940  14.965  0.00  0.00    +0.000 Cl
ATOM     22  C   UNL     1       6.051   5.998  17.168  0.00  0.00    +0.000 A 
ATOM     23  C   UNL     1       5.019   6.099  18.090  0.00  0.00    +0.000 A 
ATOM     24  C   UNL     1       3.950   5.171  18.091  0.00  0.00    +0.000 A 
ENDBRANCH   6  14
BRANCH  12  25
ATOM     25  C   UNL     1       0.321  12.107  20.405  0.00  0.00    +0.000 C 
BRANCH  25  26
ATOM     26  C   UNL     1       1.505  13.034  20.227  0.00  0.00    +0.000 A 
ATOM     27  C   UNL     1       1.647  13.810  19.078  0.00  0.00    +0.000 A 
ATOM     28  C   UNL     1       2.670  14.755  19.019  0.00  0.00    +0.000 A 
ATOM     29  C   UNL     1       3.526  14.902  20.102  0.00  0.00    +0.000 A 
ATOM     30  C   UNL     1       3.333  14.083  21.199  0.00  0.00    +0.000 A 
ATOM     31  N   UNL     1       2.349  13.159  21.287  0.00  0.00    +0.000 NA
ENDBRANCH  25  26
ENDBRANCH  12  25
TORSDOF 3
ENDMDL
MODEL 3
REMARK VINA RESULT:      -8.4      1.839      2.731
REMARK  Name = 
REMARK  4 active torsions:
REMARK  status: ('A' for Active; 'I' for Inactive)
REMARK    1  A    between atoms: C_1  and  C_2
REMARK    2  A    between atoms: N_6  and  C_7
REMARK    3  A    between atoms: N_23  and  C_24
REMARK    4  A    between atoms: C_24  and  C_25
REMARK                            x       y       z     vdW  Elec       q    Type
REMARK                         _______ _______ _______ _____ _____    ______ ____
ROOT
ATOM      1  C   UNL     1       0.260  11.677  18.698  0.00  0.00    +0.000 C 
ATOM      2  C   UNL     1       0.532  10.676  19.801  0.00  0.00    +0.000 A 
ATOM      3  C   UNL     1       1.226   9.543  19.617  0.00  0.00    +0.000 A 
ATOM      4  C   UNL     1       1.977   9.035  18.433  0.00  0.00    +0.000 A 
ATOM      5  O   UNL     1       2.019   9.556  17.334  0.00  0.00    +0.000 OA
ATOM      6  N   UNL     1       2.593   7.844  18.897  0.00  0.00    +0.000 N 
ATOM      7  N   UNL     1       2.071   7.481  20.156  0.00  0.00    +0.000 N 
ATOM      8  C   UNL     1       1.386   8.565  20.666  0.00  0.00    +0.000 A 
ATOM      9  C   UNL     1       0.949   8.809  21.900  0.00  0.00    +0.000 A 
ATOM     10  C   UNL     1       0.255  10.086  22.180  0.00  0.00    +0.000 A 
ATOM     11  O   UNL     1      -0.106  10.303  23.338  0.00  0.00    +0.000 OA
ATOM     12  N   UNL     1       0.058  10.964  21.104  0.00  0.00    +0.000 N 
ATOM     13  H   UNL     1       2.772   7.110  20.798  0.00  0.00    +0.000 HD
ENDROOT
BRANCH   6  14
ATOM     14  C   UNL     1       3.150   6.872  18.036  0.00  0.00    +0.000 A 
ATOM     15  C   UNL     1       4.219   7.205  17.207  0.00  0.00    +0.000 A 
ATOM     16  C   UNL     1       4.891   6.173  16.585  0.00  0.00    +0.000 A 
ATOM     17  N   UNL     1       4.592   4.868  16.758  0.00  0.00    +0.000 NA
ATOM     18  C   UNL     1       3.534   4.551  17.528  0.00  0.00    +0.000 A 
ATOM     19  C   UNL     1       3.259   3.217  17.796  0.00  0.00    +0.000 A 
ATOM     20  C   UNL     1       2.149   2.844  18.555  0.00  0.00    +0.000 A 
ATOM     21 CL   UNL     1       1.934   1.203  19.022  0.00  0.00    +0.000 Cl
ATOM     22  C   UNL     1       1.227   3.794  18.964  0.00  0.00    +0.000 A 
ATOM     23  C   UNL     1       1.505   5.134  18.736  0.00  0.00    +0.000 A 
ATOM     24  C   UNL     1       2.712   5.530  18.111  0.00  0.00    +0.000 A 
ENDBRANCH   6  14
BRANCH  12  25
ATOM     25  C   UNL     1      -0.535  12.270  21.438  0.00  0.00    +0.000 C 
BRANCH  25  26
ATOM     26  C   UNL     1      -2.049  12.327  21.448  0.00  0.00    +0.000 A 
ATOM     27  C   UNL     1      -2.759  12.414  22.645  0.00  0.00    +0.000 A 
ATOM     28  C   UNL     1      -4.138  12.611  22.603  0.00  0.00    +0.000 A 
ATOM     29  C   UNL     1      -4.775  12.716  21.375  0.00  0.00    +0.000 A 
ATOM     30  C   UNL     1      -4.005  12.602  20.231  0.00  0.00    +0.000 A 
ATOM     31  N   UNL     1      -2.667  12.412  20.239  0.00  0.00    +0.000 NA
ENDBRANCH  25  26
ENDBRANCH  12  25
TORSDOF 3
ENDMDL
MODEL 4
REMARK VINA RESULT:      -8.3      2.006      2.915
REMARK  Name = 
REMARK  4 active torsions:
REMARK  status: ('A' for Active; 'I' for Inactive)
REMARK    1  A    between atoms: C_1  and  C_2
REMARK    2  A    between atoms: N_6  and  C_7
REMARK    3  A    between atoms: N_23  and  C_24
REMARK    4  A    between atoms: C_24  and  C_25
REMARK                            x       y       z     vdW  Elec       q    Type
REMARK                         _______ _______ _______ _____ _____    ______ ____
ROOT
ATOM      1  C   UNL     1      -0.655  10.994  18.728  0.00  0.00    +0.000 C 
ATOM      2  C   UNL     1      -0.001  10.215  19.849  0.00  0.00    +0.000 A 
ATOM      3  C   UNL     1       0.921   9.263  19.649  0.00  0.00    +0.000 A 
ATOM      4  C   UNL     1       1.613   8.815  18.405  0.00  0.00    +0.000 A 
ATOM      5  O   UNL     1       1.379   9.204  17.276  0.00  0.00    +0.000 OA
ATOM      6  N   UNL     1       2.561   7.862  18.859  0.00  0.00    +0.000 N 
ATOM      7  N   UNL     1       2.315   7.531  20.208  0.00  0.00    +0.000 N 
ATOM      8  C   UNL     1       1.456   8.475  20.732  0.00  0.00    +0.000 A 
ATOM      9  C   UNL     1       1.138   8.747  21.996  0.00  0.00    +0.000 A 
ATOM     10  C   UNL     1       0.192   9.849  22.282  0.00  0.00    +0.000 A 
ATOM     11  O   UNL     1      -0.056  10.105  23.461  0.00  0.00    +0.000 OA
ATOM     12  N   UNL     1      -0.356  10.530  21.184  0.00  0.00    +0.000 N 
ATOM     13  H   UNL     1       3.164   7.409  20.760  0.00  0.00    +0.000 HD
ENDROOT
BRANCH   6  14
ATOM     14  C   UNL     1       3.222   6.956  18.000  0.00  0.00    +0.000 A 
ATOM     15  C   UNL     1       4.314   7.382  17.246  0.00  0.00    +0.000 A 
ATOM     16  C   UNL     1       5.081   6.415  16.629  0.00  0.00    +0.000 A 
ATOM     17  N   UNL     1       4.853   5.089  16.743  0.00  0.00    +0.000 NA
ATOM     18  C   UNL     1       3.776   4.682  17.439  0.00  0.00    +0.000 A 
ATOM     19  C   UNL     1       3.568   3.325  17.648  0.00  0.00    +0.000 A 
ATOM     20  C   UNL     1       2.443   2.859  18.329  0.00  0.00    +0.000 A 
ATOM     21 CL   UNL     1       2.303   1.193  18.728  0.00  0.00    +0.000 Cl
ATOM     22  C   UNL     1       1.443   3.738  18.715  0.00  0.00    +0.000 A 
ATOM     23  C   UNL     1       1.651   5.099  18.547  0.00  0.00    +0.000 A 
ATOM     24  C   UNL     1       2.864   5.589  18.006  0.00  0.00    +0.000 A 
ENDBRANCH   6  14
BRANCH  12  25
ATOM     25  C   UNL     1      -1.206  11.690  21.504  0.00  0.00    +0.000 C 
BRANCH  25  26
ATOM     26  C   UNL     1      -0.590  13.052  21.258  0.00  0.00    +0.000 A 
ATOM     27  C   UNL     1      -1.322  14.077  20.662  0.00  0.00    +0.000 A 
ATOM     28  C   UNL     1      -0.766  15.353  20.588  0.00  0.00    +0.000 A 
ATOM     29  C   UNL     1       0.501  15.576  21.107  0.00  0.00    +0.000 A 
ATOM     30  C   UNL     1       1.172  14.505  21.667  0.00  0.00    +0.000 A 
ATOM     31  N   UNL     1       0.661  13.256  21.755  0.00  0.00    +0.000 NA
ENDBRANCH  25  26
ENDBRANCH  12  25
TORSDOF 3
ENDMDL
MODEL 5
REMARK VINA RESULT:      -8.1      2.254      3.243
REMARK  Name = 
REMARK  4 active torsions:
REMARK  status: ('A' for Active; 'I' for Inactive)
REMARK    1  A    between atoms: C_1  and  C_2
REMARK    2  A    between atoms: N_6  and  C_7
REMARK    3  A    between atoms: N_23  and  C_24
REMARK    4  A    between atoms: C_24  and  C_25
REMARK                            x       y       z     vdW  Elec       q    Type
REMARK                         _______ _______ _______ _____ _____    ______ ____
ROOT
ATOM      1  C   UNL     1      -0.920  11.695  18.598  0.00  0.00    +0.000 C 
ATOM      2  C   UNL     1      -0.476  11.029  19.883  0.00  0.00    +0.000 A 
ATOM      3  C   UNL     1       0.362   9.983  19.923  0.00  0.00    +0.000 A 
ATOM      4  C   UNL     1       1.137   9.306  18.844  0.00  0.00    +0.000 A 
ATOM      5  O   UNL     1       1.071   9.550  17.653  0.00  0.00    +0.000 OA
ATOM      6  N   UNL     1       1.928   8.350  19.531  0.00  0.00    +0.000 N 
ATOM      7  N   UNL     1       1.502   8.235  20.871  0.00  0.00    +0.000 N 
ATOM      8  C   UNL     1       0.691   9.313  21.158  0.00  0.00    +0.000 A 
ATOM      9  C   UNL     1       0.264   9.788  22.327  0.00  0.00    +0.000 A 
ATOM     10  C   UNL     1      -0.591  10.995  22.347  0.00  0.00    +0.000 A 
ATOM     11  O   UNL     1      -0.940  11.435  23.443  0.00  0.00    +0.000 OA
ATOM     12  N   UNL     1      -0.942  11.559  21.111  0.00  0.00    +0.000 N 
ATOM     13  H   UNL     1       2.269   8.120  21.534  0.00  0.00    +0.000 HD
ENDROOT
BRANCH   6  14
ATOM     14  C   UNL     1       2.586   7.279  18.885  0.00  0.00    +0.000 A 
ATOM     15  C   UNL     1       3.440   7.530  17.813  0.00  0.00    +0.000 A 
ATOM     16  C   UNL     1       4.252   6.499  17.388  0.00  0.00    +0.000 A 
ATOM     17  N   UNL     1       4.287   5.281  17.969  0.00  0.00    +0.000 NA
ATOM     18  C   UNL     1       3.433   5.028  18.978  0.00  0.00    +0.000 A 
ATOM     19  C   UNL     1       3.510   3.816  19.652  0.00  0.00    +0.000 A 
ATOM     20  C   UNL     1       2.617   3.499  20.677  0.00  0.00    +0.000 A 
ATOM     21 CL   UNL     1       2.847   2.074  21.611  0.00  0.00    +0.000 Cl
ATOM     22  C   UNL     1       1.557   4.341  20.970  0.00  0.00    +0.000 A 
ATOM     23  C   UNL     1       1.487   5.571  20.332  0.00  0.00    +0.000 A 
ATOM     24  C   UNL     1       2.484   5.970  19.409  0.00  0.00    +0.000 A 
ENDBRANCH   6  14
BRANCH  12  25
ATOM     25  C   UNL     1      -1.700  12.819  21.170  0.00  0.00    +0.000 C 
BRANCH  25  26
ATOM     26  C   UNL     1      -3.207  12.685  21.253  0.00  0.00    +0.000 A 
ATOM     27  C   UNL     1      -3.882  12.871  22.458  0.00  0.00    +0.000 A 
ATOM     28  C   UNL     1      -5.276  12.882  22.460  0.00  0.00    +0.000 A 
ATOM     29  C   UNL     1      -5.961  12.706  21.266  0.00  0.00    +0.000 A 
ATOM     30  C   UNL     1      -5.221  12.509  20.115  0.00  0.00    +0.000 A 
ATOM     31  N   UNL     1      -3.870  12.494  20.080  0.00  0.00    +0.000 NA
ENDBRANCH  25  26
ENDBRANCH  12  25
TORSDOF 3
ENDMDL
MODEL 6
REMARK VINA RESULT:      -8.1      3.380      8.977
REMARK  Name = 
REMARK  4 active torsions:
REMARK  status: ('A' for Active; 'I' for Inactive)
REMARK    1  A    between atoms: C_1  and  C_2
REMARK    2  A    between atoms: N_6  and  C_7
REMARK    3  A    between atoms: N_23  and  C_24
REMARK    4  A    between atoms: C_24  and  C_25
REMARK                            x       y       z     vdW  Elec       q    Type
REMARK                         _______ _______ _______ _____ _____    ______ ____
ROOT
ATOM      1  C   UNL     1       1.819   6.399  20.930  0.00  0.00    +0.000 C 
ATOM      2  C   UNL     1       2.196   7.170  19.682  0.00  0.00    +0.000 A 
ATOM      3  C   UNL     1       1.579   8.295  19.293  0.00  0.00    +0.000 A 
ATOM      4  C   UNL     1       0.533   9.121  19.961  0.00  0.00    +0.000 A 
ATOM      5  O   UNL     1      -0.037   8.849  21.002  0.00  0.00    +0.000 OA
ATOM      6  N   UNL     1       0.378  10.244  19.109  0.00  0.00    +0.000 N 
ATOM      7  N   UNL     1       1.050  10.027  17.887  0.00  0.00    +0.000 N 
ATOM      8  C   UNL     1       1.901   8.953  18.049  0.00  0.00    +0.000 A 
ATOM      9  C   UNL     1       2.912   8.530  17.295  0.00  0.00    +0.000 A 
ATOM     10  C   UNL     1       3.687   7.344  17.724  0.00  0.00    +0.000 A 
ATOM     11  O   UNL     1       4.641   6.996  17.027  0.00  0.00    +0.000 OA
ATOM     12  N   UNL     1       3.280   6.698  18.901  0.00  0.00    +0.000 N 
ATOM     13  H   UNL     1       1.516  10.859  17.524  0.00  0.00    +0.000 HD
ENDROOT
BRANCH   6  14
ATOM     14  C   UNL     1      -0.719  11.131  19.186  0.00  0.00    +0.000 A 
ATOM     15  C   UNL     1      -1.871  10.879  18.445  0.00  0.00    +0.000 A 
ATOM     16  C   UNL     1      -2.998  11.617  18.746  0.00  0.00    +0.000 A 
ATOM     17  N   UNL     1      -3.053  12.537  19.733  0.00  0.00    +0.000 NA
ATOM     18  C   UNL     1      -1.928  12.806  20.420  0.00  0.00    +0.000 A 
ATOM     19  C   UNL     1      -1.977  13.681  21.498  0.00  0.00    +0.000 A 
ATOM     20  C   UNL     1      -0.826  14.018  22.211  0.00  0.00    +0.000 A 
ATOM     21 CL   UNL     1      -0.944  14.958  23.646  0.00  0.00    +0.000 Cl
ATOM     22  C   UNL     1       0.417  13.575  21.788  0.00  0.00    +0.000 A 
ATOM     23  C   UNL     1       0.480  12.672  20.736  0.00  0.00    +0.000 A 
ATOM     24  C   UNL     1      -0.699  12.197  20.113  0.00  0.00    +0.000 A 
ENDBRANCH   6  14
BRANCH  12  25
ATOM     25  C   UNL     1       4.137   5.591  19.358  0.00  0.00    +0.000 C 
BRANCH  25  26
ATOM     26  C   UNL     1       3.660   4.196  19.011  0.00  0.00    +0.000 A 
ATOM     27  C   UNL     1       2.764   3.980  17.966  0.00  0.00    +0.000 A 
ATOM     28  C   UNL     1       2.465   2.672  17.588  0.00  0.00    +0.000 A 
ATOM     29  C   UNL     1       3.064   1.615  18.258  0.00  0.00    +0.000 A 
ATOM     30  C   UNL     1       3.929   1.909  19.296  0.00  0.00    +0.000 A 
ATOM     31  N   UNL     1       4.239   3.166  19.686  0.00  0.00    +0.000 NA
ENDBRANCH  25  26
ENDBRANCH  12  25
TORSDOF 3
ENDMDL
MODEL 7
REMARK VINA RESULT:      -8.0      3.246      8.656
REMARK  Name = 
REMARK  4 active torsions:
REMARK  status: ('A' for Active; 'I' for Inactive)
REMARK    1  A    between atoms: C_1  and  C_2
REMARK    2  A    between atoms: N_6  and  C_7
REMARK    3  A    between atoms: N_23  and  C_24
REMARK    4  A    between atoms: C_24  and  C_25
REMARK                            x       y       z     vdW  Elec       q    Type
REMARK                         _______ _______ _______ _____ _____    ______ ____
ROOT
ATOM      1  C   UNL     1       1.596   6.882  21.232  0.00  0.00    +0.000 C 
ATOM      2  C   UNL     1       2.096   7.331  19.876  0.00  0.00    +0.000 A 
ATOM      3  C   UNL     1       1.795   8.518  19.331  0.00  0.00    +0.000 A 
ATOM      4  C   UNL     1       1.063   9.694  19.886  0.00  0.00    +0.000 A 
ATOM      5  O   UNL     1       0.505   9.745  20.967  0.00  0.00    +0.000 OA
ATOM      6  N   UNL     1       1.176  10.683  18.876  0.00  0.00    +0.000 N 
ATOM      7  N   UNL     1       1.685  10.115  17.689  0.00  0.00    +0.000 N 
ATOM      8  C   UNL     1       2.211   8.877  17.997  0.00  0.00    +0.000 A 
ATOM      9  C   UNL     1       3.016   8.081  17.296  0.00  0.00    +0.000 A 
ATOM     10  C   UNL     1       3.455   6.797  17.886  0.00  0.00    +0.000 A 
ATOM     11  O   UNL     1       4.230   6.097  17.233  0.00  0.00    +0.000 OA
ATOM     12  N   UNL     1       2.956   6.465  19.155  0.00  0.00    +0.000 N 
ATOM     13  H   UNL     1       2.342  10.719  17.196  0.00  0.00    +0.000 HD
ENDROOT
BRANCH   6  14
ATOM     14  C   UNL     1       0.377  11.848  18.837  0.00  0.00    +0.000 A 
ATOM     15  C   UNL     1      -0.994  11.759  19.067  0.00  0.00    +0.000 A 
ATOM     16  C   UNL     1      -1.684  12.936  19.277  0.00  0.00    +0.000 A 
ATOM     17  N   UNL     1      -1.102  14.154  19.304  0.00  0.00    +0.000 NA
ATOM     18  C   UNL     1       0.215  14.240  19.044  0.00  0.00    +0.000 A 
ATOM     19  C   UNL     1       0.856  15.467  19.154  0.00  0.00    +0.000 A 
ATOM     20  C   UNL     1       2.212  15.607  18.853  0.00  0.00    +0.000 A 
ATOM     21 CL   UNL     1       3.018  17.092  19.171  0.00  0.00    +0.000 Cl
ATOM     22  C   UNL     1       2.927  14.544  18.325  0.00  0.00    +0.000 A 
ATOM     23  C   UNL     1       2.312  13.303  18.243  0.00  0.00    +0.000 A 
ATOM     24  C   UNL     1       0.986  13.116  18.701  0.00  0.00    +0.000 A 
ENDBRANCH   6  14
BRANCH  12  25
ATOM     25  C   UNL     1       3.496   5.236  19.759  0.00  0.00    +0.000 C 
BRANCH  25  26
ATOM     26  C   UNL     1       2.779   3.950  19.402  0.00  0.00    +0.000 A 
ATOM     27  C   UNL     1       1.443   3.751  19.746  0.00  0.00    +0.000 A 
ATOM     28  C   UNL     1       0.783   2.619  19.272  0.00  0.00    +0.000 A 
ATOM     29  C   UNL     1       1.467   1.715  18.471  0.00  0.00    +0.000 A 
ATOM     30  C   UNL     1       2.795   1.973  18.188  0.00  0.00    +0.000 A 
ATOM     31  N   UNL     1       3.464   3.062  18.632  0.00  0.00    +0.000 NA
ENDBRANCH  25  26
ENDBRANCH  12  25
TORSDOF 3
ENDMDL
MODEL 8
REMARK VINA RESULT:      -7.9      1.614      2.214
REMARK  Name = 
REMARK  4 active torsions:
REMARK  status: ('A' for Active; 'I' for Inactive)
REMARK    1  A    between atoms: C_1  and  C_2
REMARK    2  A    between atoms: N_6  and  C_7
REMARK    3  A    between atoms: N_23  and  C_24
REMARK    4  A    between atoms: C_24  and  C_25
REMARK                            x       y       z     vdW  Elec       q    Type
REMARK                         _______ _______ _______ _____ _____    ______ ____
ROOT
ATOM      1  C   UNL     1      -0.212  10.317  17.949  0.00  0.00    +0.000 C 
ATOM      2  C   UNL     1       0.208  10.019  19.373  0.00  0.00    +0.000 A 
ATOM      3  C   UNL     1       0.940   8.951  19.721  0.00  0.00    +0.000 A 
ATOM      4  C   UNL     1       1.608   7.908  18.891  0.00  0.00    +0.000 A 
ATOM      5  O   UNL     1       1.526   7.794  17.682  0.00  0.00    +0.000 OA
ATOM      6  N   UNL     1       2.323   7.121  19.830  0.00  0.00    +0.000 N 
ATOM      7  N   UNL     1       1.934   7.454  21.144  0.00  0.00    +0.000 N 
ATOM      8  C   UNL     1       1.243   8.647  21.099  0.00  0.00    +0.000 A 
ATOM      9  C   UNL     1       0.904   9.488  22.074  0.00  0.00    +0.000 A 
ATOM     10  C   UNL     1       0.173  10.729  21.736  0.00  0.00    +0.000 A 
ATOM     11  O   UNL     1      -0.095  11.508  22.652  0.00  0.00    +0.000 OA
ATOM     12  N   UNL     1      -0.163  10.934  20.388  0.00  0.00    +0.000 N 
ATOM     13  H   UNL     1       2.707   7.462  21.810  0.00  0.00    +0.000 HD
ENDROOT
BRANCH   6  14
ATOM     14  C   UNL     1       2.851   5.845  19.531  0.00  0.00    +0.000 A 
ATOM     15  C   UNL     1       2.362   4.718  20.188  0.00  0.00    +0.000 A 
ATOM     16  C   UNL     1       2.714   3.482  19.685  0.00  0.00    +0.000 A 
ATOM     17  N   UNL     1       3.473   3.307  18.582  0.00  0.00    +0.000 NA
ATOM     18  C   UNL     1       3.975   4.396  17.972  0.00  0.00    +0.000 A 
ATOM     19  C   UNL     1       4.683   4.252  16.786  0.00  0.00    +0.000 A 
ATOM     20  C   UNL     1       5.255   5.350  16.144  0.00  0.00    +0.000 A 
ATOM     21 CL   UNL     1       5.967   5.168  14.589  0.00  0.00    +0.000 Cl
ATOM     22  C   UNL     1       5.229   6.602  16.737  0.00  0.00    +0.000 A 
ATOM     23  C   UNL     1       4.496   6.772  17.903  0.00  0.00    +0.000 A 
ATOM     24  C   UNL     1       3.775   5.694  18.472  0.00  0.00    +0.000 A 
ENDBRANCH   6  14
BRANCH  12  25
ATOM     25  C   UNL     1      -0.791  12.228  20.071  0.00  0.00    +0.000 C 
BRANCH  25  26
ATOM     26  C   UNL     1       0.158  13.373  19.782  0.00  0.00    +0.000 A 
ATOM     27  C   UNL     1       1.525  13.154  19.626  0.00  0.00    +0.000 A 
ATOM     28  C   UNL     1       2.339  14.209  19.218  0.00  0.00    +0.000 A 
ATOM     29  C   UNL     1       1.773  15.453  18.977  0.00  0.00    +0.000 A 
ATOM     30  C   UNL     1       0.411  15.597  19.171  0.00  0.00    +0.000 A 
ATOM     31  N   UNL     1      -0.405  14.593  19.565  0.00  0.00    +0.000 NA
ENDBRANCH  25  26
ENDBRANCH  12  25
TORSDOF 3
ENDMDL
MODEL 9
REMARK VINA RESULT:      -7.9      1.456      2.140
REMARK  Name = 
REMARK  4 active torsions:
REMARK  status: ('A' for Active; 'I' for Inactive)
REMARK    1  A    between atoms: C_1  and  C_2
REMARK    2  A    between atoms: N_6  and  C_7
REMARK    3  A    between atoms: N_23  and  C_24
REMARK    4  A    between atoms: C_24  and  C_25
REMARK                            x       y       z     vdW  Elec       q    Type
REMARK                         _______ _______ _______ _____ _____    ______ ____
ROOT
ATOM      1  C   UNL     1       1.131   9.414  22.255  0.00  0.00    +0.000 C 
ATOM      2  C   UNL     1       1.301   9.699  20.778  0.00  0.00    +0.000 A 
ATOM      3  C   UNL     1       1.592   8.756  19.871  0.00  0.00    +0.000 A 
ATOM      4  C   UNL     1       1.698   7.273  19.998  0.00  0.00    +0.000 A 
ATOM      5  O   UNL     1       1.616   6.636  21.032  0.00  0.00    +0.000 OA
ATOM      6  N   UNL     1       1.912   6.825  18.670  0.00  0.00    +0.000 N 
ATOM      7  N   UNL     1       2.192   7.918  17.823  0.00  0.00    +0.000 N 
ATOM      8  C   UNL     1       1.840   9.076  18.486  0.00  0.00    +0.000 A 
ATOM      9  C   UNL     1       1.671  10.315  18.031  0.00  0.00    +0.000 A 
ATOM     10  C   UNL     1       1.261  11.381  18.973  0.00  0.00    +0.000 A 
ATOM     11  O   UNL     1       1.074  12.510  18.519  0.00  0.00    +0.000 OA
ATOM     12  N   UNL     1       1.110  11.027  20.323  0.00  0.00    +0.000 N 
ATOM     13  H   UNL     1       1.766   7.838  16.899  0.00  0.00    +0.000 HD
ENDROOT
BRANCH   6  14
ATOM     14  C   UNL     1       2.374   5.527  18.354  0.00  0.00    +0.000 A 
ATOM     15  C   UNL     1       1.545   4.425  18.553  0.00  0.00    +0.000 A 
ATOM     16  C   UNL     1       1.933   3.224  17.995  0.00  0.00    +0.000 A 
ATOM     17  N   UNL     1       3.045   3.068  17.245  0.00  0.00    +0.000 NA
ATOM     18  C   UNL     1       3.864   4.124  17.087  0.00  0.00    +0.000 A 
ATOM     19  C   UNL     1       4.965   4.017  16.248  0.00  0.00    +0.000 A 
ATOM     20  C   UNL     1       5.862   5.075  16.089  0.00  0.00    +0.000 A 
ATOM     21 CL   UNL     1       7.110   4.978  14.911  0.00  0.00    +0.000 Cl
ATOM     22  C   UNL     1       5.736   6.222  16.856  0.00  0.00    +0.000 A 
ATOM     23  C   UNL     1       4.622   6.361  17.671  0.00  0.00    +0.000 A 
ATOM     24  C   UNL     1       3.622   5.359  17.712  0.00  0.00    +0.000 A 
ENDBRANCH   6  14
BRANCH  12  25
ATOM     25  C   UNL     1       0.596  12.082  21.212  0.00  0.00    +0.000 C 
BRANCH  25  26
ATOM     26  C   UNL     1      -0.908  12.127  21.387  0.00  0.00    +0.000 A 
ATOM     27  C   UNL     1      -1.491  11.983  22.645  0.00  0.00    +0.000 A 
ATOM     28  C   UNL     1      -2.865  12.176  22.782  0.00  0.00    +0.000 A 
ATOM     29  C   UNL     1      -3.621  12.506  21.666  0.00  0.00    +0.000 A 
ATOM     30  C   UNL     1      -2.974  12.614  20.449  0.00  0.00    +0.000 A 
ATOM     31  N   UNL     1      -1.643  12.434  20.284  0.00  0.00    +0.000 NA
ENDBRANCH  25  26
ENDBRANCH  12  25
TORSDOF 3
ENDMDL
