MODEL 1
REMARK VINA RESULT:      -7.6      0.000      0.000
REMARK  Name = 
REMARK  7 active torsions:
REMARK  status: ('A' for Active; 'I' for Inactive)
REMARK    1  A    between atoms: C_1  and  C_2
REMARK    2  A    between atoms: C_6  and  C_7
REMARK    3  A    between atoms: C_8  and  O_9
REMARK    4  A    between atoms: C_13  and  C_14
REMARK    5  A    between atoms: C_21  and  C_22
REMARK    6  A    between atoms: C_25  and  O_26
REMARK    7  A    between atoms: C_27  and  O_28
REMARK                            x       y       z     vdW  Elec       q    Type
REMARK                         _______ _______ _______ _____ _____    ______ ____
ROOT
ATOM      1  C   UNL     1       2.526  13.792  19.630  0.00  0.00    +0.000 C 
ATOM      2  C   UNL     1       2.062  12.594  18.841  0.00  0.00    +0.000 C 
ATOM      3  O   UNL     1       2.701  12.177  17.875  0.00  0.00    +0.000 OA
ATOM      4  N   UNL     1       0.889  12.013  19.291  0.00  0.00    +0.000 N 
ATOM      5  N   UNL     1       0.090  12.607  20.235  0.00  0.00    +0.000 NA
ATOM      6  C   UNL     1      -1.011  11.913  20.294  0.00  0.00    +0.000 C 
ATOM      7  C   UNL     1      -1.064  10.729  19.361  0.00  0.00    +0.000 C 
ATOM      8  C   UNL     1       0.279  10.849  18.658  0.00  0.00    +0.000 C 
ENDROOT
BRANCH   6   9
ATOM      9  C   UNL     1      -2.129  12.284  21.211  0.00  0.00    +0.000 A 
ATOM     10  C   UNL     1      -1.871  12.477  22.574  0.00  0.00    +0.000 A 
ATOM     11  C   UNL     1      -2.896  12.821  23.452  0.00  0.00    +0.000 A 
ATOM     12  C   UNL     1      -4.200  13.000  22.982  0.00  0.00    +0.000 A 
ATOM     13  C   UNL     1      -4.505  12.837  21.627  0.00  0.00    +0.000 A 
ATOM     14  C   UNL     1      -5.851  13.042  21.057  0.00  0.00    +0.000 A 
ATOM     15  C   UNL     1      -7.022  13.502  21.878  0.00  0.00    +0.000 C 
ATOM     16  C   UNL     1      -6.041  12.834  19.745  0.00  0.00    +0.000 A 
ATOM     17  C   UNL     1      -4.978  12.413  18.833  0.00  0.00    +0.000 A 
ATOM     18  O   UNL     1      -5.190  12.225  17.643  0.00  0.00    +0.000 OA
ATOM     19  O   UNL     1      -3.729  12.264  19.396  0.00  0.00    +0.000 OA
ATOM     20  C   UNL     1      -3.454  12.466  20.767  0.00  0.00    +0.000 A 
BRANCH  10  21
ATOM     21  O   UNL     1      -0.630  12.359  23.142  0.00  0.00    +0.000 OA
ATOM     22  H   UNL     1      -0.721  12.509  24.108  0.00  0.00    +0.000 HD
ENDBRANCH  10  21
ENDBRANCH   6   9
BRANCH   8  23
ATOM     23  C   UNL     1       1.103   9.584  18.795  0.00  0.00    +0.000 A 
ATOM     24  C   UNL     1       1.853   9.110  17.703  0.00  0.00    +0.000 A 
ATOM     25  C   UNL     1       2.619   7.945  17.809  0.00  0.00    +0.000 A 
ATOM     26  C   UNL     1       2.629   7.248  19.009  0.00  0.00    +0.000 A 
ATOM     27  C   UNL     1       1.882   7.701  20.090  0.00  0.00    +0.000 A 
ATOM     28  C   UNL     1       1.122   8.859  19.999  0.00  0.00    +0.000 A 
BRANCH  26  29
ATOM     29  O   UNL     1       3.364   6.107  19.177  0.00  0.00    +0.000 OA
ATOM     30  H   UNL     1       3.626   6.057  20.113  0.00  0.00    +0.000 HD
ENDBRANCH  26  29
BRANCH  27  31
ATOM     31  O   UNL     1       1.890   7.006  21.265  0.00  0.00    +0.000 OA
ATOM     32  H   UNL     1       1.936   7.695  21.956  0.00  0.00    +0.000 HD
ENDBRANCH  27  31
ENDBRANCH   8  23
TORSDOF 5
ENDMDL
MODEL 2
REMARK VINA RESULT:      -7.5      0.823      1.417
REMARK  Name = 
REMARK  7 active torsions:
REMARK  status: ('A' for Active; 'I' for Inactive)
REMARK    1  A    between atoms: C_1  and  C_2
REMARK    2  A    between atoms: C_6  and  C_7
REMARK    3  A    between atoms: C_8  and  O_9
REMARK    4  A    between atoms: C_13  and  C_14
REMARK    5  A    between atoms: C_21  and  C_22
REMARK    6  A    between atoms: C_25  and  O_26
REMARK    7  A    between atoms: C_27  and  O_28
REMARK                            x       y       z     vdW  Elec       q    Type
REMARK                         _______ _______ _______ _____ _____    ______ ____
ROOT
ATOM      1  C   UNL     1       2.354  13.650  19.322  0.00  0.00    +0.000 C 
ATOM      2  C   UNL     1       1.993  12.349  18.651  0.00  0.00    +0.000 C 
ATOM      3  O   UNL     1       2.745  11.822  17.830  0.00  0.00    +0.000 OA
ATOM      4  N   UNL     1       0.778  11.807  19.035  0.00  0.00    +0.000 N 
ATOM      5  N   UNL     1      -0.130  12.503  19.791  0.00  0.00    +0.000 NA
ATOM      6  C   UNL     1      -1.226  11.800  19.814  0.00  0.00    +0.000 C 
ATOM      7  C   UNL     1      -1.163  10.503  19.047  0.00  0.00    +0.000 C 
ATOM      8  C   UNL     1       0.254  10.557  18.495  0.00  0.00    +0.000 C 
ENDROOT
BRANCH   6   9
ATOM      9  C   UNL     1      -2.446  12.265  20.536  0.00  0.00    +0.000 A 
ATOM     10  C   UNL     1      -2.352  12.645  21.881  0.00  0.00    +0.000 A 
ATOM     11  C   UNL     1      -3.476  13.079  22.580  0.00  0.00    +0.000 A 
ATOM     12  C   UNL     1      -4.717  13.164  21.943  0.00  0.00    +0.000 A 
ATOM     13  C   UNL     1      -4.859  12.813  20.597  0.00  0.00    +0.000 A 
ATOM     14  C   UNL     1      -6.130  12.910  19.853  0.00  0.00    +0.000 A 
ATOM     15  C   UNL     1      -7.393  13.448  20.463  0.00  0.00    +0.000 C 
ATOM     16  C   UNL     1      -6.163  12.523  18.568  0.00  0.00    +0.000 A 
ATOM     17  C   UNL     1      -4.998  12.008  17.851  0.00  0.00    +0.000 A 
ATOM     18  O   UNL     1      -5.067  11.658  16.680  0.00  0.00    +0.000 OA
ATOM     19  O   UNL     1      -3.823  11.965  18.569  0.00  0.00    +0.000 OA
ATOM     20  C   UNL     1      -3.712  12.356  19.922  0.00  0.00    +0.000 A 
BRANCH  10  21
ATOM     21  O   UNL     1      -1.185  12.632  22.600  0.00  0.00    +0.000 OA
ATOM     22  H   UNL     1      -1.237  13.340  23.278  0.00  0.00    +0.000 HD
ENDBRANCH  10  21
ENDBRANCH   6   9
BRANCH   8  23
ATOM     23  C   UNL     1       1.063   9.339  18.895  0.00  0.00    +0.000 A 
ATOM     24  C   UNL     1       1.009   8.862  20.217  0.00  0.00    +0.000 A 
ATOM     25  C   UNL     1       1.748   7.740  20.608  0.00  0.00    +0.000 A 
ATOM     26  C   UNL     1       2.549   7.099  19.673  0.00  0.00    +0.000 A 
ATOM     27  C   UNL     1       2.619   7.570  18.367  0.00  0.00    +0.000 A 
ATOM     28  C   UNL     1       1.886   8.679  17.967  0.00  0.00    +0.000 A 
BRANCH  26  29
ATOM     29  O   UNL     1       3.289   5.994  19.991  0.00  0.00    +0.000 OA
ATOM     30  H   UNL     1       2.957   5.647  20.838  0.00  0.00    +0.000 HD
ENDBRANCH  26  29
BRANCH  27  31
ATOM     31  O   UNL     1       3.416   6.940  17.455  0.00  0.00    +0.000 OA
ATOM     32  H   UNL     1       4.318   7.027  17.819  0.00  0.00    +0.000 HD
ENDBRANCH  27  31
ENDBRANCH   8  23
TORSDOF 5
ENDMDL
MODEL 3
REMARK VINA RESULT:      -7.2      8.101     11.531
REMARK  Name = 
REMARK  7 active torsions:
REMARK  status: ('A' for Active; 'I' for Inactive)
REMARK    1  A    between atoms: C_1  and  C_2
REMARK    2  A    between atoms: C_6  and  C_7
REMARK    3  A    between atoms: C_8  and  O_9
REMARK    4  A    between atoms: C_13  and  C_14
REMARK    5  A    between atoms: C_21  and  C_22
REMARK    6  A    between atoms: C_25  and  O_26
REMARK    7  A    between atoms: C_27  and  O_28
REMARK                            x       y       z     vdW  Elec       q    Type
REMARK                         _______ _______ _______ _____ _____    ______ ____
ROOT
ATOM      1  C   UNL     1       4.418  14.720  22.201  0.00  0.00    +0.000 C 
ATOM      2  C   UNL     1       5.227  14.506  23.455  0.00  0.00    +0.000 C 
ATOM      3  O   UNL     1       4.844  14.931  24.545  0.00  0.00    +0.000 OA
ATOM      4  N   UNL     1       6.406  13.800  23.280  0.00  0.00    +0.000 N 
ATOM      5  N   UNL     1       6.913  13.513  22.039  0.00  0.00    +0.000 NA
ATOM      6  C   UNL     1       8.105  13.020  22.218  0.00  0.00    +0.000 C 
ATOM      7  C   UNL     1       8.537  12.916  23.658  0.00  0.00    +0.000 C 
ATOM      8  C   UNL     1       7.325  13.496  24.372  0.00  0.00    +0.000 C 
ENDROOT
BRANCH   6   9
ATOM      9  C   UNL     1       8.968  12.608  21.072  0.00  0.00    +0.000 A 
ATOM     10  C   UNL     1       9.376  11.273  20.958  0.00  0.00    +0.000 A 
ATOM     11  C   UNL     1      10.185  10.863  19.900  0.00  0.00    +0.000 A 
ATOM     12  C   UNL     1      10.586  11.775  18.921  0.00  0.00    +0.000 A 
ATOM     13  C   UNL     1      10.189  13.115  18.980  0.00  0.00    +0.000 A 
ATOM     14  C   UNL     1      10.549  14.124  17.964  0.00  0.00    +0.000 A 
ATOM     15  C   UNL     1      11.337  13.792  16.730  0.00  0.00    +0.000 C 
ATOM     16  C   UNL     1      10.137  15.390  18.130  0.00  0.00    +0.000 A 
ATOM     17  C   UNL     1       9.340  15.835  19.273  0.00  0.00    +0.000 A 
ATOM     18  O   UNL     1       8.988  17.001  19.396  0.00  0.00    +0.000 OA
ATOM     19  O   UNL     1       8.997  14.858  20.182  0.00  0.00    +0.000 OA
ATOM     20  C   UNL     1       9.393  13.506  20.072  0.00  0.00    +0.000 A 
BRANCH  10  21
ATOM     21  O   UNL     1       9.021  10.286  21.839  0.00  0.00    +0.000 OA
ATOM     22  H   UNL     1       9.840   9.835  22.138  0.00  0.00    +0.000 HD
ENDBRANCH  10  21
ENDBRANCH   6   9
BRANCH   8  23
ATOM     23  C   UNL     1       6.755  12.532  25.392  0.00  0.00    +0.000 A 
ATOM     24  C   UNL     1       7.196  12.577  26.728  0.00  0.00    +0.000 A 
ATOM     25  C   UNL     1       6.684  11.696  27.684  0.00  0.00    +0.000 A 
ATOM     26  C   UNL     1       5.732  10.761  27.302  0.00  0.00    +0.000 A 
ATOM     27  C   UNL     1       5.297  10.699  25.984  0.00  0.00    +0.000 A 
ATOM     28  C   UNL     1       5.795  11.572  25.026  0.00  0.00    +0.000 A 
BRANCH  26  29
ATOM     29  O   UNL     1       5.187   9.877  28.193  0.00  0.00    +0.000 OA
ATOM     30  H   UNL     1       5.857   9.197  28.385  0.00  0.00    +0.000 HD
ENDBRANCH  26  29
BRANCH  27  31
ATOM     31  O   UNL     1       4.367   9.771  25.613  0.00  0.00    +0.000 OA
ATOM     32  H   UNL     1       4.675   9.452  24.742  0.00  0.00    +0.000 HD
ENDBRANCH  27  31
ENDBRANCH   8  23
TORSDOF 5
ENDMDL
MODEL 4
REMARK VINA RESULT:      -7.2      1.008      3.026
REMARK  Name = 
REMARK  7 active torsions:
REMARK  status: ('A' for Active; 'I' for Inactive)
REMARK    1  A    between atoms: C_1  and  C_2
REMARK    2  A    between atoms: C_6  and  C_7
REMARK    3  A    between atoms: C_8  and  O_9
REMARK    4  A    between atoms: C_13  and  C_14
REMARK    5  A    between atoms: C_21  and  C_22
REMARK    6  A    between atoms: C_25  and  O_26
REMARK    7  A    between atoms: C_27  and  O_28
REMARK                            x       y       z     vdW  Elec       q    Type
REMARK                         _______ _______ _______ _____ _____    ______ ____
ROOT
ATOM      1  C   UNL     1       1.928  13.714  19.236  0.00  0.00    +0.000 C 
ATOM      2  C   UNL     1       1.803  12.387  18.532  0.00  0.00    +0.000 C 
ATOM      3  O   UNL     1       2.749  11.900  17.912  0.00  0.00    +0.000 OA
ATOM      4  N   UNL     1       0.566  11.776  18.646  0.00  0.00    +0.000 N 
ATOM      5  N   UNL     1      -0.527  12.422  19.163  0.00  0.00    +0.000 NA
ATOM      6  C   UNL     1      -1.558  11.653  18.957  0.00  0.00    +0.000 C 
ATOM      7  C   UNL     1      -1.249  10.355  18.255  0.00  0.00    +0.000 C 
ATOM      8  C   UNL     1       0.250  10.491  18.032  0.00  0.00    +0.000 C 
ENDROOT
BRANCH   6   9
ATOM      9  C   UNL     1      -2.934  12.049  19.377  0.00  0.00    +0.000 A 
ATOM     10  C   UNL     1      -3.957  12.118  18.422  0.00  0.00    +0.000 A 
ATOM     11  C   UNL     1      -5.249  12.488  18.787  0.00  0.00    +0.000 A 
ATOM     12  C   UNL     1      -5.553  12.778  20.120  0.00  0.00    +0.000 A 
ATOM     13  C   UNL     1      -4.571  12.706  21.113  0.00  0.00    +0.000 A 
ATOM     14  C   UNL     1      -4.829  12.966  22.543  0.00  0.00    +0.000 A 
ATOM     15  C   UNL     1      -6.194  13.284  23.080  0.00  0.00    +0.000 C 
ATOM     16  C   UNL     1      -3.808  12.893  23.412  0.00  0.00    +0.000 A 
ATOM     17  C   UNL     1      -2.438  12.566  23.021  0.00  0.00    +0.000 A 
ATOM     18  O   UNL     1      -1.530  12.516  23.840  0.00  0.00    +0.000 OA
ATOM     19  O   UNL     1      -2.244  12.297  21.683  0.00  0.00    +0.000 OA
ATOM     20  C   UNL     1      -3.269  12.352  20.712  0.00  0.00    +0.000 A 
BRANCH  10  21
ATOM     21  O   UNL     1      -3.784  11.828  17.094  0.00  0.00    +0.000 OA
ATOM     22  H   UNL     1      -4.015  10.884  16.956  0.00  0.00    +0.000 HD
ENDBRANCH  10  21
ENDBRANCH   6   9
BRANCH   8  23
ATOM     23  C   UNL     1       1.017   9.329  18.631  0.00  0.00    +0.000 A 
ATOM     24  C   UNL     1       0.902   9.042  20.004  0.00  0.00    +0.000 A 
ATOM     25  C   UNL     1       1.602   7.976  20.577  0.00  0.00    +0.000 A 
ATOM     26  C   UNL     1       2.426   7.198  19.776  0.00  0.00    +0.000 A 
ATOM     27  C   UNL     1       2.557   7.480  18.421  0.00  0.00    +0.000 A 
ATOM     28  C   UNL     1       1.862   8.533  17.840  0.00  0.00    +0.000 A 
BRANCH  26  29
ATOM     29  O   UNL     1       3.130   6.137  20.275  0.00  0.00    +0.000 OA
ATOM     30  H   UNL     1       2.496   5.535  20.704  0.00  0.00    +0.000 HD
ENDBRANCH  26  29
BRANCH  27  31
ATOM     31  O   UNL     1       3.375   6.716  17.639  0.00  0.00    +0.000 OA
ATOM     32  H   UNL     1       3.489   5.887  18.144  0.00  0.00    +0.000 HD
ENDBRANCH  27  31
ENDBRANCH   8  23
TORSDOF 5
ENDMDL
MODEL 5
REMARK VINA RESULT:      -7.1      1.205      2.915
REMARK  Name = 
REMARK  7 active torsions:
REMARK  status: ('A' for Active; 'I' for Inactive)
REMARK    1  A    between atoms: C_1  and  C_2
REMARK    2  A    between atoms: C_6  and  C_7
REMARK    3  A    between atoms: C_8  and  O_9
REMARK    4  A    between atoms: C_13  and  C_14
REMARK    5  A    between atoms: C_21  and  C_22
REMARK    6  A    between atoms: C_25  and  O_26
REMARK    7  A    between atoms: C_27  and  O_28
REMARK                            x       y       z     vdW  Elec       q    Type
REMARK                         _______ _______ _______ _____ _____    ______ ____
ROOT
ATOM      1  C   UNL     1       1.002  14.352  19.574  0.00  0.00    +0.000 C 
ATOM      2  C   UNL     1       0.994  13.061  18.795  0.00  0.00    +0.000 C 
ATOM      3  O   UNL     1       1.981  12.691  18.159  0.00  0.00    +0.000 OA
ATOM      4  N   UNL     1      -0.188  12.342  18.863  0.00  0.00    +0.000 N 
ATOM      5  N   UNL     1      -1.335  12.864  19.404  0.00  0.00    +0.000 NA
ATOM      6  C   UNL     1      -2.296  12.024  19.143  0.00  0.00    +0.000 C 
ATOM      7  C   UNL     1      -1.874  10.798  18.373  0.00  0.00    +0.000 C 
ATOM      8  C   UNL     1      -0.391  11.072  18.174  0.00  0.00    +0.000 C 
ENDROOT
BRANCH   6   9
ATOM      9  C   UNL     1      -3.703  12.278  19.571  0.00  0.00    +0.000 A 
ATOM     10  C   UNL     1      -4.728  12.270  18.616  0.00  0.00    +0.000 A 
ATOM     11  C   UNL     1      -6.050  12.509  18.988  0.00  0.00    +0.000 A 
ATOM     12  C   UNL     1      -6.378  12.739  20.327  0.00  0.00    +0.000 A 
ATOM     13  C   UNL     1      -5.393  12.740  21.319  0.00  0.00    +0.000 A 
ATOM     14  C   UNL     1      -5.673  12.943  22.754  0.00  0.00    +0.000 A 
ATOM     15  C   UNL     1      -7.062  13.119  23.296  0.00  0.00    +0.000 C 
ATOM     16  C   UNL     1      -4.649  12.950  23.622  0.00  0.00    +0.000 A 
ATOM     17  C   UNL     1      -3.254  12.762  23.225  0.00  0.00    +0.000 A 
ATOM     18  O   UNL     1      -2.345  12.782  24.044  0.00  0.00    +0.000 OA
ATOM     19  O   UNL     1      -3.037  12.542  21.882  0.00  0.00    +0.000 OA
ATOM     20  C   UNL     1      -4.064  12.520  20.911  0.00  0.00    +0.000 A 
BRANCH  10  21
ATOM     21  O   UNL     1      -4.531  12.027  17.283  0.00  0.00    +0.000 OA
ATOM     22  H   UNL     1      -3.799  12.604  16.973  0.00  0.00    +0.000 HD
ENDBRANCH  10  21
ENDBRANCH   6   9
BRANCH   8  23
ATOM     23  C   UNL     1       0.468   9.947  18.715  0.00  0.00    +0.000 A 
ATOM     24  C   UNL     1       1.241   9.166  17.836  0.00  0.00    +0.000 A 
ATOM     25  C   UNL     1       2.040   8.122  18.315  0.00  0.00    +0.000 A 
ATOM     26  C   UNL     1       2.060   7.855  19.676  0.00  0.00    +0.000 A 
ATOM     27  C   UNL     1       1.291   8.612  20.553  0.00  0.00    +0.000 A 
ATOM     28  C   UNL     1       0.498   9.654  20.089  0.00  0.00    +0.000 A 
BRANCH  26  29
ATOM     29  O   UNL     1       2.826   6.853  20.206  0.00  0.00    +0.000 OA
ATOM     30  H   UNL     1       3.760   7.097  20.083  0.00  0.00    +0.000 HD
ENDBRANCH  26  29
BRANCH  27  31
ATOM     31  O   UNL     1       1.309   8.338  21.890  0.00  0.00    +0.000 OA
ATOM     32  H   UNL     1       0.779   7.522  21.978  0.00  0.00    +0.000 HD
ENDBRANCH  27  31
ENDBRANCH   8  23
TORSDOF 5
ENDMDL
MODEL 6
REMARK VINA RESULT:      -7.0      1.280      3.102
REMARK  Name = 
REMARK  7 active torsions:
REMARK  status: ('A' for Active; 'I' for Inactive)
REMARK    1  A    between atoms: C_1  and  C_2
REMARK    2  A    between atoms: C_6  and  C_7
REMARK    3  A    between atoms: C_8  and  O_9
REMARK    4  A    between atoms: C_13  and  C_14
REMARK    5  A    between atoms: C_21  and  C_22
REMARK    6  A    between atoms: C_25  and  O_26
REMARK    7  A    between atoms: C_27  and  O_28
REMARK                            x       y       z     vdW  Elec       q    Type
REMARK                         _______ _______ _______ _____ _____    ______ ____
ROOT
ATOM      1  C   UNL     1       0.961  14.194  20.250  0.00  0.00    +0.000 C 
ATOM      2  C   UNL     1       1.073  12.976  19.368  0.00  0.00    +0.000 C 
ATOM      3  O   UNL     1       2.148  12.646  18.867  0.00  0.00    +0.000 OA
ATOM      4  N   UNL     1      -0.106  12.276  19.182  0.00  0.00    +0.000 N 
ATOM      5  N   UNL     1      -1.323  12.768  19.577  0.00  0.00    +0.000 NA
ATOM      6  C   UNL     1      -2.233  11.971  19.093  0.00  0.00    +0.000 C 
ATOM      7  C   UNL     1      -1.697  10.810  18.294  0.00  0.00    +0.000 C 
ATOM      8  C   UNL     1      -0.200  11.074  18.360  0.00  0.00    +0.000 C 
ENDROOT
BRANCH   6   9
ATOM      9  C   UNL     1      -3.689  12.212  19.312  0.00  0.00    +0.000 A 
ATOM     10  C   UNL     1      -4.567  12.183  18.220  0.00  0.00    +0.000 A 
ATOM     11  C   UNL     1      -5.931  12.408  18.396  0.00  0.00    +0.000 A 
ATOM     12  C   UNL     1      -6.450  12.647  19.671  0.00  0.00    +0.000 A 
ATOM     13  C   UNL     1      -5.617  12.667  20.795  0.00  0.00    +0.000 A 
ATOM     14  C   UNL     1      -6.103  12.880  22.173  0.00  0.00    +0.000 A 
ATOM     15  C   UNL     1      -7.557  13.043  22.508  0.00  0.00    +0.000 C 
ATOM     16  C   UNL     1      -5.214  12.907  23.178  0.00  0.00    +0.000 A 
ATOM     17  C   UNL     1      -3.775  12.732  22.987  0.00  0.00    +0.000 A 
ATOM     18  O   UNL     1      -2.993  12.770  23.928  0.00  0.00    +0.000 OA
ATOM     19  O   UNL     1      -3.366  12.503  21.692  0.00  0.00    +0.000 OA
ATOM     20  C   UNL     1      -4.242  12.460  20.584  0.00  0.00    +0.000 A 
BRANCH  10  21
ATOM     21  O   UNL     1      -4.177  11.930  16.932  0.00  0.00    +0.000 OA
ATOM     22  H   UNL     1      -4.597  12.600  16.349  0.00  0.00    +0.000 HD
ENDBRANCH  10  21
ENDBRANCH   6   9
BRANCH   8  23
ATOM     23  C   UNL     1       0.557   9.891  18.928  0.00  0.00    +0.000 A 
ATOM     24  C   UNL     1       0.363   9.509  20.269  0.00  0.00    +0.000 A 
ATOM     25  C   UNL     1       1.053   8.421  20.814  0.00  0.00    +0.000 A 
ATOM     26  C   UNL     1       1.945   7.718  20.017  0.00  0.00    +0.000 A 
ATOM     27  C   UNL     1       2.153   8.093  18.695  0.00  0.00    +0.000 A 
ATOM     28  C   UNL     1       1.470   9.169  18.142  0.00  0.00    +0.000 A 
BRANCH  26  29
ATOM     29  O   UNL     1       2.643   6.640  20.489  0.00  0.00    +0.000 OA
ATOM     30  H   UNL     1       2.863   6.073  19.730  0.00  0.00    +0.000 HD
ENDBRANCH  26  29
BRANCH  27  31
ATOM     31  O   UNL     1       3.038   7.402  17.919  0.00  0.00    +0.000 OA
ATOM     32  H   UNL     1       3.378   6.698  18.505  0.00  0.00    +0.000 HD
ENDBRANCH  27  31
ENDBRANCH   8  23
TORSDOF 5
ENDMDL
MODEL 7
REMARK VINA RESULT:      -6.9      6.909     11.245
REMARK  Name = 
REMARK  7 active torsions:
REMARK  status: ('A' for Active; 'I' for Inactive)
REMARK    1  A    between atoms: C_1  and  C_2
REMARK    2  A    between atoms: C_6  and  C_7
REMARK    3  A    between atoms: C_8  and  O_9
REMARK    4  A    between atoms: C_13  and  C_14
REMARK    5  A    between atoms: C_21  and  C_22
REMARK    6  A    between atoms: C_25  and  O_26
REMARK    7  A    between atoms: C_27  and  O_28
REMARK                            x       y       z     vdW  Elec       q    Type
REMARK                         _______ _______ _______ _____ _____    ______ ____
ROOT
ATOM      1  C   UNL     1       3.155  14.493  20.260  0.00  0.00    +0.000 C 
ATOM      2  C   UNL     1       3.858  14.703  21.577  0.00  0.00    +0.000 C 
ATOM      3  O   UNL     1       3.228  14.811  22.630  0.00  0.00    +0.000 OA
ATOM      4  N   UNL     1       5.239  14.755  21.503  0.00  0.00    +0.000 N 
ATOM      5  N   UNL     1       5.909  14.836  20.309  0.00  0.00    +0.000 NA
ATOM      6  C   UNL     1       7.161  15.060  20.588  0.00  0.00    +0.000 C 
ATOM      7  C   UNL     1       7.476  15.151  22.060  0.00  0.00    +0.000 C 
ATOM      8  C   UNL     1       6.095  14.955  22.668  0.00  0.00    +0.000 C 
ENDROOT
BRANCH   6   9
ATOM      9  C   UNL     1       8.189  15.225  19.519  0.00  0.00    +0.000 A 
ATOM     10  C   UNL     1       8.367  16.477  18.917  0.00  0.00    +0.000 A 
ATOM     11  C   UNL     1       9.317  16.658  17.914  0.00  0.00    +0.000 A 
ATOM     12  C   UNL     1      10.126  15.594  17.506  0.00  0.00    +0.000 A 
ATOM     13  C   UNL     1      10.000  14.330  18.089  0.00  0.00    +0.000 A 
ATOM     14  C   UNL     1      10.842  13.172  17.730  0.00  0.00    +0.000 A 
ATOM     15  C   UNL     1      11.962  13.256  16.733  0.00  0.00    +0.000 C 
ATOM     16  C   UNL     1      10.621  11.994  18.334  0.00  0.00    +0.000 A 
ATOM     17  C   UNL     1       9.582  11.787  19.342  0.00  0.00    +0.000 A 
ATOM     18  O   UNL     1       9.403  10.696  19.867  0.00  0.00    +0.000 OA
ATOM     19  O   UNL     1       8.839  12.900  19.674  0.00  0.00    +0.000 OA
ATOM     20  C   UNL     1       9.016  14.170  19.082  0.00  0.00    +0.000 A 
BRANCH  10  21
ATOM     21  O   UNL     1       7.653  17.597  19.255  0.00  0.00    +0.000 OA
ATOM     22  H   UNL     1       7.749  17.739  20.222  0.00  0.00    +0.000 HD
ENDBRANCH  10  21
ENDBRANCH   6   9
BRANCH   8  23
ATOM     23  C   UNL     1       6.068  13.797  23.645  0.00  0.00    +0.000 A 
ATOM     24  C   UNL     1       6.475  12.515  23.230  0.00  0.00    +0.000 A 
ATOM     25  C   UNL     1       6.456  11.433  24.115  0.00  0.00    +0.000 A 
ATOM     26  C   UNL     1       6.021  11.632  25.418  0.00  0.00    +0.000 A 
ATOM     27  C   UNL     1       5.606  12.891  25.836  0.00  0.00    +0.000 A 
ATOM     28  C   UNL     1       5.625  13.974  24.967  0.00  0.00    +0.000 A 
BRANCH  26  29
ATOM     29  O   UNL     1       5.988  10.615  26.333  0.00  0.00    +0.000 OA
ATOM     30  H   UNL     1       5.490  10.929  27.108  0.00  0.00    +0.000 HD
ENDBRANCH  26  29
BRANCH  27  31
ATOM     31  O   UNL     1       5.172  13.078  27.117  0.00  0.00    +0.000 OA
ATOM     32  H   UNL     1       5.851  13.651  27.522  0.00  0.00    +0.000 HD
ENDBRANCH  27  31
ENDBRANCH   8  23
TORSDOF 5
ENDMDL
MODEL 8
REMARK VINA RESULT:      -6.9      3.790      8.694
REMARK  Name = 
REMARK  7 active torsions:
REMARK  status: ('A' for Active; 'I' for Inactive)
REMARK    1  A    between atoms: C_1  and  C_2
REMARK    2  A    between atoms: C_6  and  C_7
REMARK    3  A    between atoms: C_8  and  O_9
REMARK    4  A    between atoms: C_13  and  C_14
REMARK    5  A    between atoms: C_21  and  C_22
REMARK    6  A    between atoms: C_25  and  O_26
REMARK    7  A    between atoms: C_27  and  O_28
REMARK                            x       y       z     vdW  Elec       q    Type
REMARK                         _______ _______ _______ _____ _____    ______ ____
ROOT
ATOM      1  C   UNL     1       1.168   8.812  22.499  0.00  0.00    +0.000 C 
ATOM      2  C   UNL     1       0.585   9.499  21.290  0.00  0.00    +0.000 C 
ATOM      3  O   UNL     1      -0.301  10.347  21.401  0.00  0.00    +0.000 OA
ATOM      4  N   UNL     1       1.124   9.108  20.076  0.00  0.00    +0.000 N 
ATOM      5  N   UNL     1       1.958   8.026  19.956  0.00  0.00    +0.000 NA
ATOM      6  C   UNL     1       2.129   7.815  18.683  0.00  0.00    +0.000 C 
ATOM      7  C   UNL     1       1.402   8.778  17.778  0.00  0.00    +0.000 C 
ATOM      8  C   UNL     1       0.688   9.655  18.795  0.00  0.00    +0.000 C 
ENDROOT
BRANCH   6   9
ATOM      9  C   UNL     1       2.974   6.694  18.176  0.00  0.00    +0.000 A 
ATOM     10  C   UNL     1       4.101   6.975  17.393  0.00  0.00    +0.000 A 
ATOM     11  C   UNL     1       4.903   5.947  16.904  0.00  0.00    +0.000 A 
ATOM     12  C   UNL     1       4.609   4.614  17.206  0.00  0.00    +0.000 A 
ATOM     13  C   UNL     1       3.506   4.284  17.999  0.00  0.00    +0.000 A 
ATOM     14  C   UNL     1       3.156   2.902  18.383  0.00  0.00    +0.000 A 
ATOM     15  C   UNL     1       3.989   1.713  18.000  0.00  0.00    +0.000 C 
ATOM     16  C   UNL     1       2.060   2.692  19.128  0.00  0.00    +0.000 A 
ATOM     17  C   UNL     1       1.181   3.766  19.590  0.00  0.00    +0.000 A 
ATOM     18  O   UNL     1       0.184   3.536  20.262  0.00  0.00    +0.000 OA
ATOM     19  O   UNL     1       1.559   5.043  19.238  0.00  0.00    +0.000 OA
ATOM     20  C   UNL     1       2.699   5.341  18.458  0.00  0.00    +0.000 A 
BRANCH  10  21
ATOM     21  O   UNL     1       4.503   8.241  17.058  0.00  0.00    +0.000 OA
ATOM     22  H   UNL     1       5.134   8.172  16.309  0.00  0.00    +0.000 HD
ENDBRANCH  10  21
ENDBRANCH   6   9
BRANCH   8  23
ATOM     23  C   UNL     1       1.029  11.120  18.616  0.00  0.00    +0.000 A 
ATOM     24  C   UNL     1       2.360  11.509  18.375  0.00  0.00    +0.000 A 
ATOM     25  C   UNL     1       2.697  12.856  18.208  0.00  0.00    +0.000 A 
ATOM     26  C   UNL     1       1.700  13.818  18.288  0.00  0.00    +0.000 A 
ATOM     27  C   UNL     1       0.384  13.446  18.537  0.00  0.00    +0.000 A 
ATOM     28  C   UNL     1       0.037  12.112  18.700  0.00  0.00    +0.000 A 
BRANCH  26  29
ATOM     29  O   UNL     1       1.964  15.150  18.125  0.00  0.00    +0.000 OA
ATOM     30  H   UNL     1       2.880  15.309  18.415  0.00  0.00    +0.000 HD
ENDBRANCH  26  29
BRANCH  27  31
ATOM     31  O   UNL     1      -0.591  14.398  18.623  0.00  0.00    +0.000 OA
ATOM     32  H   UNL     1      -1.022  14.228  19.483  0.00  0.00    +0.000 HD
ENDBRANCH  27  31
ENDBRANCH   8  23
TORSDOF 5
ENDMDL
MODEL 9
REMARK VINA RESULT:      -6.8      3.845      8.688
REMARK  Name = 
REMARK  7 active torsions:
REMARK  status: ('A' for Active; 'I' for Inactive)
REMARK    1  A    between atoms: C_1  and  C_2
REMARK    2  A    between atoms: C_6  and  C_7
REMARK    3  A    between atoms: C_8  and  O_9
REMARK    4  A    between atoms: C_13  and  C_14
REMARK    5  A    between atoms: C_21  and  C_22
REMARK    6  A    between atoms: C_25  and  O_26
REMARK    7  A    between atoms: C_27  and  O_28
REMARK                            x       y       z     vdW  Elec       q    Type
REMARK                         _______ _______ _______ _____ _____    ______ ____
ROOT
ATOM      1  C   UNL     1       1.206   8.819  22.508  0.00  0.00    +0.000 C 
ATOM      2  C   UNL     1       0.624   9.516  21.304  0.00  0.00    +0.000 C 
ATOM      3  O   UNL     1      -0.255  10.370  21.422  0.00  0.00    +0.000 OA
ATOM      4  N   UNL     1       1.156   9.128  20.086  0.00  0.00    +0.000 N 
ATOM      5  N   UNL     1       1.982   8.040  19.959  0.00  0.00    +0.000 NA
ATOM      6  C   UNL     1       2.148   7.835  18.684  0.00  0.00    +0.000 C 
ATOM      7  C   UNL     1       1.425   8.807  17.786  0.00  0.00    +0.000 C 
ATOM      8  C   UNL     1       0.721   9.684  18.810  0.00  0.00    +0.000 C 
ENDROOT
BRANCH   6   9
ATOM      9  C   UNL     1       2.983   6.710  18.168  0.00  0.00    +0.000 A 
ATOM     10  C   UNL     1       4.104   6.987  17.375  0.00  0.00    +0.000 A 
ATOM     11  C   UNL     1       4.897   5.955  16.878  0.00  0.00    +0.000 A 
ATOM     12  C   UNL     1       4.600   4.624  17.182  0.00  0.00    +0.000 A 
ATOM     13  C   UNL     1       3.502   4.298  17.984  0.00  0.00    +0.000 A 
ATOM     14  C   UNL     1       3.149   2.917  18.371  0.00  0.00    +0.000 A 
ATOM     15  C   UNL     1       3.974   1.725  17.979  0.00  0.00    +0.000 C 
ATOM     16  C   UNL     1       2.059   2.712  19.126  0.00  0.00    +0.000 A 
ATOM     17  C   UNL     1       1.189   3.789  19.596  0.00  0.00    +0.000 A 
ATOM     18  O   UNL     1       0.197   3.564  20.277  0.00  0.00    +0.000 OA
ATOM     19  O   UNL     1       1.571   5.065  19.242  0.00  0.00    +0.000 OA
ATOM     20  C   UNL     1       2.705   5.358  18.452  0.00  0.00    +0.000 A 
BRANCH  10  21
ATOM     21  O   UNL     1       4.509   8.251  17.037  0.00  0.00    +0.000 OA
ATOM     22  H   UNL     1       4.305   8.393  16.088  0.00  0.00    +0.000 HD
ENDBRANCH  10  21
ENDBRANCH   6   9
BRANCH   8  23
ATOM     23  C   UNL     1       1.073  11.148  18.637  0.00  0.00    +0.000 A 
ATOM     24  C   UNL     1       0.087  12.136  18.821  0.00  0.00    +0.000 A 
ATOM     25  C   UNL     1       0.391  13.492  18.666  0.00  0.00    +0.000 A 
ATOM     26  C   UNL     1       1.682  13.861  18.316  0.00  0.00    +0.000 A 
ATOM     27  C   UNL     1       2.660  12.893  18.120  0.00  0.00    +0.000 A 
ATOM     28  C   UNL     1       2.372  11.544  18.277  0.00  0.00    +0.000 A 
BRANCH  26  29
ATOM     29  O   UNL     1       2.043  15.171  18.157  0.00  0.00    +0.000 OA
ATOM     30  H   UNL     1       1.715  15.665  18.929  0.00  0.00    +0.000 HD
ENDBRANCH  26  29
BRANCH  27  31
ATOM     31  O   UNL     1       3.927  13.263  17.768  0.00  0.00    +0.000 OA
ATOM     32  H   UNL     1       4.336  12.441  17.435  0.00  0.00    +0.000 HD
ENDBRANCH  27  31
ENDBRANCH   8  23
TORSDOF 5
ENDMDL
