MODEL 1
REMARK VINA RESULT:      -6.5      0.000      0.000
REMARK  Name = 
REMARK  14 active torsions:
REMARK  status: ('A' for Active; 'I' for Inactive)
REMARK    1  A    between atoms: C_1  and  C_2
REMARK    2  A    between atoms: C_2  and  C_3
REMARK    3  A    between atoms: C_4  and  C_5
REMARK    4  A    between atoms: C_5  and  C_6
REMARK    5  A    between atoms: C_6  and  C_7
REMARK    6  A    between atoms: C_6  and  C_8
REMARK    7  A    between atoms: C_8  and  C_9
REMARK    8  A    between atoms: C_9  and  C_10
REMARK    9  A    between atoms: C_10  and  C_11
REMARK   10  A    between atoms: C_11  and  C_12
REMARK   11  A    between atoms: C_11  and  C_13
REMARK   12  A    between atoms: C_14  and  C_15
REMARK   13  A    between atoms: N_17  and  C_18
REMARK   14  A    between atoms: N_17  and  C_19
REMARK                            x       y       z     vdW  Elec       q    Type
REMARK                         _______ _______ _______ _____ _____    ______ ____
ROOT
ATOM      1  C   UNL     1       3.600   6.069  17.483  0.00  0.00    +0.000 C 
ATOM      2  C   UNL     1       4.769   5.537  17.093  0.00  0.00    +0.000 C 
ENDROOT
BRANCH   1   4
ATOM      3  C   UNL     1       2.560   6.570  19.757  0.00  0.00    +0.000 C 
ATOM      4  C   UNL     1       2.817   5.607  18.621  0.00  0.00    +0.000 C 
ATOM      5  C   UNL     1       2.388   4.328  18.650  0.00  0.00    +0.000 C 
BRANCH   5   6
ATOM      6  C   UNL     1       1.650   3.767  19.810  0.00  0.00    +0.000 C 
ATOM      7  O   UNL     1       0.453   4.031  19.943  0.00  0.00    +0.000 OA
ATOM      8  N   UNL     1       2.360   2.983  20.701  0.00  0.00    +0.000 N 
ATOM      9  C   UNL     1       3.759   2.594  20.579  0.00  0.00    +0.000 C 
ATOM     10  C   UNL     1       1.654   2.421  21.841  0.00  0.00    +0.000 C 
ENDBRANCH   5   6
ENDBRANCH   1   4
BRANCH   2  11
ATOM     11  C   UNL     1       5.530   5.962  15.876  0.00  0.00    +0.000 C 
BRANCH  11  12
ATOM     12  C   UNL     1       6.840   5.157  15.704  0.00  0.00    +0.000 C 
ATOM     13  C   UNL     1       7.318   4.575  17.042  0.00  0.00    +0.000 C 
BRANCH  12  14
ATOM     14  C   UNL     1       6.685   4.029  14.661  0.00  0.00    +0.000 C 
BRANCH  14  15
ATOM     15  C   UNL     1       6.336   4.579  13.275  0.00  0.00    +0.000 C 
BRANCH  15  16
ATOM     16  C   UNL     1       6.608   3.586  12.145  0.00  0.00    +0.000 C 
BRANCH  16  17
ATOM     17  C   UNL     1       5.447   2.586  11.963  0.00  0.00    +0.000 C 
ATOM     18  C   UNL     1       4.255   3.200  11.224  0.00  0.00    +0.000 C 
ATOM     19  C   UNL     1       5.937   1.347  11.215  0.00  0.00    +0.000 C 
ENDBRANCH  16  17
ENDBRANCH  15  16
ENDBRANCH  14  15
ENDBRANCH  12  14
ENDBRANCH  11  12
ENDBRANCH   2  11
TORSDOF 8
ENDMDL
MODEL 2
REMARK VINA RESULT:      -6.4      1.515      2.677
REMARK  Name = 
REMARK  14 active torsions:
REMARK  status: ('A' for Active; 'I' for Inactive)
REMARK    1  A    between atoms: C_1  and  C_2
REMARK    2  A    between atoms: C_2  and  C_3
REMARK    3  A    between atoms: C_4  and  C_5
REMARK    4  A    between atoms: C_5  and  C_6
REMARK    5  A    between atoms: C_6  and  C_7
REMARK    6  A    between atoms: C_6  and  C_8
REMARK    7  A    between atoms: C_8  and  C_9
REMARK    8  A    between atoms: C_9  and  C_10
REMARK    9  A    between atoms: C_10  and  C_11
REMARK   10  A    between atoms: C_11  and  C_12
REMARK   11  A    between atoms: C_11  and  C_13
REMARK   12  A    between atoms: C_14  and  C_15
REMARK   13  A    between atoms: N_17  and  C_18
REMARK   14  A    between atoms: N_17  and  C_19
REMARK                            x       y       z     vdW  Elec       q    Type
REMARK                         _______ _______ _______ _____ _____    ______ ____
ROOT
ATOM      1  C   UNL     1       3.836   6.027  17.407  0.00  0.00    +0.000 C 
ATOM      2  C   UNL     1       4.800   6.844  17.859  0.00  0.00    +0.000 C 
ENDROOT
BRANCH   1   4
ATOM      3  C   UNL     1       1.735   4.597  17.611  0.00  0.00    +0.000 C 
ATOM      4  C   UNL     1       2.921   5.275  18.256  0.00  0.00    +0.000 C 
ATOM      5  C   UNL     1       3.131   5.246  19.588  0.00  0.00    +0.000 C 
BRANCH   5   6
ATOM      6  C   UNL     1       2.199   4.562  20.522  0.00  0.00    +0.000 C 
ATOM      7  O   UNL     1       1.210   5.171  20.934  0.00  0.00    +0.000 OA
ATOM      8  N   UNL     1       2.508   3.268  20.899  0.00  0.00    +0.000 N 
ATOM      9  C   UNL     1       3.632   2.476  20.416  0.00  0.00    +0.000 C 
ATOM     10  C   UNL     1       1.606   2.580  21.809  0.00  0.00    +0.000 C 
ENDBRANCH   5   6
ENDBRANCH   1   4
BRANCH   2  11
ATOM     11  C   UNL     1       5.790   7.551  16.987  0.00  0.00    +0.000 C 
BRANCH  11  12
ATOM     12  C   UNL     1       7.235   7.055  17.234  0.00  0.00    +0.000 C 
ATOM     13  C   UNL     1       8.076   8.117  17.954  0.00  0.00    +0.000 C 
BRANCH  12  14
ATOM     14  C   UNL     1       7.255   5.732  18.031  0.00  0.00    +0.000 C 
BRANCH  14  15
ATOM     15  C   UNL     1       7.438   4.518  17.115  0.00  0.00    +0.000 C 
BRANCH  15  16
ATOM     16  C   UNL     1       7.358   4.865  15.629  0.00  0.00    +0.000 C 
BRANCH  16  17
ATOM     17  C   UNL     1       6.018   4.424  15.004  0.00  0.00    +0.000 C 
ATOM     18  C   UNL     1       6.184   3.892  13.578  0.00  0.00    +0.000 C 
ATOM     19  C   UNL     1       5.357   3.361  15.880  0.00  0.00    +0.000 C 
ENDBRANCH  16  17
ENDBRANCH  15  16
ENDBRANCH  14  15
ENDBRANCH  12  14
ENDBRANCH  11  12
ENDBRANCH   2  11
TORSDOF 8
ENDMDL
MODEL 3
REMARK VINA RESULT:      -6.3      4.496      6.820
REMARK  Name = 
REMARK  14 active torsions:
REMARK  status: ('A' for Active; 'I' for Inactive)
REMARK    1  A    between atoms: C_1  and  C_2
REMARK    2  A    between atoms: C_2  and  C_3
REMARK    3  A    between atoms: C_4  and  C_5
REMARK    4  A    between atoms: C_5  and  C_6
REMARK    5  A    between atoms: C_6  and  C_7
REMARK    6  A    between atoms: C_6  and  C_8
REMARK    7  A    between atoms: C_8  and  C_9
REMARK    8  A    between atoms: C_9  and  C_10
REMARK    9  A    between atoms: C_10  and  C_11
REMARK   10  A    between atoms: C_11  and  C_12
REMARK   11  A    between atoms: C_11  and  C_13
REMARK   12  A    between atoms: C_14  and  C_15
REMARK   13  A    between atoms: N_17  and  C_18
REMARK   14  A    between atoms: N_17  and  C_19
REMARK                            x       y       z     vdW  Elec       q    Type
REMARK                         _______ _______ _______ _____ _____    ______ ____
ROOT
ATOM      1  C   UNL     1       2.715   7.334  17.845  0.00  0.00    +0.000 C 
ATOM      2  C   UNL     1       3.226   6.201  18.351  0.00  0.00    +0.000 C 
ENDROOT
BRANCH   1   4
ATOM      3  C   UNL     1       1.729   8.069  20.079  0.00  0.00    +0.000 C 
ATOM      4  C   UNL     1       2.024   8.353  18.624  0.00  0.00    +0.000 C 
ATOM      5  C   UNL     1       1.627   9.490  18.018  0.00  0.00    +0.000 C 
BRANCH   5   6
ATOM      6  C   UNL     1       0.852  10.539  18.731  0.00  0.00    +0.000 C 
ATOM      7  O   UNL     1       1.435  11.277  19.527  0.00  0.00    +0.000 OA
ATOM      8  N   UNL     1      -0.505  10.617  18.472  0.00  0.00    +0.000 N 
ATOM      9  C   UNL     1      -1.246   9.810  17.512  0.00  0.00    +0.000 C 
ATOM     10  C   UNL     1      -1.280  11.640  19.157  0.00  0.00    +0.000 C 
ENDBRANCH   5   6
ENDBRANCH   1   4
BRANCH   2  11
ATOM     11  C   UNL     1       3.863   5.120  17.535  0.00  0.00    +0.000 C 
BRANCH  11  12
ATOM     12  C   UNL     1       4.968   4.377  18.324  0.00  0.00    +0.000 C 
ATOM     13  C   UNL     1       5.858   5.358  19.099  0.00  0.00    +0.000 C 
BRANCH  12  14
ATOM     14  C   UNL     1       4.372   3.327  19.288  0.00  0.00    +0.000 C 
BRANCH  14  15
ATOM     15  C   UNL     1       3.376   2.405  18.580  0.00  0.00    +0.000 C 
BRANCH  15  16
ATOM     16  C   UNL     1       2.005   2.365  19.255  0.00  0.00    +0.000 C 
BRANCH  16  17
ATOM     17  C   UNL     1       1.939   3.294  20.485  0.00  0.00    +0.000 C 
ATOM     18  C   UNL     1       0.888   4.396  20.331  0.00  0.00    +0.000 C 
ATOM     19  C   UNL     1       1.652   2.476  21.743  0.00  0.00    +0.000 C 
ENDBRANCH  16  17
ENDBRANCH  15  16
ENDBRANCH  14  15
ENDBRANCH  12  14
ENDBRANCH  11  12
ENDBRANCH   2  11
TORSDOF 8
ENDMDL
MODEL 4
REMARK VINA RESULT:      -6.3      3.337      7.206
REMARK  Name = 
REMARK  14 active torsions:
REMARK  status: ('A' for Active; 'I' for Inactive)
REMARK    1  A    between atoms: C_1  and  C_2
REMARK    2  A    between atoms: C_2  and  C_3
REMARK    3  A    between atoms: C_4  and  C_5
REMARK    4  A    between atoms: C_5  and  C_6
REMARK    5  A    between atoms: C_6  and  C_7
REMARK    6  A    between atoms: C_6  and  C_8
REMARK    7  A    between atoms: C_8  and  C_9
REMARK    8  A    between atoms: C_9  and  C_10
REMARK    9  A    between atoms: C_10  and  C_11
REMARK   10  A    between atoms: C_11  and  C_12
REMARK   11  A    between atoms: C_11  and  C_13
REMARK   12  A    between atoms: C_14  and  C_15
REMARK   13  A    between atoms: N_17  and  C_18
REMARK   14  A    between atoms: N_17  and  C_19
REMARK                            x       y       z     vdW  Elec       q    Type
REMARK                         _______ _______ _______ _____ _____    ______ ____
ROOT
ATOM      1  C   UNL     1       3.260   3.439  17.318  0.00  0.00    +0.000 C 
ATOM      2  C   UNL     1       3.301   2.692  18.432  0.00  0.00    +0.000 C 
ENDROOT
BRANCH   1   4
ATOM      3  C   UNL     1       5.424   3.669  15.988  0.00  0.00    +0.000 C 
ATOM      4  C   UNL     1       4.347   4.289  16.849  0.00  0.00    +0.000 C 
ATOM      5  C   UNL     1       4.386   5.581  17.232  0.00  0.00    +0.000 C 
BRANCH   5   6
ATOM      6  C   UNL     1       5.502   6.486  16.854  0.00  0.00    +0.000 C 
ATOM      7  O   UNL     1       5.403   7.163  15.829  0.00  0.00    +0.000 OA
ATOM      8  N   UNL     1       6.616   6.504  17.674  0.00  0.00    +0.000 N 
ATOM      9  C   UNL     1       6.778   5.767  18.920  0.00  0.00    +0.000 C 
ATOM     10  C   UNL     1       7.717   7.386  17.323  0.00  0.00    +0.000 C 
ENDBRANCH   5   6
ENDBRANCH   1   4
BRANCH   2  11
ATOM     11  C   UNL     1       2.153   1.885  18.954  0.00  0.00    +0.000 C 
BRANCH  11  12
ATOM     12  C   UNL     1       1.367   2.642  20.050  0.00  0.00    +0.000 C 
ATOM     13  C   UNL     1       2.145   2.680  21.372  0.00  0.00    +0.000 C 
BRANCH  12  14
ATOM     14  C   UNL     1       1.005   4.076  19.606  0.00  0.00    +0.000 C 
BRANCH  14  15
ATOM     15  C   UNL     1       1.495   5.124  20.610  0.00  0.00    +0.000 C 
BRANCH  15  16
ATOM     16  C   UNL     1       2.657   5.966  20.085  0.00  0.00    +0.000 C 
BRANCH  16  17
ATOM     17  C   UNL     1       2.273   7.454  19.939  0.00  0.00    +0.000 C 
ATOM     18  C   UNL     1       1.862   7.815  18.509  0.00  0.00    +0.000 C 
ATOM     19  C   UNL     1       1.142   7.798  20.906  0.00  0.00    +0.000 C 
ENDBRANCH  16  17
ENDBRANCH  15  16
ENDBRANCH  14  15
ENDBRANCH  12  14
ENDBRANCH  11  12
ENDBRANCH   2  11
TORSDOF 8
ENDMDL
MODEL 5
REMARK VINA RESULT:      -6.3      6.789      8.434
REMARK  Name = 
REMARK  14 active torsions:
REMARK  status: ('A' for Active; 'I' for Inactive)
REMARK    1  A    between atoms: C_1  and  C_2
REMARK    2  A    between atoms: C_2  and  C_3
REMARK    3  A    between atoms: C_4  and  C_5
REMARK    4  A    between atoms: C_5  and  C_6
REMARK    5  A    between atoms: C_6  and  C_7
REMARK    6  A    between atoms: C_6  and  C_8
REMARK    7  A    between atoms: C_8  and  C_9
REMARK    8  A    between atoms: C_9  and  C_10
REMARK    9  A    between atoms: C_10  and  C_11
REMARK   10  A    between atoms: C_11  and  C_12
REMARK   11  A    between atoms: C_11  and  C_13
REMARK   12  A    between atoms: C_14  and  C_15
REMARK   13  A    between atoms: N_17  and  C_18
REMARK   14  A    between atoms: N_17  and  C_19
REMARK                            x       y       z     vdW  Elec       q    Type
REMARK                         _______ _______ _______ _____ _____    ______ ____
ROOT
ATOM      1  C   UNL     1       8.176   9.708  18.360  0.00  0.00    +0.000 C 
ATOM      2  C   UNL     1       8.274   8.471  17.848  0.00  0.00    +0.000 C 
ENDROOT
BRANCH   1   4
ATOM      3  C   UNL     1       9.458  10.676  20.341  0.00  0.00    +0.000 C 
ATOM      4  C   UNL     1       9.301  10.494  18.849  0.00  0.00    +0.000 C 
ATOM      5  C   UNL     1      10.136  11.073  17.961  0.00  0.00    +0.000 C 
BRANCH   5   6
ATOM      6  C   UNL     1      11.259  11.949  18.385  0.00  0.00    +0.000 C 
ATOM      7  O   UNL     1      12.277  11.435  18.850  0.00  0.00    +0.000 OA
ATOM      8  N   UNL     1      11.088  13.315  18.252  0.00  0.00    +0.000 N 
ATOM      9  C   UNL     1       9.933  13.986  17.669  0.00  0.00    +0.000 C 
ATOM     10  C   UNL     1      12.178  14.189  18.658  0.00  0.00    +0.000 C 
ENDBRANCH   5   6
ENDBRANCH   1   4
BRANCH   2  11
ATOM     11  C   UNL     1       7.107   7.635  17.422  0.00  0.00    +0.000 C 
BRANCH  11  12
ATOM     12  C   UNL     1       7.392   6.123  17.584  0.00  0.00    +0.000 C 
ATOM     13  C   UNL     1       7.888   5.796  18.999  0.00  0.00    +0.000 C 
BRANCH  12  14
ATOM     14  C   UNL     1       6.150   5.269  17.247  0.00  0.00    +0.000 C 
BRANCH  14  15
ATOM     15  C   UNL     1       6.419   4.305  16.088  0.00  0.00    +0.000 C 
BRANCH  15  16
ATOM     16  C   UNL     1       6.111   4.907  14.718  0.00  0.00    +0.000 C 
BRANCH  16  17
ATOM     17  C   UNL     1       6.904   4.213  13.590  0.00  0.00    +0.000 C 
ATOM     18  C   UNL     1       6.002   3.416  12.645  0.00  0.00    +0.000 C 
ATOM     19  C   UNL     1       7.699   5.249  12.797  0.00  0.00    +0.000 C 
ENDBRANCH  16  17
ENDBRANCH  15  16
ENDBRANCH  14  15
ENDBRANCH  12  14
ENDBRANCH  11  12
ENDBRANCH   2  11
TORSDOF 8
ENDMDL
MODEL 6
REMARK VINA RESULT:      -6.2      3.244      7.684
REMARK  Name = 
REMARK  14 active torsions:
REMARK  status: ('A' for Active; 'I' for Inactive)
REMARK    1  A    between atoms: C_1  and  C_2
REMARK    2  A    between atoms: C_2  and  C_3
REMARK    3  A    between atoms: C_4  and  C_5
REMARK    4  A    between atoms: C_5  and  C_6
REMARK    5  A    between atoms: C_6  and  C_7
REMARK    6  A    between atoms: C_6  and  C_8
REMARK    7  A    between atoms: C_8  and  C_9
REMARK    8  A    between atoms: C_9  and  C_10
REMARK    9  A    between atoms: C_10  and  C_11
REMARK   10  A    between atoms: C_11  and  C_12
REMARK   11  A    between atoms: C_11  and  C_13
REMARK   12  A    between atoms: C_14  and  C_15
REMARK   13  A    between atoms: N_17  and  C_18
REMARK   14  A    between atoms: N_17  and  C_19
REMARK                            x       y       z     vdW  Elec       q    Type
REMARK                         _______ _______ _______ _____ _____    ______ ____
ROOT
ATOM      1  C   UNL     1       4.555   4.445  17.308  0.00  0.00    +0.000 C 
ATOM      2  C   UNL     1       5.093   3.916  18.418  0.00  0.00    +0.000 C 
ENDROOT
BRANCH   1   4
ATOM      3  C   UNL     1       5.084   6.460  15.838  0.00  0.00    +0.000 C 
ATOM      4  C   UNL     1       5.319   5.013  16.205  0.00  0.00    +0.000 C 
ATOM      5  C   UNL     1       6.171   4.225  15.519  0.00  0.00    +0.000 C 
BRANCH   5   6
ATOM      6  C   UNL     1       6.926   4.716  14.337  0.00  0.00    +0.000 C 
ATOM      7  O   UNL     1       7.844   5.521  14.505  0.00  0.00    +0.000 OA
ATOM      8  N   UNL     1       6.539   4.251  13.093  0.00  0.00    +0.000 N 
ATOM      9  C   UNL     1       5.498   3.267  12.828  0.00  0.00    +0.000 C 
ATOM     10  C   UNL     1       7.269   4.717  11.925  0.00  0.00    +0.000 C 
ENDBRANCH   5   6
ENDBRANCH   1   4
BRANCH   2  11
ATOM     11  C   UNL     1       4.304   3.407  19.584  0.00  0.00    +0.000 C 
BRANCH  11  12
ATOM     12  C   UNL     1       2.866   3.007  19.177  0.00  0.00    +0.000 C 
ATOM     13  C   UNL     1       2.819   1.576  18.624  0.00  0.00    +0.000 C 
BRANCH  12  14
ATOM     14  C   UNL     1       1.877   3.153  20.355  0.00  0.00    +0.000 C 
BRANCH  14  15
ATOM     15  C   UNL     1       1.954   4.543  20.993  0.00  0.00    +0.000 C 
BRANCH  15  16
ATOM     16  C   UNL     1       1.306   5.634  20.142  0.00  0.00    +0.000 C 
BRANCH  16  17
ATOM     17  C   UNL     1       2.234   6.855  19.964  0.00  0.00    +0.000 C 
ATOM     18  C   UNL     1       2.496   7.182  18.492  0.00  0.00    +0.000 C 
ATOM     19  C   UNL     1       1.635   8.073  20.666  0.00  0.00    +0.000 C 
ENDBRANCH  16  17
ENDBRANCH  15  16
ENDBRANCH  14  15
ENDBRANCH  12  14
ENDBRANCH  11  12
ENDBRANCH   2  11
TORSDOF 8
ENDMDL
MODEL 7
REMARK VINA RESULT:      -6.2      4.331      6.607
REMARK  Name = 
REMARK  14 active torsions:
REMARK  status: ('A' for Active; 'I' for Inactive)
REMARK    1  A    between atoms: C_1  and  C_2
REMARK    2  A    between atoms: C_2  and  C_3
REMARK    3  A    between atoms: C_4  and  C_5
REMARK    4  A    between atoms: C_5  and  C_6
REMARK    5  A    between atoms: C_6  and  C_7
REMARK    6  A    between atoms: C_6  and  C_8
REMARK    7  A    between atoms: C_8  and  C_9
REMARK    8  A    between atoms: C_9  and  C_10
REMARK    9  A    between atoms: C_10  and  C_11
REMARK   10  A    between atoms: C_11  and  C_12
REMARK   11  A    between atoms: C_11  and  C_13
REMARK   12  A    between atoms: C_14  and  C_15
REMARK   13  A    between atoms: N_17  and  C_18
REMARK   14  A    between atoms: N_17  and  C_19
REMARK                            x       y       z     vdW  Elec       q    Type
REMARK                         _______ _______ _______ _____ _____    ______ ____
ROOT
ATOM      1  C   UNL     1       2.754   7.705  17.595  0.00  0.00    +0.000 C 
ATOM      2  C   UNL     1       3.667   6.802  17.985  0.00  0.00    +0.000 C 
ENDROOT
BRANCH   1   4
ATOM      3  C   UNL     1       1.727   8.069  19.901  0.00  0.00    +0.000 C 
ATOM      4  C   UNL     1       1.998   8.563  18.499  0.00  0.00    +0.000 C 
ATOM      5  C   UNL     1       1.524   9.741  18.046  0.00  0.00    +0.000 C 
BRANCH   5   6
ATOM      6  C   UNL     1       0.683  10.632  18.887  0.00  0.00    +0.000 C 
ATOM      7  O   UNL     1       1.218  11.295  19.777  0.00  0.00    +0.000 OA
ATOM      8  N   UNL     1      -0.676  10.653  18.633  0.00  0.00    +0.000 N 
ATOM      9  C   UNL     1      -1.365   9.932  17.571  0.00  0.00    +0.000 C 
ATOM     10  C   UNL     1      -1.516  11.522  19.444  0.00  0.00    +0.000 C 
ENDBRANCH   5   6
ENDBRANCH   1   4
BRANCH   2  11
ATOM     11  C   UNL     1       4.382   5.866  17.060  0.00  0.00    +0.000 C 
BRANCH  11  12
ATOM     12  C   UNL     1       5.028   4.685  17.822  0.00  0.00    +0.000 C 
ATOM     13  C   UNL     1       5.521   5.116  19.210  0.00  0.00    +0.000 C 
BRANCH  12  14
ATOM     14  C   UNL     1       4.058   3.490  17.952  0.00  0.00    +0.000 C 
BRANCH  14  15
ATOM     15  C   UNL     1       4.234   2.755  19.284  0.00  0.00    +0.000 C 
BRANCH  15  16
ATOM     16  C   UNL     1       2.954   2.702  20.117  0.00  0.00    +0.000 C 
BRANCH  16  17
ATOM     17  C   UNL     1       1.787   3.443  19.432  0.00  0.00    +0.000 C 
ATOM     18  C   UNL     1       0.717   2.486  18.900  0.00  0.00    +0.000 C 
ATOM     19  C   UNL     1       1.155   4.436  20.406  0.00  0.00    +0.000 C 
ENDBRANCH  16  17
ENDBRANCH  15  16
ENDBRANCH  14  15
ENDBRANCH  12  14
ENDBRANCH  11  12
ENDBRANCH   2  11
TORSDOF 8
ENDMDL
MODEL 8
REMARK VINA RESULT:      -6.2      6.465      8.722
REMARK  Name = 
REMARK  14 active torsions:
REMARK  status: ('A' for Active; 'I' for Inactive)
REMARK    1  A    between atoms: C_1  and  C_2
REMARK    2  A    between atoms: C_2  and  C_3
REMARK    3  A    between atoms: C_4  and  C_5
REMARK    4  A    between atoms: C_5  and  C_6
REMARK    5  A    between atoms: C_6  and  C_7
REMARK    6  A    between atoms: C_6  and  C_8
REMARK    7  A    between atoms: C_8  and  C_9
REMARK    8  A    between atoms: C_9  and  C_10
REMARK    9  A    between atoms: C_10  and  C_11
REMARK   10  A    between atoms: C_11  and  C_12
REMARK   11  A    between atoms: C_11  and  C_13
REMARK   12  A    between atoms: C_14  and  C_15
REMARK   13  A    between atoms: N_17  and  C_18
REMARK   14  A    between atoms: N_17  and  C_19
REMARK                            x       y       z     vdW  Elec       q    Type
REMARK                         _______ _______ _______ _____ _____    ______ ____
ROOT
ATOM      1  C   UNL     1       8.115   9.446  17.681  0.00  0.00    +0.000 C 
ATOM      2  C   UNL     1       8.095   8.171  18.100  0.00  0.00    +0.000 C 
ENDROOT
BRANCH   1   4
ATOM      3  C   UNL     1       9.429  10.249  19.714  0.00  0.00    +0.000 C 
ATOM      4  C   UNL     1       8.781  10.538  18.379  0.00  0.00    +0.000 C 
ATOM      5  C   UNL     1       8.759  11.774  17.842  0.00  0.00    +0.000 C 
BRANCH   5   6
ATOM      6  C   UNL     1       9.352  12.949  18.532  0.00  0.00    +0.000 C 
ATOM      7  O   UNL     1       8.664  13.581  19.335  0.00  0.00    +0.000 OA
ATOM      8  N   UNL     1      10.656  13.285  18.216  0.00  0.00    +0.000 N 
ATOM      9  C   UNL     1      11.537  12.556  17.314  0.00  0.00    +0.000 C 
ATOM     10  C   UNL     1      11.255  14.429  18.884  0.00  0.00    +0.000 C 
ENDBRANCH   5   6
ENDBRANCH   1   4
BRANCH   2  11
ATOM     11  C   UNL     1       7.342   7.068  17.424  0.00  0.00    +0.000 C 
BRANCH  11  12
ATOM     12  C   UNL     1       7.596   5.698  18.098  0.00  0.00    +0.000 C 
ATOM     13  C   UNL     1       8.161   5.868  19.514  0.00  0.00    +0.000 C 
BRANCH  12  14
ATOM     14  C   UNL     1       6.315   4.836  18.138  0.00  0.00    +0.000 C 
BRANCH  14  15
ATOM     15  C   UNL     1       5.201   5.429  17.271  0.00  0.00    +0.000 C 
BRANCH  15  16
ATOM     16  C   UNL     1       3.980   4.519  17.151  0.00  0.00    +0.000 C 
BRANCH  16  17
ATOM     17  C   UNL     1       2.729   5.141  17.809  0.00  0.00    +0.000 C 
ATOM     18  C   UNL     1       1.537   4.181  17.821  0.00  0.00    +0.000 C 
ATOM     19  C   UNL     1       3.054   5.582  19.235  0.00  0.00    +0.000 C 
ENDBRANCH  16  17
ENDBRANCH  15  16
ENDBRANCH  14  15
ENDBRANCH  12  14
ENDBRANCH  11  12
ENDBRANCH   2  11
TORSDOF 8
ENDMDL
MODEL 9
REMARK VINA RESULT:      -6.2      4.343      7.826
REMARK  Name = 
REMARK  14 active torsions:
REMARK  status: ('A' for Active; 'I' for Inactive)
REMARK    1  A    between atoms: C_1  and  C_2
REMARK    2  A    between atoms: C_2  and  C_3
REMARK    3  A    between atoms: C_4  and  C_5
REMARK    4  A    between atoms: C_5  and  C_6
REMARK    5  A    between atoms: C_6  and  C_7
REMARK    6  A    between atoms: C_6  and  C_8
REMARK    7  A    between atoms: C_8  and  C_9
REMARK    8  A    between atoms: C_9  and  C_10
REMARK    9  A    between atoms: C_10  and  C_11
REMARK   10  A    between atoms: C_11  and  C_12
REMARK   11  A    between atoms: C_11  and  C_13
REMARK   12  A    between atoms: C_14  and  C_15
REMARK   13  A    between atoms: N_17  and  C_18
REMARK   14  A    between atoms: N_17  and  C_19
REMARK                            x       y       z     vdW  Elec       q    Type
REMARK                         _______ _______ _______ _____ _____    ______ ____
ROOT
ATOM      1  C   UNL     1       3.315   7.666  17.549  0.00  0.00    +0.000 C 
ATOM      2  C   UNL     1       2.202   8.087  18.170  0.00  0.00    +0.000 C 
ENDROOT
BRANCH   1   4
ATOM      3  C   UNL     1       4.789   5.820  16.589  0.00  0.00    +0.000 C 
ATOM      4  C   UNL     1       3.889   6.334  17.689  0.00  0.00    +0.000 C 
ATOM      5  C   UNL     1       3.565   5.585  18.763  0.00  0.00    +0.000 C 
BRANCH   5   6
ATOM      6  C   UNL     1       4.053   4.192  18.933  0.00  0.00    +0.000 C 
ATOM      7  O   UNL     1       5.190   4.005  19.370  0.00  0.00    +0.000 OA
ATOM      8  N   UNL     1       3.199   3.167  18.568  0.00  0.00    +0.000 N 
ATOM      9  C   UNL     1       1.830   3.317  18.091  0.00  0.00    +0.000 C 
ATOM     10  C   UNL     1       3.657   1.796  18.732  0.00  0.00    +0.000 C 
ENDBRANCH   5   6
ENDBRANCH   1   4
BRANCH   2  11
ATOM     11  C   UNL     1       1.661   9.480  18.088  0.00  0.00    +0.000 C 
BRANCH  11  12
ATOM     12  C   UNL     1       0.532   9.721  19.119  0.00  0.00    +0.000 C 
ATOM     13  C   UNL     1       0.928   9.215  20.512  0.00  0.00    +0.000 C 
BRANCH  12  14
ATOM     14  C   UNL     1       0.134  11.212  19.190  0.00  0.00    +0.000 C 
BRANCH  14  15
ATOM     15  C   UNL     1      -1.375  11.407  19.015  0.00  0.00    +0.000 C 
BRANCH  15  16
ATOM     16  C   UNL     1      -1.783  11.696  17.572  0.00  0.00    +0.000 C 
BRANCH  16  17
ATOM     17  C   UNL     1      -2.248  10.421  16.836  0.00  0.00    +0.000 C 
ATOM     18  C   UNL     1      -3.246   9.602  17.658  0.00  0.00    +0.000 C 
ATOM     19  C   UNL     1      -2.866  10.792  15.489  0.00  0.00    +0.000 C 
ENDBRANCH  16  17
ENDBRANCH  15  16
ENDBRANCH  14  15
ENDBRANCH  12  14
ENDBRANCH  11  12
ENDBRANCH   2  11
TORSDOF 8
ENDMDL
