MODEL 1
REMARK VINA RESULT:      -9.7      0.000      0.000
REMARK  Name = 
REMARK  9 active torsions:
REMARK  status: ('A' for Active; 'I' for Inactive)
REMARK    1  A    between atoms: C_1  and  C_2
REMARK    2  A    between atoms: C_2  and  C_3
REMARK    3  A    between atoms: C_2  and  C_4
REMARK    4  A    between atoms: C_7  and  C_8
REMARK    5  A    between atoms: C_8  and  C_9
REMARK    6  A    between atoms: N_18  and  C_19
REMARK    7  A    between atoms: C_19  and  C_20
REMARK    8  A    between atoms: C_26  and  C_27
REMARK    9  A    between atoms: C_26  and  C_28
REMARK                            x       y       z     vdW  Elec       q    Type
REMARK                         _______ _______ _______ _____ _____    ______ ____
ROOT
ATOM      1  C   UNL     1       4.151   5.323  18.308  0.00  0.00    +0.000 C 
ATOM      2  C   UNL     1       3.807   3.818  18.329  0.00  0.00    +0.000 C 
ATOM      3  N   UNL     1       2.879   3.398  19.147  0.00  0.00    +0.000 N 
ATOM      4  C   UNL     1       2.080   2.141  18.958  0.00  0.00    +0.000 C 
ATOM      5  C   UNL     1       0.686   2.604  19.355  0.00  0.00    +0.000 C 
ATOM      6  C   UNL     1       0.895   3.617  20.471  0.00  0.00    +0.000 C 
ATOM      7  C   UNL     1       2.349   4.073  20.383  0.00  0.00    +0.000 C 
ATOM      8  C   UNL     1       4.489   2.909  17.388  0.00  0.00    +0.000 C 
ATOM      9  C   UNL     1       5.515   3.375  16.684  0.00  0.00    +0.000 C 
ATOM     10  N   UNL     1       6.050   4.653  16.700  0.00  0.00    +0.000 N 
ATOM     11  C   UNL     1       5.547   5.721  17.625  0.00  0.00    +0.000 C 
ATOM     12  C   UNL     1       5.468   7.109  16.929  0.00  0.00    +0.000 C 
ATOM     13  C   UNL     1       6.601   5.875  18.753  0.00  0.00    +0.000 C 
ENDROOT
BRANCH   1  14
ATOM     14  C   UNL     1       2.895   6.130  17.839  0.00  0.00    +0.000 C 
BRANCH  14  18
ATOM     15  C   UNL     1       1.054   9.485  19.828  0.00  0.00    +0.000 A 
ATOM     16  C   UNL     1       1.419   9.559  18.479  0.00  0.00    +0.000 A 
ATOM     17  C   UNL     1       2.081   8.498  17.865  0.00  0.00    +0.000 A 
ATOM     18  C   UNL     1       2.412   7.338  18.589  0.00  0.00    +0.000 A 
ATOM     19  C   UNL     1       2.123   7.319  19.951  0.00  0.00    +0.000 A 
ATOM     20  C   UNL     1       1.442   8.364  20.560  0.00  0.00    +0.000 A 
BRANCH  15  22
ATOM     21  C   UNL     1      -1.024  10.789  19.464  0.00  0.00    +0.000 C 
ATOM     22  C   UNL     1       0.144  10.543  20.426  0.00  0.00    +0.000 C 
ATOM     23  C   UNL     1      -0.384  10.182  21.818  0.00  0.00    +0.000 C 
ENDBRANCH  15  22
ENDBRANCH  14  18
ENDBRANCH   1  14
BRANCH  10  24
ATOM     24  C   UNL     1       7.060   5.016  15.651  0.00  0.00    +0.000 C 
BRANCH  24  25
ATOM     25  C   UNL     1       6.715   4.687  14.207  0.00  0.00    +0.000 A 
ATOM     26  C   UNL     1       7.655   4.997  13.202  0.00  0.00    +0.000 A 
ATOM     27  C   UNL     1       7.514   4.506  11.900  0.00  0.00    +0.000 A 
ATOM     28  C   UNL     1       6.428   3.699  11.580  0.00  0.00    +0.000 A 
ATOM     29  C   UNL     1       5.466   3.417  12.548  0.00  0.00    +0.000 A 
ATOM     30  C   UNL     1       5.606   3.911  13.850  0.00  0.00    +0.000 A 
ENDBRANCH  24  25
ENDBRANCH  10  24
TORSDOF 5
ENDMDL
MODEL 2
REMARK VINA RESULT:      -9.2      0.321      1.104
REMARK  Name = 
REMARK  9 active torsions:
REMARK  status: ('A' for Active; 'I' for Inactive)
REMARK    1  A    between atoms: C_1  and  C_2
REMARK    2  A    between atoms: C_2  and  C_3
REMARK    3  A    between atoms: C_2  and  C_4
REMARK    4  A    between atoms: C_7  and  C_8
REMARK    5  A    between atoms: C_8  and  C_9
REMARK    6  A    between atoms: N_18  and  C_19
REMARK    7  A    between atoms: C_19  and  C_20
REMARK    8  A    between atoms: C_26  and  C_27
REMARK    9  A    between atoms: C_26  and  C_28
REMARK                            x       y       z     vdW  Elec       q    Type
REMARK                         _______ _______ _______ _____ _____    ______ ____
ROOT
ATOM      1  C   UNL     1       4.080   5.364  18.323  0.00  0.00    +0.000 C 
ATOM      2  C   UNL     1       3.746   3.857  18.283  0.00  0.00    +0.000 C 
ATOM      3  N   UNL     1       2.795   3.404  19.057  0.00  0.00    +0.000 N 
ATOM      4  C   UNL     1       2.010   2.151  18.801  0.00  0.00    +0.000 C 
ATOM      5  C   UNL     1       0.602   2.592  19.169  0.00  0.00    +0.000 C 
ATOM      6  C   UNL     1       0.770   3.568  20.325  0.00  0.00    +0.000 C 
ATOM      7  C   UNL     1       2.222   4.035  20.297  0.00  0.00    +0.000 C 
ATOM      8  C   UNL     1       4.462   2.984  17.334  0.00  0.00    +0.000 C 
ATOM      9  C   UNL     1       5.507   3.479  16.678  0.00  0.00    +0.000 C 
ATOM     10  N   UNL     1       6.033   4.758  16.754  0.00  0.00    +0.000 N 
ATOM     11  C   UNL     1       5.494   5.792  17.698  0.00  0.00    +0.000 C 
ATOM     12  C   UNL     1       5.428   7.202  17.047  0.00  0.00    +0.000 C 
ATOM     13  C   UNL     1       6.511   5.913  18.863  0.00  0.00    +0.000 C 
ENDROOT
BRANCH   1  14
ATOM     14  C   UNL     1       2.834   6.179  17.842  0.00  0.00    +0.000 C 
BRANCH  14  18
ATOM     15  C   UNL     1       0.992   9.533  19.833  0.00  0.00    +0.000 A 
ATOM     16  C   UNL     1       1.329   9.597  18.476  0.00  0.00    +0.000 A 
ATOM     17  C   UNL     1       1.992   8.537  17.860  0.00  0.00    +0.000 A 
ATOM     18  C   UNL     1       2.351   7.389  18.589  0.00  0.00    +0.000 A 
ATOM     19  C   UNL     1       2.090   7.381  19.957  0.00  0.00    +0.000 A 
ATOM     20  C   UNL     1       1.408   8.424  20.569  0.00  0.00    +0.000 A 
BRANCH  15  22
ATOM     21  C   UNL     1       0.913  11.832  20.761  0.00  0.00    +0.000 C 
ATOM     22  C   UNL     1       0.081  10.586  20.438  0.00  0.00    +0.000 C 
ATOM     23  C   UNL     1      -1.104  10.959  19.543  0.00  0.00    +0.000 C 
ENDBRANCH  15  22
ENDBRANCH  14  18
ENDBRANCH   1  14
BRANCH  10  24
ATOM     24  C   UNL     1       7.072   5.162  15.749  0.00  0.00    +0.000 C 
BRANCH  24  25
ATOM     25  C   UNL     1       6.939   4.599  14.343  0.00  0.00    +0.000 A 
ATOM     26  C   UNL     1       5.828   3.782  14.047  0.00  0.00    +0.000 A 
ATOM     27  C   UNL     1       5.511   3.435  12.730  0.00  0.00    +0.000 A 
ATOM     28  C   UNL     1       6.303   3.899  11.684  0.00  0.00    +0.000 A 
ATOM     29  C   UNL     1       7.429   4.672  11.960  0.00  0.00    +0.000 A 
ATOM     30  C   UNL     1       7.748   5.015  13.279  0.00  0.00    +0.000 A 
ENDBRANCH  24  25
ENDBRANCH  10  24
TORSDOF 5
ENDMDL
MODEL 3
REMARK VINA RESULT:      -8.8      0.568      1.050
REMARK  Name = 
REMARK  9 active torsions:
REMARK  status: ('A' for Active; 'I' for Inactive)
REMARK    1  A    between atoms: C_1  and  C_2
REMARK    2  A    between atoms: C_2  and  C_3
REMARK    3  A    between atoms: C_2  and  C_4
REMARK    4  A    between atoms: C_7  and  C_8
REMARK    5  A    between atoms: C_8  and  C_9
REMARK    6  A    between atoms: N_18  and  C_19
REMARK    7  A    between atoms: C_19  and  C_20
REMARK    8  A    between atoms: C_26  and  C_27
REMARK    9  A    between atoms: C_26  and  C_28
REMARK                            x       y       z     vdW  Elec       q    Type
REMARK                         _______ _______ _______ _____ _____    ______ ____
ROOT
ATOM      1  C   UNL     1       4.033   5.282  18.328  0.00  0.00    +0.000 C 
ATOM      2  C   UNL     1       3.715   3.772  18.275  0.00  0.00    +0.000 C 
ATOM      3  N   UNL     1       2.741   3.310  19.014  0.00  0.00    +0.000 N 
ATOM      4  C   UNL     1       1.978   2.048  18.730  0.00  0.00    +0.000 C 
ATOM      5  C   UNL     1       0.553   2.476  19.047  0.00  0.00    +0.000 C 
ATOM      6  C   UNL     1       0.669   3.453  20.207  0.00  0.00    +0.000 C 
ATOM      7  C   UNL     1       2.117   3.934  20.233  0.00  0.00    +0.000 C 
ATOM      8  C   UNL     1       4.473   2.906  17.353  0.00  0.00    +0.000 C 
ATOM      9  C   UNL     1       5.537   3.411  16.736  0.00  0.00    +0.000 C 
ATOM     10  N   UNL     1       6.047   4.696  16.831  0.00  0.00    +0.000 N 
ATOM     11  C   UNL     1       5.464   5.724  17.755  0.00  0.00    +0.000 C 
ATOM     12  C   UNL     1       5.408   7.133  17.101  0.00  0.00    +0.000 C 
ATOM     13  C   UNL     1       6.437   5.855  18.956  0.00  0.00    +0.000 C 
ENDROOT
BRANCH   1  14
ATOM     14  C   UNL     1       2.797   6.085  17.802  0.00  0.00    +0.000 C 
BRANCH  14  18
ATOM     15  C   UNL     1       1.239   9.130  20.430  0.00  0.00    +0.000 A 
ATOM     16  C   UNL     1       1.525   7.844  20.905  0.00  0.00    +0.000 A 
ATOM     17  C   UNL     1       1.956   6.846  20.034  0.00  0.00    +0.000 A 
ATOM     18  C   UNL     1       2.098   7.102  18.658  0.00  0.00    +0.000 A 
ATOM     19  C   UNL     1       1.723   8.359  18.189  0.00  0.00    +0.000 A 
ATOM     20  C   UNL     1       1.316   9.362  19.057  0.00  0.00    +0.000 A 
BRANCH  15  22
ATOM     21  C   UNL     1       0.446  11.470  20.638  0.00  0.00    +0.000 C 
ATOM     22  C   UNL     1       0.988  10.262  21.410  0.00  0.00    +0.000 C 
ATOM     23  C   UNL     1       0.032   9.888  22.546  0.00  0.00    +0.000 C 
ENDBRANCH  15  22
ENDBRANCH  14  18
ENDBRANCH   1  14
BRANCH  10  24
ATOM     24  C   UNL     1       7.119   5.110  15.865  0.00  0.00    +0.000 C 
BRANCH  24  25
ATOM     25  C   UNL     1       6.885   4.809  14.393  0.00  0.00    +0.000 A 
ATOM     26  C   UNL     1       7.783   5.343  13.446  0.00  0.00    +0.000 A 
ATOM     27  C   UNL     1       7.776   4.913  12.115  0.00  0.00    +0.000 A 
ATOM     28  C   UNL     1       6.867   3.942  11.708  0.00  0.00    +0.000 A 
ATOM     29  C   UNL     1       5.944   3.433  12.619  0.00  0.00    +0.000 A 
ATOM     30  C   UNL     1       5.949   3.866  13.950  0.00  0.00    +0.000 A 
ENDBRANCH  24  25
ENDBRANCH  10  24
TORSDOF 5
ENDMDL
MODEL 4
REMARK VINA RESULT:      -8.5      1.098      1.886
REMARK  Name = 
REMARK  9 active torsions:
REMARK  status: ('A' for Active; 'I' for Inactive)
REMARK    1  A    between atoms: C_1  and  C_2
REMARK    2  A    between atoms: C_2  and  C_3
REMARK    3  A    between atoms: C_2  and  C_4
REMARK    4  A    between atoms: C_7  and  C_8
REMARK    5  A    between atoms: C_8  and  C_9
REMARK    6  A    between atoms: N_18  and  C_19
REMARK    7  A    between atoms: C_19  and  C_20
REMARK    8  A    between atoms: C_26  and  C_27
REMARK    9  A    between atoms: C_26  and  C_28
REMARK                            x       y       z     vdW  Elec       q    Type
REMARK                         _______ _______ _______ _____ _____    ______ ____
ROOT
ATOM      1  C   UNL     1       4.744   4.611  18.819  0.00  0.00    +0.000 C 
ATOM      2  C   UNL     1       3.546   3.705  18.463  0.00  0.00    +0.000 C 
ATOM      3  N   UNL     1       2.930   3.072  19.427  0.00  0.00    +0.000 N 
ATOM      4  C   UNL     1       1.510   2.591  19.360  0.00  0.00    +0.000 C 
ATOM      5  C   UNL     1       1.000   2.950  20.747  0.00  0.00    +0.000 C 
ATOM      6  C   UNL     1       2.186   2.753  21.681  0.00  0.00    +0.000 C 
ATOM      7  C   UNL     1       3.436   2.753  20.807  0.00  0.00    +0.000 C 
ATOM      8  C   UNL     1       3.094   3.623  17.062  0.00  0.00    +0.000 C 
ATOM      9  C   UNL     1       3.846   4.178  16.117  0.00  0.00    +0.000 C 
ATOM     10  N   UNL     1       5.041   4.863  16.271  0.00  0.00    +0.000 N 
ATOM     11  C   UNL     1       5.711   5.015  17.605  0.00  0.00    +0.000 C 
ATOM     12  C   UNL     1       6.310   6.436  17.800  0.00  0.00    +0.000 C 
ATOM     13  C   UNL     1       6.919   4.043  17.615  0.00  0.00    +0.000 C 
ENDROOT
BRANCH   1  14
ATOM     14  C   UNL     1       4.248   5.783  19.730  0.00  0.00    +0.000 C 
BRANCH  14  18
ATOM     15  C   UNL     1       1.405   8.853  18.681  0.00  0.00    +0.000 A 
ATOM     16  C   UNL     1       1.318   8.176  19.904  0.00  0.00    +0.000 A 
ATOM     17  C   UNL     1       2.194   7.135  20.202  0.00  0.00    +0.000 A 
ATOM     18  C   UNL     1       3.173   6.729  19.277  0.00  0.00    +0.000 A 
ATOM     19  C   UNL     1       3.188   7.352  18.031  0.00  0.00    +0.000 A 
ATOM     20  C   UNL     1       2.332   8.406  17.740  0.00  0.00    +0.000 A 
BRANCH  15  22
ATOM     21  C   UNL     1      -0.545  10.163  19.474  0.00  0.00    +0.000 C 
ATOM     22  C   UNL     1       0.601  10.121  18.457  0.00  0.00    +0.000 C 
ATOM     23  C   UNL     1       1.436  11.401  18.548  0.00  0.00    +0.000 C 
ENDBRANCH  15  22
ENDBRANCH  14  18
ENDBRANCH   1  14
BRANCH  10  24
ATOM     24  C   UNL     1       5.594   5.604  15.089  0.00  0.00    +0.000 C 
BRANCH  24  25
ATOM     25  C   UNL     1       6.167   4.774  13.952  0.00  0.00    +0.000 A 
ATOM     26  C   UNL     1       5.365   3.760  13.389  0.00  0.00    +0.000 A 
ATOM     27  C   UNL     1       5.725   3.129  12.193  0.00  0.00    +0.000 A 
ATOM     28  C   UNL     1       6.896   3.501  11.541  0.00  0.00    +0.000 A 
ATOM     29  C   UNL     1       7.723   4.472  12.104  0.00  0.00    +0.000 A 
ATOM     30  C   UNL     1       7.364   5.100  13.302  0.00  0.00    +0.000 A 
ENDBRANCH  24  25
ENDBRANCH  10  24
TORSDOF 5
ENDMDL
MODEL 5
REMARK VINA RESULT:      -8.1      0.602      1.373
REMARK  Name = 
REMARK  9 active torsions:
REMARK  status: ('A' for Active; 'I' for Inactive)
REMARK    1  A    between atoms: C_1  and  C_2
REMARK    2  A    between atoms: C_2  and  C_3
REMARK    3  A    between atoms: C_2  and  C_4
REMARK    4  A    between atoms: C_7  and  C_8
REMARK    5  A    between atoms: C_8  and  C_9
REMARK    6  A    between atoms: N_18  and  C_19
REMARK    7  A    between atoms: C_19  and  C_20
REMARK    8  A    between atoms: C_26  and  C_27
REMARK    9  A    between atoms: C_26  and  C_28
REMARK                            x       y       z     vdW  Elec       q    Type
REMARK                         _______ _______ _______ _____ _____    ______ ____
ROOT
ATOM      1  C   UNL     1       3.963   5.554  18.222  0.00  0.00    +0.000 C 
ATOM      2  C   UNL     1       3.765   4.031  18.379  0.00  0.00    +0.000 C 
ATOM      3  N   UNL     1       2.917   3.597  19.273  0.00  0.00    +0.000 N 
ATOM      4  C   UNL     1       2.233   2.262  19.224  0.00  0.00    +0.000 C 
ATOM      5  C   UNL     1       0.820   2.626  19.651  0.00  0.00    +0.000 C 
ATOM      6  C   UNL     1       0.978   3.744  20.672  0.00  0.00    +0.000 C 
ATOM      7  C   UNL     1       2.377   4.322  20.476  0.00  0.00    +0.000 C 
ATOM      8  C   UNL     1       4.490   3.113  17.480  0.00  0.00    +0.000 C 
ATOM      9  C   UNL     1       5.437   3.610  16.691  0.00  0.00    +0.000 C 
ATOM     10  N   UNL     1       5.848   4.929  16.580  0.00  0.00    +0.000 N 
ATOM     11  C   UNL     1       5.285   6.020  17.442  0.00  0.00    +0.000 C 
ATOM     12  C   UNL     1       5.045   7.332  16.643  0.00  0.00    +0.000 C 
ATOM     13  C   UNL     1       6.366   6.362  18.500  0.00  0.00    +0.000 C 
ENDROOT
BRANCH   1  14
ATOM     14  C   UNL     1       2.617   6.201  17.754  0.00  0.00    +0.000 C 
BRANCH  14  18
ATOM     15  C   UNL     1       1.282   9.604  20.043  0.00  0.00    +0.000 A 
ATOM     16  C   UNL     1       1.525   8.371  20.659  0.00  0.00    +0.000 A 
ATOM     17  C   UNL     1       1.882   7.258  19.901  0.00  0.00    +0.000 A 
ATOM     18  C   UNL     1       1.992   7.343  18.502  0.00  0.00    +0.000 A 
ATOM     19  C   UNL     1       1.659   8.553  17.897  0.00  0.00    +0.000 A 
ATOM     20  C   UNL     1       1.325   9.670  18.651  0.00  0.00    +0.000 A 
BRANCH  15  22
ATOM     21  C   UNL     1       0.946  12.060  19.957  0.00  0.00    +0.000 C 
ATOM     22  C   UNL     1       1.112  10.854  20.888  0.00  0.00    +0.000 C 
ATOM     23  C   UNL     1      -0.061  10.776  21.869  0.00  0.00    +0.000 C 
ENDBRANCH  15  22
ENDBRANCH  14  18
ENDBRANCH   1  14
BRANCH  10  24
ATOM     24  C   UNL     1       6.774   5.294  15.456  0.00  0.00    +0.000 C 
BRANCH  24  25
ATOM     25  C   UNL     1       6.612   4.539  14.146  0.00  0.00    +0.000 A 
ATOM     26  C   UNL     1       5.368   3.938  13.864  0.00  0.00    +0.000 A 
ATOM     27  C   UNL     1       5.071   3.445  12.589  0.00  0.00    +0.000 A 
ATOM     28  C   UNL     1       6.017   3.544  11.574  0.00  0.00    +0.000 A 
ATOM     29  C   UNL     1       7.267   4.095  11.844  0.00  0.00    +0.000 A 
ATOM     30  C   UNL     1       7.565   4.585  13.121  0.00  0.00    +0.000 A 
ENDBRANCH  24  25
ENDBRANCH  10  24
TORSDOF 5
ENDMDL
MODEL 6
REMARK VINA RESULT:      -7.9      1.454      8.260
REMARK  Name = 
REMARK  9 active torsions:
REMARK  status: ('A' for Active; 'I' for Inactive)
REMARK    1  A    between atoms: C_1  and  C_2
REMARK    2  A    between atoms: C_2  and  C_3
REMARK    3  A    between atoms: C_2  and  C_4
REMARK    4  A    between atoms: C_7  and  C_8
REMARK    5  A    between atoms: C_8  and  C_9
REMARK    6  A    between atoms: N_18  and  C_19
REMARK    7  A    between atoms: C_19  and  C_20
REMARK    8  A    between atoms: C_26  and  C_27
REMARK    9  A    between atoms: C_26  and  C_28
REMARK                            x       y       z     vdW  Elec       q    Type
REMARK                         _______ _______ _______ _____ _____    ______ ____
ROOT
ATOM      1  C   UNL     1       2.946   6.038  18.211  0.00  0.00    +0.000 C 
ATOM      2  C   UNL     1       2.341   5.027  19.208  0.00  0.00    +0.000 C 
ATOM      3  N   UNL     1       2.415   3.752  18.930  0.00  0.00    +0.000 N 
ATOM      4  C   UNL     1       2.362   2.652  19.951  0.00  0.00    +0.000 C 
ATOM      5  C   UNL     1       3.440   1.709  19.439  0.00  0.00    +0.000 C 
ATOM      6  C   UNL     1       3.381   1.806  17.922  0.00  0.00    +0.000 C 
ATOM      7  C   UNL     1       2.641   3.099  17.594  0.00  0.00    +0.000 C 
ATOM      8  C   UNL     1       1.751   5.519  20.467  0.00  0.00    +0.000 C 
ATOM      9  C   UNL     1       1.583   6.828  20.623  0.00  0.00    +0.000 C 
ATOM     10  N   UNL     1       1.910   7.840  19.735  0.00  0.00    +0.000 N 
ATOM     11  C   UNL     1       2.469   7.561  18.371  0.00  0.00    +0.000 C 
ATOM     12  C   UNL     1       3.598   8.558  17.986  0.00  0.00    +0.000 C 
ATOM     13  C   UNL     1       1.324   7.810  17.355  0.00  0.00    +0.000 C 
ENDROOT
BRANCH   1  14
ATOM     14  C   UNL     1       4.490   5.802  18.115  0.00  0.00    +0.000 C 
BRANCH  14  18
ATOM     15  C   UNL     1       5.989   4.346  14.341  0.00  0.00    +0.000 A 
ATOM     16  C   UNL     1       6.230   3.648  15.531  0.00  0.00    +0.000 A 
ATOM     17  C   UNL     1       5.808   4.165  16.754  0.00  0.00    +0.000 A 
ATOM     18  C   UNL     1       5.145   5.403  16.823  0.00  0.00    +0.000 A 
ATOM     19  C   UNL     1       4.994   6.126  15.642  0.00  0.00    +0.000 A 
ATOM     20  C   UNL     1       5.392   5.604  14.419  0.00  0.00    +0.000 A 
BRANCH  15  22
ATOM     21  C   UNL     1       4.917   3.504  12.269  0.00  0.00    +0.000 C 
ATOM     22  C   UNL     1       6.251   3.678  13.004  0.00  0.00    +0.000 C 
ATOM     23  C   UNL     1       7.245   4.439  12.122  0.00  0.00    +0.000 C 
ENDBRANCH  15  22
ENDBRANCH  14  18
ENDBRANCH   1  14
BRANCH  10  24
ATOM     24  C   UNL     1       1.845   9.260  20.218  0.00  0.00    +0.000 C 
BRANCH  24  25
ATOM     25  C   UNL     1       0.696   9.630  21.142  0.00  0.00    +0.000 A 
ATOM     26  C   UNL     1       0.734   9.181  22.479  0.00  0.00    +0.000 A 
ATOM     27  C   UNL     1      -0.151   9.681  23.439  0.00  0.00    +0.000 A 
ATOM     28  C   UNL     1      -1.093  10.639  23.077  0.00  0.00    +0.000 A 
ATOM     29  C   UNL     1      -1.175  11.063  21.753  0.00  0.00    +0.000 A 
ATOM     30  C   UNL     1      -0.291  10.560  20.792  0.00  0.00    +0.000 A 
ENDBRANCH  24  25
ENDBRANCH  10  24
TORSDOF 5
ENDMDL
MODEL 7
REMARK VINA RESULT:      -7.7      1.641      7.877
REMARK  Name = 
REMARK  9 active torsions:
REMARK  status: ('A' for Active; 'I' for Inactive)
REMARK    1  A    between atoms: C_1  and  C_2
REMARK    2  A    between atoms: C_2  and  C_3
REMARK    3  A    between atoms: C_2  and  C_4
REMARK    4  A    between atoms: C_7  and  C_8
REMARK    5  A    between atoms: C_8  and  C_9
REMARK    6  A    between atoms: N_18  and  C_19
REMARK    7  A    between atoms: C_19  and  C_20
REMARK    8  A    between atoms: C_26  and  C_27
REMARK    9  A    between atoms: C_26  and  C_28
REMARK                            x       y       z     vdW  Elec       q    Type
REMARK                         _______ _______ _______ _____ _____    ______ ____
ROOT
ATOM      1  C   UNL     1       2.377   6.608  18.678  0.00  0.00    +0.000 C 
ATOM      2  C   UNL     1       1.860   5.915  19.957  0.00  0.00    +0.000 C 
ATOM      3  N   UNL     1       1.859   4.609  20.006  0.00  0.00    +0.000 N 
ATOM      4  C   UNL     1       1.891   3.802  21.271  0.00  0.00    +0.000 C 
ATOM      5  C   UNL     1       2.871   2.698  20.905  0.00  0.00    +0.000 C 
ATOM      6  C   UNL     1       2.636   2.418  19.428  0.00  0.00    +0.000 C 
ATOM      7  C   UNL     1       1.905   3.632  18.862  0.00  0.00    +0.000 C 
ATOM      8  C   UNL     1       1.439   6.739  21.105  0.00  0.00    +0.000 C 
ATOM      9  C   UNL     1       1.333   8.053  20.940  0.00  0.00    +0.000 C 
ATOM     10  N   UNL     1       1.586   8.792  19.795  0.00  0.00    +0.000 N 
ATOM     11  C   UNL     1       1.971   8.149  18.495  0.00  0.00    +0.000 C 
ATOM     12  C   UNL     1       3.079   8.948  17.753  0.00  0.00    +0.000 C 
ATOM     13  C   UNL     1       0.723   8.207  17.577  0.00  0.00    +0.000 C 
ENDROOT
BRANCH   1  14
ATOM     14  C   UNL     1       3.890   6.261  18.482  0.00  0.00    +0.000 C 
BRANCH  14  18
ATOM     15  C   UNL     1       5.803   4.629  14.977  0.00  0.00    +0.000 A 
ATOM     16  C   UNL     1       5.531   5.999  15.078  0.00  0.00    +0.000 A 
ATOM     17  C   UNL     1       4.845   6.505  16.180  0.00  0.00    +0.000 A 
ATOM     18  C   UNL     1       4.398   5.653  17.206  0.00  0.00    +0.000 A 
ATOM     19  C   UNL     1       4.597   4.284  17.046  0.00  0.00    +0.000 A 
ATOM     20  C   UNL     1       5.301   3.778  15.961  0.00  0.00    +0.000 A 
BRANCH  15  22
ATOM     21  C   UNL     1       5.897   3.543  12.750  0.00  0.00    +0.000 C 
ATOM     22  C   UNL     1       6.737   4.120  13.895  0.00  0.00    +0.000 C 
ATOM     23  C   UNL     1       7.698   5.187  13.361  0.00  0.00    +0.000 C 
ENDBRANCH  15  22
ENDBRANCH  14  18
ENDBRANCH   1  14
BRANCH  10  24
ATOM     24  C   UNL     1       1.624  10.288  19.906  0.00  0.00    +0.000 C 
BRANCH  24  25
ATOM     25  C   UNL     1       0.376  11.051  19.493  0.00  0.00    +0.000 A 
ATOM     26  C   UNL     1       0.528  12.252  18.770  0.00  0.00    +0.000 A 
ATOM     27  C   UNL     1      -0.563  12.871  18.151  0.00  0.00    +0.000 A 
ATOM     28  C   UNL     1      -1.827  12.299  18.246  0.00  0.00    +0.000 A 
ATOM     29  C   UNL     1      -2.005  11.135  18.992  0.00  0.00    +0.000 A 
ATOM     30  C   UNL     1      -0.914  10.518  19.614  0.00  0.00    +0.000 A 
ENDBRANCH  24  25
ENDBRANCH  10  24
TORSDOF 5
ENDMDL
MODEL 8
REMARK VINA RESULT:      -7.7      1.472      7.746
REMARK  Name = 
REMARK  9 active torsions:
REMARK  status: ('A' for Active; 'I' for Inactive)
REMARK    1  A    between atoms: C_1  and  C_2
REMARK    2  A    between atoms: C_2  and  C_3
REMARK    3  A    between atoms: C_2  and  C_4
REMARK    4  A    between atoms: C_7  and  C_8
REMARK    5  A    between atoms: C_8  and  C_9
REMARK    6  A    between atoms: N_18  and  C_19
REMARK    7  A    between atoms: C_19  and  C_20
REMARK    8  A    between atoms: C_26  and  C_27
REMARK    9  A    between atoms: C_26  and  C_28
REMARK                            x       y       z     vdW  Elec       q    Type
REMARK                         _______ _______ _______ _____ _____    ______ ____
ROOT
ATOM      1  C   UNL     1       2.865   6.172  18.337  0.00  0.00    +0.000 C 
ATOM      2  C   UNL     1       2.218   5.114  19.256  0.00  0.00    +0.000 C 
ATOM      3  N   UNL     1       2.292   3.856  18.913  0.00  0.00    +0.000 N 
ATOM      4  C   UNL     1       2.194   2.703  19.871  0.00  0.00    +0.000 C 
ATOM      5  C   UNL     1       3.283   1.779  19.347  0.00  0.00    +0.000 C 
ATOM      6  C   UNL     1       3.277   1.957  17.836  0.00  0.00    +0.000 C 
ATOM      7  C   UNL     1       2.559   3.273  17.552  0.00  0.00    +0.000 C 
ATOM      8  C   UNL     1       1.589   5.544  20.519  0.00  0.00    +0.000 C 
ATOM      9  C   UNL     1       1.425   6.845  20.739  0.00  0.00    +0.000 C 
ATOM     10  N   UNL     1       1.791   7.900  19.919  0.00  0.00    +0.000 N 
ATOM     11  C   UNL     1       2.394   7.689  18.562  0.00  0.00    +0.000 C 
ATOM     12  C   UNL     1       3.544   8.694  18.270  0.00  0.00    +0.000 C 
ATOM     13  C   UNL     1       1.287   8.002  17.522  0.00  0.00    +0.000 C 
ENDROOT
BRANCH   1  14
ATOM     14  C   UNL     1       4.410   5.927  18.281  0.00  0.00    +0.000 C 
BRANCH  14  18
ATOM     15  C   UNL     1       6.025   4.493  14.547  0.00  0.00    +0.000 A 
ATOM     16  C   UNL     1       6.293   3.830  15.751  0.00  0.00    +0.000 A 
ATOM     17  C   UNL     1       5.830   4.343  16.961  0.00  0.00    +0.000 A 
ATOM     18  C   UNL     1       5.099   5.543  17.003  0.00  0.00    +0.000 A 
ATOM     19  C   UNL     1       4.919   6.236  15.808  0.00  0.00    +0.000 A 
ATOM     20  C   UNL     1       5.358   5.716  14.598  0.00  0.00    +0.000 A 
BRANCH  15  22
ATOM     21  C   UNL     1       5.025   3.584  12.467  0.00  0.00    +0.000 C 
ATOM     22  C   UNL     1       6.338   3.818  13.224  0.00  0.00    +0.000 C 
ATOM     23  C   UNL     1       7.319   4.605  12.351  0.00  0.00    +0.000 C 
ENDBRANCH  15  22
ENDBRANCH  14  18
ENDBRANCH   1  14
BRANCH  10  24
ATOM     24  C   UNL     1       1.720   9.292  20.475  0.00  0.00    +0.000 C 
BRANCH  24  25
ATOM     25  C   UNL     1       0.673  10.226  19.887  0.00  0.00    +0.000 A 
ATOM     26  C   UNL     1       1.095  11.467  19.367  0.00  0.00    +0.000 A 
ATOM     27  C   UNL     1       0.237  12.261  18.597  0.00  0.00    +0.000 A 
ATOM     28  C   UNL     1      -1.059  11.827  18.338  0.00  0.00    +0.000 A 
ATOM     29  C   UNL     1      -1.507  10.624  18.880  0.00  0.00    +0.000 A 
ATOM     30  C   UNL     1      -0.649   9.831  19.652  0.00  0.00    +0.000 A 
ENDBRANCH  24  25
ENDBRANCH  10  24
TORSDOF 5
ENDMDL
MODEL 9
REMARK VINA RESULT:      -7.3      4.490     11.242
REMARK  Name = 
REMARK  9 active torsions:
REMARK  status: ('A' for Active; 'I' for Inactive)
REMARK    1  A    between atoms: C_1  and  C_2
REMARK    2  A    between atoms: C_2  and  C_3
REMARK    3  A    between atoms: C_2  and  C_4
REMARK    4  A    between atoms: C_7  and  C_8
REMARK    5  A    between atoms: C_8  and  C_9
REMARK    6  A    between atoms: N_18  and  C_19
REMARK    7  A    between atoms: C_19  and  C_20
REMARK    8  A    between atoms: C_26  and  C_27
REMARK    9  A    between atoms: C_26  and  C_28
REMARK                            x       y       z     vdW  Elec       q    Type
REMARK                         _______ _______ _______ _____ _____    ______ ____
ROOT
ATOM      1  C   UNL     1      -0.497  11.862  19.429  0.00  0.00    +0.000 C 
ATOM      2  C   UNL     1      -1.976  12.234  19.189  0.00  0.00    +0.000 C 
ATOM      3  N   UNL     1      -2.639  11.603  18.256  0.00  0.00    +0.000 N 
ATOM      4  C   UNL     1      -4.132  11.454  18.222  0.00  0.00    +0.000 C 
ATOM      5  C   UNL     1      -4.284  10.005  17.784  0.00  0.00    +0.000 C 
ATOM      6  C   UNL     1      -3.131   9.745  16.827  0.00  0.00    +0.000 C 
ATOM      7  C   UNL     1      -2.095  10.836  17.081  0.00  0.00    +0.000 C 
ATOM      8  C   UNL     1      -2.616  13.243  20.054  0.00  0.00    +0.000 C 
ATOM      9  C   UNL     1      -1.853  13.943  20.887  0.00  0.00    +0.000 C 
ATOM     10  N   UNL     1      -0.483  13.845  21.075  0.00  0.00    +0.000 N 
ATOM     11  C   UNL     1       0.374  12.923  20.259  0.00  0.00    +0.000 C 
ATOM     12  C   UNL     1       1.461  12.220  21.120  0.00  0.00    +0.000 C 
ATOM     13  C   UNL     1       1.145  13.805  19.243  0.00  0.00    +0.000 C 
ENDROOT
BRANCH   1  14
ATOM     14  C   UNL     1      -0.412  10.373  19.902  0.00  0.00    +0.000 C 
BRANCH  14  18
ATOM     15  C   UNL     1       2.548   7.470  18.713  0.00  0.00    +0.000 A 
ATOM     16  C   UNL     1       2.099   7.541  20.037  0.00  0.00    +0.000 A 
ATOM     17  C   UNL     1       1.199   8.531  20.428  0.00  0.00    +0.000 A 
ATOM     18  C   UNL     1       0.735   9.488  19.508  0.00  0.00    +0.000 A 
ATOM     19  C   UNL     1       1.261   9.458  18.219  0.00  0.00    +0.000 A 
ATOM     20  C   UNL     1       2.139   8.460  17.820  0.00  0.00    +0.000 A 
BRANCH  15  22
ATOM     21  C   UNL     1       2.374   5.134  17.898  0.00  0.00    +0.000 C 
ATOM     22  C   UNL     1       3.347   6.266  18.247  0.00  0.00    +0.000 C 
ATOM     23  C   UNL     1       4.264   6.562  17.057  0.00  0.00    +0.000 C 
ENDBRANCH  15  22
ENDBRANCH  14  18
ENDBRANCH   1  14
BRANCH  10  24
ATOM     24  C   UNL     1       0.130  14.573  22.235  0.00  0.00    +0.000 C 
BRANCH  24  25
ATOM     25  C   UNL     1      -0.804  15.371  23.131  0.00  0.00    +0.000 A 
ATOM     26  C   UNL     1      -1.274  14.772  24.318  0.00  0.00    +0.000 A 
ATOM     27  C   UNL     1      -1.928  15.523  25.301  0.00  0.00    +0.000 A 
ATOM     28  C   UNL     1      -2.126  16.887  25.110  0.00  0.00    +0.000 A 
ATOM     29  C   UNL     1      -1.706  17.488  23.926  0.00  0.00    +0.000 A 
ATOM     30  C   UNL     1      -1.055  16.736  22.941  0.00  0.00    +0.000 A 
ENDBRANCH  24  25
ENDBRANCH  10  24
TORSDOF 5
ENDMDL
