MODEL 1
REMARK VINA RESULT:      -6.8      0.000      0.000
REMARK  Name = 
REMARK  11 active torsions:
REMARK  status: ('A' for Active; 'I' for Inactive)
REMARK    1  A    between atoms: C_1  and  C_2
REMARK    2  A    between atoms: C_2  and  C_3
REMARK    3  A    between atoms: C_2  and  O_4
REMARK    4  A    between atoms: O_4  and  C_5
REMARK    5  A    between atoms: C_8  and  S_9
REMARK    6  A    between atoms: S_9  and  N_12
REMARK    7  A    between atoms: N_12  and  C_13
REMARK    8  A    between atoms: N_12  and  C_14
REMARK    9  A    between atoms: C_14  and  C_15
REMARK   10  A    between atoms: C_14  and  C_16
REMARK   11  A    between atoms: C_16  and  N_17
REMARK                            x       y       z     vdW  Elec       q    Type
REMARK                         _______ _______ _______ _____ _____    ______ ____
ROOT
ATOM      1  S   UNL     1       2.294   3.297  17.794  0.00  0.00    +0.000 S 
ATOM      2  O   UNL     1       1.016   3.963  17.638  0.00  0.00    +0.000 OA
ATOM      3  O   UNL     1       2.561   2.066  17.079  0.00  0.00    +0.000 OA
ENDROOT
BRANCH   1   7
ATOM      4  C   UNL     1       5.637   6.193  16.662  0.00  0.00    +0.000 A 
ATOM      5  C   UNL     1       5.651   4.873  16.205  0.00  0.00    +0.000 A 
ATOM      6  C   UNL     1       4.609   4.001  16.522  0.00  0.00    +0.000 A 
ATOM      7  C   UNL     1       3.556   4.448  17.319  0.00  0.00    +0.000 A 
ATOM      8  C   UNL     1       3.504   5.778  17.748  0.00  0.00    +0.000 A 
ATOM      9  C   UNL     1       4.562   6.636  17.440  0.00  0.00    +0.000 A 
BRANCH   4  10
ATOM     10  O   UNL     1       6.610   7.123  16.429  0.00  0.00    +0.000 OA
BRANCH  10  12
ATOM     11  C   UNL     1       7.863   8.614  17.806  0.00  0.00    +0.000 C 
ATOM     12  C   UNL     1       7.728   7.173  17.325  0.00  0.00    +0.000 C 
ATOM     13  C   UNL     1       7.488   6.235  18.504  0.00  0.00    +0.000 C 
ENDBRANCH  10  12
ENDBRANCH   4  10
ENDBRANCH   1   7
BRANCH   1  14
ATOM     14  N   UNL     1       2.592   3.032  19.448  0.00  0.00    +0.000 NA
ATOM     15  C   UNL     1       4.003   2.805  19.833  0.00  0.00    +0.000 C 
BRANCH  14  16
ATOM     16  C   UNL     1       1.770   3.649  20.554  0.00  0.00    +0.000 C 
ATOM     17  C   UNL     1       1.338   2.641  21.618  0.00  0.00    +0.000 C 
BRANCH  16  18
ATOM     18  C   UNL     1       2.400   4.902  21.201  0.00  0.00    +0.000 C 
BRANCH  18  19
ATOM     19  N   UNL     1       1.747   6.137  20.756  0.00  0.00    +0.000 NA
ATOM     20  H   UNL     1       0.773   6.108  21.072  0.00  0.00    +0.000 HD
ATOM     21  H   UNL     1       1.698   6.137  19.738  0.00  0.00    +0.000 HD
ENDBRANCH  18  19
ENDBRANCH  16  18
ENDBRANCH  14  16
ENDBRANCH   1  14
TORSDOF 7
ENDMDL
MODEL 2
REMARK VINA RESULT:      -6.6      2.807      4.267
REMARK  Name = 
REMARK  11 active torsions:
REMARK  status: ('A' for Active; 'I' for Inactive)
REMARK    1  A    between atoms: C_1  and  C_2
REMARK    2  A    between atoms: C_2  and  C_3
REMARK    3  A    between atoms: C_2  and  O_4
REMARK    4  A    between atoms: O_4  and  C_5
REMARK    5  A    between atoms: C_8  and  S_9
REMARK    6  A    between atoms: S_9  and  N_12
REMARK    7  A    between atoms: N_12  and  C_13
REMARK    8  A    between atoms: N_12  and  C_14
REMARK    9  A    between atoms: C_14  and  C_15
REMARK   10  A    between atoms: C_14  and  C_16
REMARK   11  A    between atoms: C_16  and  N_17
REMARK                            x       y       z     vdW  Elec       q    Type
REMARK                         _______ _______ _______ _____ _____    ______ ____
ROOT
ATOM      1  S   UNL     1       4.667   5.077  18.883  0.00  0.00    +0.000 S 
ATOM      2  O   UNL     1       5.815   4.915  19.753  0.00  0.00    +0.000 OA
ATOM      3  O   UNL     1       3.864   6.281  18.961  0.00  0.00    +0.000 OA
ENDROOT
BRANCH   1   7
ATOM      4  C   UNL     1       6.014   4.757  14.532  0.00  0.00    +0.000 A 
ATOM      5  C   UNL     1       5.421   5.928  15.011  0.00  0.00    +0.000 A 
ATOM      6  C   UNL     1       5.045   6.036  16.350  0.00  0.00    +0.000 A 
ATOM      7  C   UNL     1       5.244   4.958  17.210  0.00  0.00    +0.000 A 
ATOM      8  C   UNL     1       5.877   3.795  16.759  0.00  0.00    +0.000 A 
ATOM      9  C   UNL     1       6.232   3.691  15.412  0.00  0.00    +0.000 A 
BRANCH   4  10
ATOM     10  O   UNL     1       6.402   4.535  13.241  0.00  0.00    +0.000 OA
BRANCH  10  12
ATOM     11  C   UNL     1       4.683   3.546  11.917  0.00  0.00    +0.000 C 
ATOM     12  C   UNL     1       6.015   3.303  12.619  0.00  0.00    +0.000 C 
ATOM     13  C   UNL     1       7.080   2.875  11.614  0.00  0.00    +0.000 C 
ENDBRANCH  10  12
ENDBRANCH   4  10
ENDBRANCH   1   7
BRANCH   1  14
ATOM     14  N   UNL     1       3.638   3.734  19.052  0.00  0.00    +0.000 NA
ATOM     15  C   UNL     1       4.133   2.629  19.903  0.00  0.00    +0.000 C 
BRANCH  14  16
ATOM     16  C   UNL     1       2.131   3.828  19.025  0.00  0.00    +0.000 C 
ATOM     17  C   UNL     1       1.577   4.243  17.664  0.00  0.00    +0.000 C 
BRANCH  16  18
ATOM     18  C   UNL     1       1.399   2.578  19.563  0.00  0.00    +0.000 C 
BRANCH  18  19
ATOM     19  N   UNL     1       0.516   1.983  18.556  0.00  0.00    +0.000 NA
ATOM     20  H   UNL     1      -0.436   1.988  18.932  0.00  0.00    +0.000 HD
ATOM     21  H   UNL     1       0.755   0.998  18.446  0.00  0.00    +0.000 HD
ENDBRANCH  18  19
ENDBRANCH  16  18
ENDBRANCH  14  16
ENDBRANCH   1  14
TORSDOF 7
ENDMDL
MODEL 3
REMARK VINA RESULT:      -6.5      4.049      5.446
REMARK  Name = 
REMARK  11 active torsions:
REMARK  status: ('A' for Active; 'I' for Inactive)
REMARK    1  A    between atoms: C_1  and  C_2
REMARK    2  A    between atoms: C_2  and  C_3
REMARK    3  A    between atoms: C_2  and  O_4
REMARK    4  A    between atoms: O_4  and  C_5
REMARK    5  A    between atoms: C_8  and  S_9
REMARK    6  A    between atoms: S_9  and  N_12
REMARK    7  A    between atoms: N_12  and  C_13
REMARK    8  A    between atoms: N_12  and  C_14
REMARK    9  A    between atoms: C_14  and  C_15
REMARK   10  A    between atoms: C_14  and  C_16
REMARK   11  A    between atoms: C_16  and  N_17
REMARK                            x       y       z     vdW  Elec       q    Type
REMARK                         _______ _______ _______ _____ _____    ______ ____
ROOT
ATOM      1  S   UNL     1       3.467   5.415  18.764  0.00  0.00    +0.000 S 
ATOM      2  O   UNL     1       3.605   5.149  17.346  0.00  0.00    +0.000 OA
ATOM      3  O   UNL     1       4.647   5.526  19.597  0.00  0.00    +0.000 OA
ENDROOT
BRANCH   1   7
ATOM      4  C   UNL     1       1.301   9.409  19.211  0.00  0.00    +0.000 A 
ATOM      5  C   UNL     1       1.890   9.049  17.996  0.00  0.00    +0.000 A 
ATOM      6  C   UNL     1       2.519   7.812  17.852  0.00  0.00    +0.000 A 
ATOM      7  C   UNL     1       2.576   6.938  18.937  0.00  0.00    +0.000 A 
ATOM      8  C   UNL     1       1.953   7.264  20.146  0.00  0.00    +0.000 A 
ATOM      9  C   UNL     1       1.343   8.513  20.285  0.00  0.00    +0.000 A 
BRANCH   4  10
ATOM     10  O   UNL     1       0.678  10.598  19.469  0.00  0.00    +0.000 OA
BRANCH  10  12
ATOM     11  C   UNL     1      -1.097  11.820  20.490  0.00  0.00    +0.000 C 
ATOM     12  C   UNL     1      -0.742  10.591  19.660  0.00  0.00    +0.000 C 
ATOM     13  C   UNL     1      -1.446  10.637  18.307  0.00  0.00    +0.000 C 
ENDBRANCH  10  12
ENDBRANCH   4  10
ENDBRANCH   1   7
BRANCH   1  14
ATOM     14  N   UNL     1       2.429   4.259  19.456  0.00  0.00    +0.000 NA
ATOM     15  C   UNL     1       1.327   3.769  18.599  0.00  0.00    +0.000 C 
BRANCH  14  16
ATOM     16  C   UNL     1       2.873   3.246  20.483  0.00  0.00    +0.000 C 
ATOM     17  C   UNL     1       1.729   2.723  21.349  0.00  0.00    +0.000 C 
BRANCH  16  18
ATOM     18  C   UNL     1       3.715   2.081  19.914  0.00  0.00    +0.000 C 
BRANCH  18  19
ATOM     19  N   UNL     1       5.139   2.417  19.841  0.00  0.00    +0.000 NA
ATOM     20  H   UNL     1       5.309   3.202  20.476  0.00  0.00    +0.000 HD
ATOM     21  H   UNL     1       5.346   2.778  18.910  0.00  0.00    +0.000 HD
ENDBRANCH  18  19
ENDBRANCH  16  18
ENDBRANCH  14  16
ENDBRANCH   1  14
TORSDOF 7
ENDMDL
MODEL 4
REMARK VINA RESULT:      -6.5      2.715      4.160
REMARK  Name = 
REMARK  11 active torsions:
REMARK  status: ('A' for Active; 'I' for Inactive)
REMARK    1  A    between atoms: C_1  and  C_2
REMARK    2  A    between atoms: C_2  and  C_3
REMARK    3  A    between atoms: C_2  and  O_4
REMARK    4  A    between atoms: O_4  and  C_5
REMARK    5  A    between atoms: C_8  and  S_9
REMARK    6  A    between atoms: S_9  and  N_12
REMARK    7  A    between atoms: N_12  and  C_13
REMARK    8  A    between atoms: N_12  and  C_14
REMARK    9  A    between atoms: C_14  and  C_15
REMARK   10  A    between atoms: C_14  and  C_16
REMARK   11  A    between atoms: C_16  and  N_17
REMARK                            x       y       z     vdW  Elec       q    Type
REMARK                         _______ _______ _______ _____ _____    ______ ____
ROOT
ATOM      1  S   UNL     1       4.048   5.512  18.827  0.00  0.00    +0.000 S 
ATOM      2  O   UNL     1       5.011   5.191  19.861  0.00  0.00    +0.000 OA
ATOM      3  O   UNL     1       3.446   6.829  18.783  0.00  0.00    +0.000 OA
ENDROOT
BRANCH   1   7
ATOM      4  C   UNL     1       5.961   4.866  14.732  0.00  0.00    +0.000 A 
ATOM      5  C   UNL     1       5.424   6.108  15.081  0.00  0.00    +0.000 A 
ATOM      6  C   UNL     1       4.874   6.312  16.346  0.00  0.00    +0.000 A 
ATOM      7  C   UNL     1       4.842   5.262  17.262  0.00  0.00    +0.000 A 
ATOM      8  C   UNL     1       5.415   4.026  16.945  0.00  0.00    +0.000 A 
ATOM      9  C   UNL     1       5.946   3.827  15.668  0.00  0.00    +0.000 A 
BRANCH   4  10
ATOM     10  O   UNL     1       6.506   4.550  13.520  0.00  0.00    +0.000 OA
BRANCH  10  12
ATOM     11  C   UNL     1       4.696   3.704  12.217  0.00  0.00    +0.000 C 
ATOM     12  C   UNL     1       6.040   3.368  12.855  0.00  0.00    +0.000 C 
ATOM     13  C   UNL     1       7.047   2.943  11.791  0.00  0.00    +0.000 C 
ENDBRANCH  10  12
ENDBRANCH   4  10
ENDBRANCH   1   7
BRANCH   1  14
ATOM     14  N   UNL     1       2.802   4.353  18.837  0.00  0.00    +0.000 NA
ATOM     15  C   UNL     1       2.089   4.143  17.557  0.00  0.00    +0.000 C 
BRANCH  14  16
ATOM     16  C   UNL     1       2.812   3.125  19.715  0.00  0.00    +0.000 C 
ATOM     17  C   UNL     1       1.413   2.623  20.065  0.00  0.00    +0.000 C 
BRANCH  16  18
ATOM     18  C   UNL     1       3.702   1.972  19.199  0.00  0.00    +0.000 C 
BRANCH  18  19
ATOM     19  N   UNL     1       5.002   1.936  19.875  0.00  0.00    +0.000 NA
ATOM     20  H   UNL     1       4.907   2.437  20.763  0.00  0.00    +0.000 HD
ATOM     21  H   UNL     1       5.672   2.480  19.332  0.00  0.00    +0.000 HD
ENDBRANCH  18  19
ENDBRANCH  16  18
ENDBRANCH  14  16
ENDBRANCH   1  14
TORSDOF 7
ENDMDL
MODEL 5
REMARK VINA RESULT:      -6.5      0.912      1.682
REMARK  Name = 
REMARK  11 active torsions:
REMARK  status: ('A' for Active; 'I' for Inactive)
REMARK    1  A    between atoms: C_1  and  C_2
REMARK    2  A    between atoms: C_2  and  C_3
REMARK    3  A    between atoms: C_2  and  O_4
REMARK    4  A    between atoms: O_4  and  C_5
REMARK    5  A    between atoms: C_8  and  S_9
REMARK    6  A    between atoms: S_9  and  N_12
REMARK    7  A    between atoms: N_12  and  C_13
REMARK    8  A    between atoms: N_12  and  C_14
REMARK    9  A    between atoms: C_14  and  C_15
REMARK   10  A    between atoms: C_14  and  C_16
REMARK   11  A    between atoms: C_16  and  N_17
REMARK                            x       y       z     vdW  Elec       q    Type
REMARK                         _______ _______ _______ _____ _____    ______ ____
ROOT
ATOM      1  S   UNL     1       2.175   3.596  17.862  0.00  0.00    +0.000 S 
ATOM      2  O   UNL     1       0.953   4.038  17.219  0.00  0.00    +0.000 OA
ATOM      3  O   UNL     1       2.684   2.263  17.608  0.00  0.00    +0.000 OA
ENDROOT
BRANCH   1   7
ATOM      4  C   UNL     1       5.574   6.443  16.772  0.00  0.00    +0.000 A 
ATOM      5  C   UNL     1       5.564   5.128  16.299  0.00  0.00    +0.000 A 
ATOM      6  C   UNL     1       4.506   4.273  16.603  0.00  0.00    +0.000 A 
ATOM      7  C   UNL     1       3.459   4.729  17.403  0.00  0.00    +0.000 A 
ATOM      8  C   UNL     1       3.431   6.054  17.848  0.00  0.00    +0.000 A 
ATOM      9  C   UNL     1       4.505   6.896  17.554  0.00  0.00    +0.000 A 
BRANCH   4  10
ATOM     10  O   UNL     1       6.564   7.358  16.553  0.00  0.00    +0.000 OA
BRANCH  10  12
ATOM     11  C   UNL     1       8.045   8.675  17.879  0.00  0.00    +0.000 C 
ATOM     12  C   UNL     1       7.752   7.275  17.352  0.00  0.00    +0.000 C 
ATOM     13  C   UNL     1       7.532   6.303  18.506  0.00  0.00    +0.000 C 
ENDBRANCH  10  12
ENDBRANCH   4  10
ENDBRANCH   1   7
BRANCH   1  14
ATOM     14  N   UNL     1       2.034   3.805  19.544  0.00  0.00    +0.000 NA
ATOM     15  C   UNL     1       0.663   3.979  20.072  0.00  0.00    +0.000 C 
BRANCH  14  16
ATOM     16  C   UNL     1       2.977   3.181  20.545  0.00  0.00    +0.000 C 
ATOM     17  C   UNL     1       2.263   2.594  21.761  0.00  0.00    +0.000 C 
BRANCH  16  18
ATOM     18  C   UNL     1       3.973   2.164  19.943  0.00  0.00    +0.000 C 
BRANCH  18  19
ATOM     19  N   UNL     1       5.249   2.792  19.586  0.00  0.00    +0.000 NA
ATOM     20  H   UNL     1       5.426   3.545  20.256  0.00  0.00    +0.000 HD
ATOM     21  H   UNL     1       5.149   3.255  18.683  0.00  0.00    +0.000 HD
ENDBRANCH  18  19
ENDBRANCH  16  18
ENDBRANCH  14  16
ENDBRANCH   1  14
TORSDOF 7
ENDMDL
MODEL 6
REMARK VINA RESULT:      -6.5      2.973      4.361
REMARK  Name = 
REMARK  11 active torsions:
REMARK  status: ('A' for Active; 'I' for Inactive)
REMARK    1  A    between atoms: C_1  and  C_2
REMARK    2  A    between atoms: C_2  and  C_3
REMARK    3  A    between atoms: C_2  and  O_4
REMARK    4  A    between atoms: O_4  and  C_5
REMARK    5  A    between atoms: C_8  and  S_9
REMARK    6  A    between atoms: S_9  and  N_12
REMARK    7  A    between atoms: N_12  and  C_13
REMARK    8  A    between atoms: N_12  and  C_14
REMARK    9  A    between atoms: C_14  and  C_15
REMARK   10  A    between atoms: C_14  and  C_16
REMARK   11  A    between atoms: C_16  and  N_17
REMARK                            x       y       z     vdW  Elec       q    Type
REMARK                         _______ _______ _______ _____ _____    ______ ____
ROOT
ATOM      1  S   UNL     1       5.210   4.896  18.586  0.00  0.00    +0.000 S 
ATOM      2  O   UNL     1       6.355   4.582  19.417  0.00  0.00    +0.000 OA
ATOM      3  O   UNL     1       4.642   6.230  18.610  0.00  0.00    +0.000 OA
ENDROOT
BRANCH   1   7
ATOM      4  C   UNL     1       6.359   4.187  14.225  0.00  0.00    +0.000 A 
ATOM      5  C   UNL     1       7.242   4.825  15.101  0.00  0.00    +0.000 A 
ATOM      6  C   UNL     1       6.902   5.006  16.441  0.00  0.00    +0.000 A 
ATOM      7  C   UNL     1       5.664   4.566  16.904  0.00  0.00    +0.000 A 
ATOM      8  C   UNL     1       4.787   3.886  16.052  0.00  0.00    +0.000 A 
ATOM      9  C   UNL     1       5.129   3.727  14.707  0.00  0.00    +0.000 A 
BRANCH   4  10
ATOM     10  O   UNL     1       6.580   3.974  12.893  0.00  0.00    +0.000 OA
BRANCH  10  12
ATOM     11  C   UNL     1       4.703   3.357  11.557  0.00  0.00    +0.000 C 
ATOM     12  C   UNL     1       5.948   2.846  12.274  0.00  0.00    +0.000 C 
ATOM     13  C   UNL     1       6.908   2.196  11.283  0.00  0.00    +0.000 C 
ENDBRANCH  10  12
ENDBRANCH   4  10
ENDBRANCH   1   7
BRANCH   1  14
ATOM     14  N   UNL     1       3.965   3.779  18.895  0.00  0.00    +0.000 NA
ATOM     15  C   UNL     1       4.336   2.583  19.684  0.00  0.00    +0.000 C 
BRANCH  14  16
ATOM     16  C   UNL     1       2.515   4.168  19.060  0.00  0.00    +0.000 C 
ATOM     17  C   UNL     1       1.578   3.411  18.122  0.00  0.00    +0.000 C 
BRANCH  16  18
ATOM     18  C   UNL     1       1.998   4.123  20.515  0.00  0.00    +0.000 C 
BRANCH  18  19
ATOM     19  N   UNL     1       0.761   3.346  20.634  0.00  0.00    +0.000 NA
ATOM     20  H   UNL     1       0.001   3.999  20.846  0.00  0.00    +0.000 HD
ATOM     21  H   UNL     1       0.828   2.740  21.451  0.00  0.00    +0.000 HD
ENDBRANCH  18  19
ENDBRANCH  16  18
ENDBRANCH  14  16
ENDBRANCH   1  14
TORSDOF 7
ENDMDL
MODEL 7
REMARK VINA RESULT:      -6.5      2.684      5.987
REMARK  Name = 
REMARK  11 active torsions:
REMARK  status: ('A' for Active; 'I' for Inactive)
REMARK    1  A    between atoms: C_1  and  C_2
REMARK    2  A    between atoms: C_2  and  C_3
REMARK    3  A    between atoms: C_2  and  O_4
REMARK    4  A    between atoms: O_4  and  C_5
REMARK    5  A    between atoms: C_8  and  S_9
REMARK    6  A    between atoms: S_9  and  N_12
REMARK    7  A    between atoms: N_12  and  C_13
REMARK    8  A    between atoms: N_12  and  C_14
REMARK    9  A    between atoms: C_14  and  C_15
REMARK   10  A    between atoms: C_14  and  C_16
REMARK   11  A    between atoms: C_16  and  N_17
REMARK                            x       y       z     vdW  Elec       q    Type
REMARK                         _______ _______ _______ _____ _____    ______ ____
ROOT
ATOM      1  S   UNL     1       6.461   4.999  16.079  0.00  0.00    +0.000 S 
ATOM      2  O   UNL     1       7.692   4.251  16.240  0.00  0.00    +0.000 OA
ATOM      3  O   UNL     1       5.878   5.159  14.762  0.00  0.00    +0.000 OA
ENDROOT
BRANCH   1   7
ATOM      4  C   UNL     1       3.215   3.127  18.688  0.00  0.00    +0.000 A 
ATOM      5  C   UNL     1       2.974   3.408  17.340  0.00  0.00    +0.000 A 
ATOM      6  C   UNL     1       3.980   3.945  16.537  0.00  0.00    +0.000 A 
ATOM      7  C   UNL     1       5.229   4.222  17.090  0.00  0.00    +0.000 A 
ATOM      8  C   UNL     1       5.501   3.907  18.425  0.00  0.00    +0.000 A 
ATOM      9  C   UNL     1       4.480   3.386  19.225  0.00  0.00    +0.000 A 
BRANCH   4  10
ATOM     10  O   UNL     1       2.301   2.620  19.568  0.00  0.00    +0.000 OA
BRANCH  10  12
ATOM     11  C   UNL     1       1.078   4.490  20.402  0.00  0.00    +0.000 C 
ATOM     12  C   UNL     1       2.034   3.358  20.767  0.00  0.00    +0.000 C 
ATOM     13  C   UNL     1       1.403   2.440  21.809  0.00  0.00    +0.000 C 
ENDBRANCH  10  12
ENDBRANCH   4  10
ENDBRANCH   1   7
BRANCH   1  14
ATOM     14  N   UNL     1       6.642   6.540  16.776  0.00  0.00    +0.000 NA
ATOM     15  C   UNL     1       5.404   7.333  16.949  0.00  0.00    +0.000 C 
BRANCH  14  16
ATOM     16  C   UNL     1       7.706   6.876  17.793  0.00  0.00    +0.000 C 
ATOM     17  C   UNL     1       8.054   8.363  17.832  0.00  0.00    +0.000 C 
BRANCH  16  18
ATOM     18  C   UNL     1       7.431   6.334  19.214  0.00  0.00    +0.000 C 
BRANCH  18  19
ATOM     19  N   UNL     1       8.502   5.447  19.679  0.00  0.00    +0.000 NA
ATOM     20  H   UNL     1       9.332   5.632  19.109  0.00  0.00    +0.000 HD
ATOM     21  H   UNL     1       8.245   4.482  19.472  0.00  0.00    +0.000 HD
ENDBRANCH  18  19
ENDBRANCH  16  18
ENDBRANCH  14  16
ENDBRANCH   1  14
TORSDOF 7
ENDMDL
MODEL 8
REMARK VINA RESULT:      -6.5      0.992      2.036
REMARK  Name = 
REMARK  11 active torsions:
REMARK  status: ('A' for Active; 'I' for Inactive)
REMARK    1  A    between atoms: C_1  and  C_2
REMARK    2  A    between atoms: C_2  and  C_3
REMARK    3  A    between atoms: C_2  and  O_4
REMARK    4  A    between atoms: O_4  and  C_5
REMARK    5  A    between atoms: C_8  and  S_9
REMARK    6  A    between atoms: S_9  and  N_12
REMARK    7  A    between atoms: N_12  and  C_13
REMARK    8  A    between atoms: N_12  and  C_14
REMARK    9  A    between atoms: C_14  and  C_15
REMARK   10  A    between atoms: C_14  and  C_16
REMARK   11  A    between atoms: C_16  and  N_17
REMARK                            x       y       z     vdW  Elec       q    Type
REMARK                         _______ _______ _______ _____ _____    ______ ____
ROOT
ATOM      1  S   UNL     1       2.095   3.640  17.661  0.00  0.00    +0.000 S 
ATOM      2  O   UNL     1       0.933   4.211  17.009  0.00  0.00    +0.000 OA
ATOM      3  O   UNL     1       2.587   2.339  17.255  0.00  0.00    +0.000 OA
ENDROOT
BRANCH   1   7
ATOM      4  C   UNL     1       5.472   6.647  17.023  0.00  0.00    +0.000 A 
ATOM      5  C   UNL     1       4.323   7.004  17.734  0.00  0.00    +0.000 A 
ATOM      6  C   UNL     1       3.310   6.072  17.959  0.00  0.00    +0.000 A 
ATOM      7  C   UNL     1       3.438   4.780  17.452  0.00  0.00    +0.000 A 
ATOM      8  C   UNL     1       4.600   4.393  16.777  0.00  0.00    +0.000 A 
ATOM      9  C   UNL     1       5.600   5.340  16.541  0.00  0.00    +0.000 A 
BRANCH   4  10
ATOM     10  O   UNL     1       6.513   7.481  16.729  0.00  0.00    +0.000 OA
BRANCH  10  12
ATOM     11  C   UNL     1       8.186   8.667  17.946  0.00  0.00    +0.000 C 
ATOM     12  C   UNL     1       7.747   7.299  17.435  0.00  0.00    +0.000 C 
ATOM     13  C   UNL     1       7.539   6.334  18.599  0.00  0.00    +0.000 C 
ENDBRANCH  10  12
ENDBRANCH   4  10
ENDBRANCH   1   7
BRANCH   1  14
ATOM     14  N   UNL     1       1.844   3.618  19.343  0.00  0.00    +0.000 NA
ATOM     15  C   UNL     1       0.645   2.891  19.819  0.00  0.00    +0.000 C 
BRANCH  14  16
ATOM     16  C   UNL     1       2.964   3.634  20.355  0.00  0.00    +0.000 C 
ATOM     17  C   UNL     1       2.532   4.152  21.725  0.00  0.00    +0.000 C 
BRANCH  16  18
ATOM     18  C   UNL     1       3.733   2.300  20.485  0.00  0.00    +0.000 C 
BRANCH  18  19
ATOM     19  N   UNL     1       4.908   2.256  19.610  0.00  0.00    +0.000 NA
ATOM     20  H   UNL     1       4.956   3.145  19.105  0.00  0.00    +0.000 HD
ATOM     21  H   UNL     1       4.760   1.548  18.892  0.00  0.00    +0.000 HD
ENDBRANCH  18  19
ENDBRANCH  16  18
ENDBRANCH  14  16
ENDBRANCH   1  14
TORSDOF 7
ENDMDL
MODEL 9
REMARK VINA RESULT:      -6.5      4.166      5.355
REMARK  Name = 
REMARK  11 active torsions:
REMARK  status: ('A' for Active; 'I' for Inactive)
REMARK    1  A    between atoms: C_1  and  C_2
REMARK    2  A    between atoms: C_2  and  C_3
REMARK    3  A    between atoms: C_2  and  O_4
REMARK    4  A    between atoms: O_4  and  C_5
REMARK    5  A    between atoms: C_8  and  S_9
REMARK    6  A    between atoms: S_9  and  N_12
REMARK    7  A    between atoms: N_12  and  C_13
REMARK    8  A    between atoms: N_12  and  C_14
REMARK    9  A    between atoms: C_14  and  C_15
REMARK   10  A    between atoms: C_14  and  C_16
REMARK   11  A    between atoms: C_16  and  N_17
REMARK                            x       y       z     vdW  Elec       q    Type
REMARK                         _______ _______ _______ _____ _____    ______ ____
ROOT
ATOM      1  S   UNL     1       3.489   5.742  18.597  0.00  0.00    +0.000 S 
ATOM      2  O   UNL     1       3.839   5.686  17.192  0.00  0.00    +0.000 OA
ATOM      3  O   UNL     1       4.530   5.703  19.605  0.00  0.00    +0.000 OA
ENDROOT
BRANCH   1   7
ATOM      4  C   UNL     1       1.023   9.523  19.279  0.00  0.00    +0.000 A 
ATOM      5  C   UNL     1       1.234   8.612  20.317  0.00  0.00    +0.000 A 
ATOM      6  C   UNL     1       2.020   7.477  20.116  0.00  0.00    +0.000 A 
ATOM      7  C   UNL     1       2.580   7.241  18.861  0.00  0.00    +0.000 A 
ATOM      8  C   UNL     1       2.415   8.164  17.824  0.00  0.00    +0.000 A 
ATOM      9  C   UNL     1       1.611   9.288  18.032  0.00  0.00    +0.000 A 
BRANCH   4  10
ATOM     10  O   UNL     1       0.259  10.653  19.359  0.00  0.00    +0.000 OA
BRANCH  10  12
ATOM     11  C   UNL     1      -0.245  12.836  18.542  0.00  0.00    +0.000 C 
ATOM     12  C   UNL     1       0.866  11.906  19.018  0.00  0.00    +0.000 C 
ATOM     13  C   UNL     1       1.567  12.491  20.240  0.00  0.00    +0.000 C 
ENDBRANCH  10  12
ENDBRANCH   4  10
ENDBRANCH   1   7
BRANCH   1  14
ATOM     14  N   UNL     1       2.360   4.518  18.946  0.00  0.00    +0.000 NA
ATOM     15  C   UNL     1       1.500   4.079  17.825  0.00  0.00    +0.000 C 
BRANCH  14  16
ATOM     16  C   UNL     1       2.594   3.434  19.970  0.00  0.00    +0.000 C 
ATOM     17  C   UNL     1       1.304   2.904  20.593  0.00  0.00    +0.000 C 
BRANCH  16  18
ATOM     18  C   UNL     1       3.493   2.274  19.486  0.00  0.00    +0.000 C 
BRANCH  18  19
ATOM     19  N   UNL     1       4.915   2.556  19.698  0.00  0.00    +0.000 NA
ATOM     20  H   UNL     1       5.428   2.211  18.881  0.00  0.00    +0.000 HD
ATOM     21  H   UNL     1       5.251   1.996  20.481  0.00  0.00    +0.000 HD
ENDBRANCH  18  19
ENDBRANCH  16  18
ENDBRANCH  14  16
ENDBRANCH   1  14
TORSDOF 7
ENDMDL
