MODEL 1
REMARK VINA RESULT:      -6.7      0.000      0.000
REMARK  Name = 
REMARK  15 active torsions:
REMARK  status: ('A' for Active; 'I' for Inactive)
REMARK    1  A    between atoms: C_1  and  C_2
REMARK    2  A    between atoms: C_2  and  C_3
REMARK    3  A    between atoms: C_3  and  C_5
REMARK    4  A    between atoms: C_5  and  C_6
REMARK    5  A    between atoms: C_5  and  C_20
REMARK    6  A    between atoms: C_6  and  C_7
REMARK    7  A    between atoms: C_7  and  C_8
REMARK    8  A    between atoms: C_8  and  C_9
REMARK    9  A    between atoms: C_9  and  C_10
REMARK   10  A    between atoms: C_10  and  C_11
REMARK   11  A    between atoms: C_11  and  C_12
REMARK   12  A    between atoms: C_12  and  C_13
REMARK   13  A    between atoms: C_16  and  O_17
REMARK   14  A    between atoms: C_20  and  C_22
REMARK   15  A    between atoms: C_22  and  C_23
REMARK                            x       y       z     vdW  Elec       q    Type
REMARK                         _______ _______ _______ _____ _____    ______ ____
ROOT
ATOM      1  C   UNL     1       3.205   6.617  17.346  0.00  0.00    +0.000 C 
ENDROOT
BRANCH   1   2
ATOM      2  C   UNL     1       4.672   6.227  17.164  0.00  0.00    +0.000 C 
BRANCH   2   3
ATOM      3  C   UNL     1       4.919   4.720  17.242  0.00  0.00    +0.000 C 
BRANCH   3   4
ATOM      4  C   UNL     1       6.326   4.318  16.744  0.00  0.00    +0.000 C 
BRANCH   4   5
ATOM      5  C   UNL     1       7.417   4.654  17.759  0.00  0.00    +0.000 C 
ATOM      6  O   UNL     1       8.513   4.090  17.749  0.00  0.00    +0.000 OA
BRANCH   5   8
ATOM      7  C   UNL     1       8.012   6.996  18.430  0.00  0.00    +0.000 C 
ATOM      8  C   UNL     1       7.136   5.792  18.727  0.00  0.00    +0.000 C 
ENDBRANCH   5   8
ENDBRANCH   4   5
BRANCH   4   9
ATOM      9  C   UNL     1       6.594   4.896  15.359  0.00  0.00    +0.000 C 
ATOM     10  O   UNL     1       7.570   5.611  15.131  0.00  0.00    +0.000 OA
BRANCH   9  11
ATOM     11  C   UNL     1       5.625   4.503  14.253  0.00  0.00    +0.000 C 
ATOM     12  C   UNL     1       6.290   3.693  13.154  0.00  0.00    +0.000 C 
ENDBRANCH   9  11
ENDBRANCH   4   9
ENDBRANCH   3   4
ENDBRANCH   2   3
ENDBRANCH   1   2
BRANCH   1  13
ATOM     13  C   UNL     1       3.058   7.829  18.277  0.00  0.00    +0.000 C 
BRANCH  13  14
ATOM     14  C   UNL     1       1.974   7.623  19.338  0.00  0.00    +0.000 C 
BRANCH  14  15
ATOM     15  C   UNL     1       2.365   6.576  20.373  0.00  0.00    +0.000 C 
BRANCH  15  16
ATOM     16  C   UNL     1       1.397   5.392  20.305  0.00  0.00    +0.000 C 
BRANCH  16  17
ATOM     17  C   UNL     1       2.065   4.170  19.738  0.00  0.00    +0.000 A 
ATOM     18  C   UNL     1       1.568   3.559  18.578  0.00  0.00    +0.000 A 
ATOM     19  C   UNL     1       2.170   2.406  18.075  0.00  0.00    +0.000 A 
ATOM     20  C   UNL     1       3.268   1.863  18.736  0.00  0.00    +0.000 A 
ATOM     21  C   UNL     1       3.772   2.455  19.888  0.00  0.00    +0.000 A 
ATOM     22  C   UNL     1       3.170   3.607  20.390  0.00  0.00    +0.000 A 
BRANCH  20  23
ATOM     23  O   UNL     1       3.881   0.731  18.285  0.00  0.00    +0.000 OA
ATOM     24  H   UNL     1       3.256   0.253  17.717  0.00  0.00    +0.000 HD
ENDBRANCH  20  23
ENDBRANCH  16  17
ENDBRANCH  15  16
ENDBRANCH  14  15
ENDBRANCH  13  14
ENDBRANCH   1  13
TORSDOF 13
ENDMDL
MODEL 2
REMARK VINA RESULT:      -6.5      0.840      1.370
REMARK  Name = 
REMARK  15 active torsions:
REMARK  status: ('A' for Active; 'I' for Inactive)
REMARK    1  A    between atoms: C_1  and  C_2
REMARK    2  A    between atoms: C_2  and  C_3
REMARK    3  A    between atoms: C_3  and  C_5
REMARK    4  A    between atoms: C_5  and  C_6
REMARK    5  A    between atoms: C_5  and  C_20
REMARK    6  A    between atoms: C_6  and  C_7
REMARK    7  A    between atoms: C_7  and  C_8
REMARK    8  A    between atoms: C_8  and  C_9
REMARK    9  A    between atoms: C_9  and  C_10
REMARK   10  A    between atoms: C_10  and  C_11
REMARK   11  A    between atoms: C_11  and  C_12
REMARK   12  A    between atoms: C_12  and  C_13
REMARK   13  A    between atoms: C_16  and  O_17
REMARK   14  A    between atoms: C_20  and  C_22
REMARK   15  A    between atoms: C_22  and  C_23
REMARK                            x       y       z     vdW  Elec       q    Type
REMARK                         _______ _______ _______ _____ _____    ______ ____
ROOT
ATOM      1  C   UNL     1       2.975   7.049  17.548  0.00  0.00    +0.000 C 
ENDROOT
BRANCH   1   2
ATOM      2  C   UNL     1       4.137   6.055  17.520  0.00  0.00    +0.000 C 
BRANCH   2   3
ATOM      3  C   UNL     1       4.973   6.127  16.241  0.00  0.00    +0.000 C 
BRANCH   3   4
ATOM      4  C   UNL     1       6.046   5.017  16.166  0.00  0.00    +0.000 C 
BRANCH   4   5
ATOM      5  C   UNL     1       7.216   5.280  17.112  0.00  0.00    +0.000 C 
ATOM      6  O   UNL     1       7.946   4.372  17.516  0.00  0.00    +0.000 OA
BRANCH   5   8
ATOM      7  C   UNL     1       8.122   6.851  18.845  0.00  0.00    +0.000 C 
ATOM      8  C   UNL     1       7.515   6.730  17.458  0.00  0.00    +0.000 C 
ENDBRANCH   5   8
ENDBRANCH   4   5
BRANCH   4   9
ATOM      9  C   UNL     1       6.479   4.782  14.724  0.00  0.00    +0.000 C 
ATOM     10  O   UNL     1       7.167   5.599  14.110  0.00  0.00    +0.000 OA
BRANCH   9  11
ATOM     11  C   UNL     1       6.067   3.461  14.091  0.00  0.00    +0.000 C 
ATOM     12  C   UNL     1       5.895   3.563  12.585  0.00  0.00    +0.000 C 
ENDBRANCH   9  11
ENDBRANCH   4   9
ENDBRANCH   3   4
ENDBRANCH   2   3
ENDBRANCH   1   2
BRANCH   1  13
ATOM     13  C   UNL     1       2.495   7.310  18.983  0.00  0.00    +0.000 C 
BRANCH  13  14
ATOM     14  C   UNL     1       2.959   6.227  19.960  0.00  0.00    +0.000 C 
BRANCH  14  15
ATOM     15  C   UNL     1       1.831   5.725  20.852  0.00  0.00    +0.000 C 
BRANCH  15  16
ATOM     16  C   UNL     1       1.002   4.680  20.102  0.00  0.00    +0.000 C 
BRANCH  16  17
ATOM     17  C   UNL     1       1.868   3.574  19.566  0.00  0.00    +0.000 A 
ATOM     18  C   UNL     1       2.783   2.916  20.400  0.00  0.00    +0.000 A 
ATOM     19  C   UNL     1       3.608   1.915  19.890  0.00  0.00    +0.000 A 
ATOM     20  C   UNL     1       3.521   1.576  18.543  0.00  0.00    +0.000 A 
ATOM     21  C   UNL     1       2.622   2.220  17.702  0.00  0.00    +0.000 A 
ATOM     22  C   UNL     1       1.797   3.221  18.211  0.00  0.00    +0.000 A 
BRANCH  20  23
ATOM     23  O   UNL     1       4.316   0.611  17.999  0.00  0.00    +0.000 OA
ATOM     24  H   UNL     1       5.019   0.402  18.636  0.00  0.00    +0.000 HD
ENDBRANCH  20  23
ENDBRANCH  16  17
ENDBRANCH  15  16
ENDBRANCH  14  15
ENDBRANCH  13  14
ENDBRANCH   1  13
TORSDOF 13
ENDMDL
MODEL 3
REMARK VINA RESULT:      -6.5      2.401      4.923
REMARK  Name = 
REMARK  15 active torsions:
REMARK  status: ('A' for Active; 'I' for Inactive)
REMARK    1  A    between atoms: C_1  and  C_2
REMARK    2  A    between atoms: C_2  and  C_3
REMARK    3  A    between atoms: C_3  and  C_5
REMARK    4  A    between atoms: C_5  and  C_6
REMARK    5  A    between atoms: C_5  and  C_20
REMARK    6  A    between atoms: C_6  and  C_7
REMARK    7  A    between atoms: C_7  and  C_8
REMARK    8  A    between atoms: C_8  and  C_9
REMARK    9  A    between atoms: C_9  and  C_10
REMARK   10  A    between atoms: C_10  and  C_11
REMARK   11  A    between atoms: C_11  and  C_12
REMARK   12  A    between atoms: C_12  and  C_13
REMARK   13  A    between atoms: C_16  and  O_17
REMARK   14  A    between atoms: C_20  and  C_22
REMARK   15  A    between atoms: C_22  and  C_23
REMARK                            x       y       z     vdW  Elec       q    Type
REMARK                         _______ _______ _______ _____ _____    ______ ____
ROOT
ATOM      1  C   UNL     1       2.063   4.086  17.812  0.00  0.00    +0.000 C 
ENDROOT
BRANCH   1   2
ATOM      2  C   UNL     1       3.080   3.400  16.898  0.00  0.00    +0.000 C 
BRANCH   2   3
ATOM      3  C   UNL     1       4.534   3.672  17.286  0.00  0.00    +0.000 C 
BRANCH   3   4
ATOM      4  C   UNL     1       4.906   5.169  17.199  0.00  0.00    +0.000 C 
BRANCH   4   5
ATOM      5  C   UNL     1       5.199   5.610  15.766  0.00  0.00    +0.000 C 
ATOM      6  O   UNL     1       5.198   6.798  15.436  0.00  0.00    +0.000 OA
BRANCH   5   8
ATOM      7  C   UNL     1       6.958   4.813  14.166  0.00  0.00    +0.000 C 
ATOM      8  C   UNL     1       5.598   4.527  14.777  0.00  0.00    +0.000 C 
ENDBRANCH   5   8
ENDBRANCH   4   5
BRANCH   4   9
ATOM      9  C   UNL     1       6.029   5.504  18.173  0.00  0.00    +0.000 C 
ATOM     10  O   UNL     1       5.887   5.398  19.392  0.00  0.00    +0.000 OA
BRANCH   9  11
ATOM     11  C   UNL     1       7.360   5.927  17.566  0.00  0.00    +0.000 C 
ATOM     12  C   UNL     1       7.689   7.384  17.838  0.00  0.00    +0.000 C 
ENDBRANCH   9  11
ENDBRANCH   4   9
ENDBRANCH   3   4
ENDBRANCH   2   3
ENDBRANCH   1   2
BRANCH   1  13
ATOM     13  C   UNL     1       2.112   3.511  19.235  0.00  0.00    +0.000 C 
BRANCH  13  14
ATOM     14  C   UNL     1       1.053   4.129  20.150  0.00  0.00    +0.000 C 
BRANCH  14  15
ATOM     15  C   UNL     1       1.573   5.348  20.902  0.00  0.00    +0.000 C 
BRANCH  15  16
ATOM     16  C   UNL     1       2.664   6.039  20.080  0.00  0.00    +0.000 C 
BRANCH  16  17
ATOM     17  C   UNL     1       2.185   7.356  19.532  0.00  0.00    +0.000 A 
ATOM     18  C   UNL     1       2.543   7.763  18.239  0.00  0.00    +0.000 A 
ATOM     19  C   UNL     1       2.125   9.000  17.749  0.00  0.00    +0.000 A 
ATOM     20  C   UNL     1       1.353   9.830  18.556  0.00  0.00    +0.000 A 
ATOM     21  C   UNL     1       0.991   9.443  19.840  0.00  0.00    +0.000 A 
ATOM     22  C   UNL     1       1.409   8.208  20.330  0.00  0.00    +0.000 A 
BRANCH  20  23
ATOM     23  O   UNL     1       0.932  11.052  18.120  0.00  0.00    +0.000 OA
ATOM     24  H   UNL     1       1.355  11.233  17.266  0.00  0.00    +0.000 HD
ENDBRANCH  20  23
ENDBRANCH  16  17
ENDBRANCH  15  16
ENDBRANCH  14  15
ENDBRANCH  13  14
ENDBRANCH   1  13
TORSDOF 13
ENDMDL
MODEL 4
REMARK VINA RESULT:      -6.3      1.250      2.973
REMARK  Name = 
REMARK  15 active torsions:
REMARK  status: ('A' for Active; 'I' for Inactive)
REMARK    1  A    between atoms: C_1  and  C_2
REMARK    2  A    between atoms: C_2  and  C_3
REMARK    3  A    between atoms: C_3  and  C_5
REMARK    4  A    between atoms: C_5  and  C_6
REMARK    5  A    between atoms: C_5  and  C_20
REMARK    6  A    between atoms: C_6  and  C_7
REMARK    7  A    between atoms: C_7  and  C_8
REMARK    8  A    between atoms: C_8  and  C_9
REMARK    9  A    between atoms: C_9  and  C_10
REMARK   10  A    between atoms: C_10  and  C_11
REMARK   11  A    between atoms: C_11  and  C_12
REMARK   12  A    between atoms: C_12  and  C_13
REMARK   13  A    between atoms: C_16  and  O_17
REMARK   14  A    between atoms: C_20  and  C_22
REMARK   15  A    between atoms: C_22  and  C_23
REMARK                            x       y       z     vdW  Elec       q    Type
REMARK                         _______ _______ _______ _____ _____    ______ ____
ROOT
ATOM      1  C   UNL     1       2.277   7.194  17.855  0.00  0.00    +0.000 C 
ENDROOT
BRANCH   1   2
ATOM      2  C   UNL     1       3.680   7.373  17.273  0.00  0.00    +0.000 C 
BRANCH   2   3
ATOM      3  C   UNL     1       4.536   6.107  17.338  0.00  0.00    +0.000 C 
BRANCH   3   4
ATOM      4  C   UNL     1       5.678   6.104  16.298  0.00  0.00    +0.000 C 
BRANCH   4   5
ATOM      5  C   UNL     1       5.702   4.820  15.469  0.00  0.00    +0.000 C 
ATOM      6  O   UNL     1       4.920   3.891  15.684  0.00  0.00    +0.000 OA
BRANCH   5   8
ATOM      7  C   UNL     1       6.235   3.731  13.274  0.00  0.00    +0.000 C 
ATOM      8  C   UNL     1       6.663   4.773  14.293  0.00  0.00    +0.000 C 
ENDBRANCH   5   8
ENDBRANCH   4   5
BRANCH   4   9
ATOM      9  C   UNL     1       7.014   6.416  16.961  0.00  0.00    +0.000 C 
ATOM     10  O   UNL     1       7.568   7.507  16.826  0.00  0.00    +0.000 OA
BRANCH   9  11
ATOM     11  C   UNL     1       7.610   5.330  17.847  0.00  0.00    +0.000 C 
ATOM     12  C   UNL     1       7.686   5.743  19.306  0.00  0.00    +0.000 C 
ENDBRANCH   9  11
ENDBRANCH   4   9
ENDBRANCH   3   4
ENDBRANCH   2   3
ENDBRANCH   1   2
BRANCH   1  13
ATOM     13  C   UNL     1       2.275   7.377  19.380  0.00  0.00    +0.000 C 
BRANCH  13  14
ATOM     14  C   UNL     1       2.706   6.110  20.120  0.00  0.00    +0.000 C 
BRANCH  14  15
ATOM     15  C   UNL     1       1.605   5.556  21.016  0.00  0.00    +0.000 C 
BRANCH  15  16
ATOM     16  C   UNL     1       0.811   4.486  20.262  0.00  0.00    +0.000 C 
BRANCH  16  17
ATOM     17  C   UNL     1       1.722   3.464  19.640  0.00  0.00    +0.000 A 
ATOM     18  C   UNL     1       2.686   2.802  20.415  0.00  0.00    +0.000 A 
ATOM     19  C   UNL     1       3.551   1.880  19.827  0.00  0.00    +0.000 A 
ATOM     20  C   UNL     1       3.454   1.625  18.462  0.00  0.00    +0.000 A 
ATOM     21  C   UNL     1       2.506   2.273  17.680  0.00  0.00    +0.000 A 
ATOM     22  C   UNL     1       1.641   3.194  18.267  0.00  0.00    +0.000 A 
BRANCH  20  23
ATOM     23  O   UNL     1       4.286   0.739  17.844  0.00  0.00    +0.000 OA
ATOM     24  H   UNL     1       3.800   0.324  17.113  0.00  0.00    +0.000 HD
ENDBRANCH  20  23
ENDBRANCH  16  17
ENDBRANCH  15  16
ENDBRANCH  14  15
ENDBRANCH  13  14
ENDBRANCH   1  13
TORSDOF 13
ENDMDL
MODEL 5
REMARK VINA RESULT:      -6.2      2.035      4.751
REMARK  Name = 
REMARK  15 active torsions:
REMARK  status: ('A' for Active; 'I' for Inactive)
REMARK    1  A    between atoms: C_1  and  C_2
REMARK    2  A    between atoms: C_2  and  C_3
REMARK    3  A    between atoms: C_3  and  C_5
REMARK    4  A    between atoms: C_5  and  C_6
REMARK    5  A    between atoms: C_5  and  C_20
REMARK    6  A    between atoms: C_6  and  C_7
REMARK    7  A    between atoms: C_7  and  C_8
REMARK    8  A    between atoms: C_8  and  C_9
REMARK    9  A    between atoms: C_9  and  C_10
REMARK   10  A    between atoms: C_10  and  C_11
REMARK   11  A    between atoms: C_11  and  C_12
REMARK   12  A    between atoms: C_12  and  C_13
REMARK   13  A    between atoms: C_16  and  O_17
REMARK   14  A    between atoms: C_20  and  C_22
REMARK   15  A    between atoms: C_22  and  C_23
REMARK                            x       y       z     vdW  Elec       q    Type
REMARK                         _______ _______ _______ _____ _____    ______ ____
ROOT
ATOM      1  C   UNL     1       1.983   3.666  17.796  0.00  0.00    +0.000 C 
ENDROOT
BRANCH   1   2
ATOM      2  C   UNL     1       3.480   3.586  18.098  0.00  0.00    +0.000 C 
BRANCH   2   3
ATOM      3  C   UNL     1       4.364   3.759  16.861  0.00  0.00    +0.000 C 
BRANCH   3   4
ATOM      4  C   UNL     1       5.072   5.132  16.820  0.00  0.00    +0.000 C 
BRANCH   4   5
ATOM      5  C   UNL     1       5.370   5.587  15.392  0.00  0.00    +0.000 C 
ATOM      6  O   UNL     1       5.235   6.761  15.040  0.00  0.00    +0.000 OA
BRANCH   5   8
ATOM      7  C   UNL     1       7.334   4.939  13.974  0.00  0.00    +0.000 C 
ATOM      8  C   UNL     1       5.943   4.550  14.441  0.00  0.00    +0.000 C 
ENDBRANCH   5   8
ENDBRANCH   4   5
BRANCH   4   9
ATOM      9  C   UNL     1       6.301   5.133  17.721  0.00  0.00    +0.000 C 
ATOM     10  O   UNL     1       7.001   4.131  17.867  0.00  0.00    +0.000 OA
BRANCH   9  11
ATOM     11  C   UNL     1       6.658   6.452  18.393  0.00  0.00    +0.000 C 
ATOM     12  C   UNL     1       7.602   7.298  17.557  0.00  0.00    +0.000 C 
ENDBRANCH   9  11
ENDBRANCH   4   9
ENDBRANCH   3   4
ENDBRANCH   2   3
ENDBRANCH   1   2
BRANCH   1  13
ATOM     13  C   UNL     1       1.148   3.079  18.943  0.00  0.00    +0.000 C 
BRANCH  13  14
ATOM     14  C   UNL     1       0.850   4.109  20.034  0.00  0.00    +0.000 C 
BRANCH  14  15
ATOM     15  C   UNL     1       2.099   4.852  20.490  0.00  0.00    +0.000 C 
BRANCH  15  16
ATOM     16  C   UNL     1       1.708   6.201  21.098  0.00  0.00    +0.000 C 
BRANCH  16  17
ATOM     17  C   UNL     1       1.815   7.309  20.088  0.00  0.00    +0.000 A 
ATOM     18  C   UNL     1       1.158   8.530  20.296  0.00  0.00    +0.000 A 
ATOM     19  C   UNL     1       1.232   9.543  19.340  0.00  0.00    +0.000 A 
ATOM     20  C   UNL     1       1.961   9.330  18.173  0.00  0.00    +0.000 A 
ATOM     21  C   UNL     1       2.617   8.125  17.950  0.00  0.00    +0.000 A 
ATOM     22  C   UNL     1       2.542   7.114  18.905  0.00  0.00    +0.000 A 
BRANCH  20  23
ATOM     23  O   UNL     1       2.052  10.288  17.207  0.00  0.00    +0.000 OA
ATOM     24  H   UNL     1       1.435  10.060  16.493  0.00  0.00    +0.000 HD
ENDBRANCH  20  23
ENDBRANCH  16  17
ENDBRANCH  15  16
ENDBRANCH  14  15
ENDBRANCH  13  14
ENDBRANCH   1  13
TORSDOF 13
ENDMDL
MODEL 6
REMARK VINA RESULT:      -6.2      1.166      2.739
REMARK  Name = 
REMARK  15 active torsions:
REMARK  status: ('A' for Active; 'I' for Inactive)
REMARK    1  A    between atoms: C_1  and  C_2
REMARK    2  A    between atoms: C_2  and  C_3
REMARK    3  A    between atoms: C_3  and  C_5
REMARK    4  A    between atoms: C_5  and  C_6
REMARK    5  A    between atoms: C_5  and  C_20
REMARK    6  A    between atoms: C_6  and  C_7
REMARK    7  A    between atoms: C_7  and  C_8
REMARK    8  A    between atoms: C_8  and  C_9
REMARK    9  A    between atoms: C_9  and  C_10
REMARK   10  A    between atoms: C_10  and  C_11
REMARK   11  A    between atoms: C_11  and  C_12
REMARK   12  A    between atoms: C_12  and  C_13
REMARK   13  A    between atoms: C_16  and  O_17
REMARK   14  A    between atoms: C_20  and  C_22
REMARK   15  A    between atoms: C_22  and  C_23
REMARK                            x       y       z     vdW  Elec       q    Type
REMARK                         _______ _______ _______ _____ _____    ______ ____
ROOT
ATOM      1  C   UNL     1       2.258   7.624  17.737  0.00  0.00    +0.000 C 
ENDROOT
BRANCH   1   2
ATOM      2  C   UNL     1       3.733   7.432  17.382  0.00  0.00    +0.000 C 
BRANCH   2   3
ATOM      3  C   UNL     1       4.163   5.965  17.322  0.00  0.00    +0.000 C 
BRANCH   3   4
ATOM      4  C   UNL     1       5.471   5.758  16.526  0.00  0.00    +0.000 C 
BRANCH   4   5
ATOM      5  C   UNL     1       5.603   4.331  15.994  0.00  0.00    +0.000 C 
ATOM      6  O   UNL     1       4.864   3.422  16.377  0.00  0.00    +0.000 OA
BRANCH   5   8
ATOM      7  C   UNL     1       5.940   3.907  13.546  0.00  0.00    +0.000 C 
ATOM      8  C   UNL     1       6.620   4.096  14.890  0.00  0.00    +0.000 C 
ENDBRANCH   5   8
ENDBRANCH   4   5
BRANCH   4   9
ATOM      9  C   UNL     1       6.677   6.210  17.341  0.00  0.00    +0.000 C 
ATOM     10  O   UNL     1       7.443   7.085  16.936  0.00  0.00    +0.000 OA
BRANCH   9  11
ATOM     11  C   UNL     1       6.862   5.567  18.707  0.00  0.00    +0.000 C 
ATOM     12  C   UNL     1       8.194   5.923  19.345  0.00  0.00    +0.000 C 
ENDBRANCH   9  11
ENDBRANCH   4   9
ENDBRANCH   3   4
ENDBRANCH   2   3
ENDBRANCH   1   2
BRANCH   1  13
ATOM     13  C   UNL     1       2.077   8.692  18.825  0.00  0.00    +0.000 C 
BRANCH  13  14
ATOM     14  C   UNL     1       1.459   8.123  20.104  0.00  0.00    +0.000 C 
BRANCH  14  15
ATOM     15  C   UNL     1       2.157   6.852  20.572  0.00  0.00    +0.000 C 
BRANCH  15  16
ATOM     16  C   UNL     1       1.186   5.671  20.507  0.00  0.00    +0.000 C 
BRANCH  16  17
ATOM     17  C   UNL     1       1.825   4.470  19.866  0.00  0.00    +0.000 A 
ATOM     18  C   UNL     1       1.360   3.987  18.634  0.00  0.00    +0.000 A 
ATOM     19  C   UNL     1       1.933   2.853  18.061  0.00  0.00    +0.000 A 
ATOM     20  C   UNL     1       2.969   2.201  18.723  0.00  0.00    +0.000 A 
ATOM     21  C   UNL     1       3.440   2.665  19.944  0.00  0.00    +0.000 A 
ATOM     22  C   UNL     1       2.867   3.798  20.518  0.00  0.00    +0.000 A 
BRANCH  20  23
ATOM     23  O   UNL     1       3.552   1.082  18.203  0.00  0.00    +0.000 OA
ATOM     24  H   UNL     1       4.396   0.938  18.660  0.00  0.00    +0.000 HD
ENDBRANCH  20  23
ENDBRANCH  16  17
ENDBRANCH  15  16
ENDBRANCH  14  15
ENDBRANCH  13  14
ENDBRANCH   1  13
TORSDOF 13
ENDMDL
MODEL 7
REMARK VINA RESULT:      -6.2      2.193      4.046
REMARK  Name = 
REMARK  15 active torsions:
REMARK  status: ('A' for Active; 'I' for Inactive)
REMARK    1  A    between atoms: C_1  and  C_2
REMARK    2  A    between atoms: C_2  and  C_3
REMARK    3  A    between atoms: C_3  and  C_5
REMARK    4  A    between atoms: C_5  and  C_6
REMARK    5  A    between atoms: C_5  and  C_20
REMARK    6  A    between atoms: C_6  and  C_7
REMARK    7  A    between atoms: C_7  and  C_8
REMARK    8  A    between atoms: C_8  and  C_9
REMARK    9  A    between atoms: C_9  and  C_10
REMARK   10  A    between atoms: C_10  and  C_11
REMARK   11  A    between atoms: C_11  and  C_12
REMARK   12  A    between atoms: C_12  and  C_13
REMARK   13  A    between atoms: C_16  and  O_17
REMARK   14  A    between atoms: C_20  and  C_22
REMARK   15  A    between atoms: C_22  and  C_23
REMARK                            x       y       z     vdW  Elec       q    Type
REMARK                         _______ _______ _______ _____ _____    ______ ____
ROOT
ATOM      1  C   UNL     1       3.335   3.494  17.479  0.00  0.00    +0.000 C 
ENDROOT
BRANCH   1   2
ATOM      2  C   UNL     1       4.712   3.679  18.117  0.00  0.00    +0.000 C 
BRANCH   2   3
ATOM      3  C   UNL     1       5.285   5.086  17.939  0.00  0.00    +0.000 C 
BRANCH   3   4
ATOM      4  C   UNL     1       6.251   5.191  16.737  0.00  0.00    +0.000 C 
BRANCH   4   5
ATOM      5  C   UNL     1       7.388   6.178  16.993  0.00  0.00    +0.000 C 
ATOM      6  O   UNL     1       7.987   6.736  16.072  0.00  0.00    +0.000 OA
BRANCH   5   8
ATOM      7  C   UNL     1       8.313   7.908  18.556  0.00  0.00    +0.000 C 
ATOM      8  C   UNL     1       7.687   6.529  18.441  0.00  0.00    +0.000 C 
ENDBRANCH   5   8
ENDBRANCH   4   5
BRANCH   4   9
ATOM      9  C   UNL     1       5.484   5.477  15.452  0.00  0.00    +0.000 C 
ATOM     10  O   UNL     1       5.066   6.603  15.181  0.00  0.00    +0.000 OA
BRANCH   9  11
ATOM     11  C   UNL     1       5.303   4.313  14.488  0.00  0.00    +0.000 C 
ATOM     12  C   UNL     1       6.507   4.111  13.583  0.00  0.00    +0.000 C 
ENDBRANCH   9  11
ENDBRANCH   4   9
ENDBRANCH   3   4
ENDBRANCH   2   3
ENDBRANCH   1   2
BRANCH   1  13
ATOM     13  C   UNL     1       2.312   2.965  18.495  0.00  0.00    +0.000 C 
BRANCH  13  14
ATOM     14  C   UNL     1       1.270   4.018  18.875  0.00  0.00    +0.000 C 
BRANCH  14  15
ATOM     15  C   UNL     1       1.435   4.512  20.307  0.00  0.00    +0.000 C 
BRANCH  15  16
ATOM     16  C   UNL     1       2.570   5.537  20.375  0.00  0.00    +0.000 C 
BRANCH  16  17
ATOM     17  C   UNL     1       2.165   6.845  19.754  0.00  0.00    +0.000 A 
ATOM     18  C   UNL     1       2.498   7.136  18.423  0.00  0.00    +0.000 A 
ATOM     19  C   UNL     1       2.150   8.364  17.862  0.00  0.00    +0.000 A 
ATOM     20  C   UNL     1       1.473   9.302  18.635  0.00  0.00    +0.000 A 
ATOM     21  C   UNL     1       1.137   9.031  19.956  0.00  0.00    +0.000 A 
ATOM     22  C   UNL     1       1.485   7.804  20.517  0.00  0.00    +0.000 A 
BRANCH  20  23
ATOM     23  O   UNL     1       1.123  10.520  18.130  0.00  0.00    +0.000 OA
ATOM     24  H   UNL     1       0.817  11.077  18.864  0.00  0.00    +0.000 HD
ENDBRANCH  20  23
ENDBRANCH  16  17
ENDBRANCH  15  16
ENDBRANCH  14  15
ENDBRANCH  13  14
ENDBRANCH   1  13
TORSDOF 13
ENDMDL
MODEL 8
REMARK VINA RESULT:      -6.1      1.890      3.453
REMARK  Name = 
REMARK  15 active torsions:
REMARK  status: ('A' for Active; 'I' for Inactive)
REMARK    1  A    between atoms: C_1  and  C_2
REMARK    2  A    between atoms: C_2  and  C_3
REMARK    3  A    between atoms: C_3  and  C_5
REMARK    4  A    between atoms: C_5  and  C_6
REMARK    5  A    between atoms: C_5  and  C_20
REMARK    6  A    between atoms: C_6  and  C_7
REMARK    7  A    between atoms: C_7  and  C_8
REMARK    8  A    between atoms: C_8  and  C_9
REMARK    9  A    between atoms: C_9  and  C_10
REMARK   10  A    between atoms: C_10  and  C_11
REMARK   11  A    between atoms: C_11  and  C_12
REMARK   12  A    between atoms: C_12  and  C_13
REMARK   13  A    between atoms: C_16  and  O_17
REMARK   14  A    between atoms: C_20  and  C_22
REMARK   15  A    between atoms: C_22  and  C_23
REMARK                            x       y       z     vdW  Elec       q    Type
REMARK                         _______ _______ _______ _____ _____    ______ ____
ROOT
ATOM      1  C   UNL     1       4.504   2.916  18.998  0.00  0.00    +0.000 C 
ENDROOT
BRANCH   1   2
ATOM      2  C   UNL     1       4.882   4.194  18.248  0.00  0.00    +0.000 C 
BRANCH   2   3
ATOM      3  C   UNL     1       5.150   3.973  16.758  0.00  0.00    +0.000 C 
BRANCH   3   4
ATOM      4  C   UNL     1       6.593   4.342  16.349  0.00  0.00    +0.000 C 
BRANCH   4   5
ATOM      5  C   UNL     1       7.187   5.430  17.243  0.00  0.00    +0.000 C 
ATOM      6  O   UNL     1       6.895   6.620  17.104  0.00  0.00    +0.000 OA
BRANCH   5   8
ATOM      7  C   UNL     1       7.803   5.771  19.650  0.00  0.00    +0.000 C 
ATOM      8  C   UNL     1       8.079   4.976  18.386  0.00  0.00    +0.000 C 
ENDBRANCH   5   8
ENDBRANCH   4   5
BRANCH   4   9
ATOM      9  C   UNL     1       6.665   4.678  14.864  0.00  0.00    +0.000 C 
ATOM     10  O   UNL     1       7.583   5.351  14.393  0.00  0.00    +0.000 OA
BRANCH   9  11
ATOM     11  C   UNL     1       5.574   4.097  13.976  0.00  0.00    +0.000 C 
ATOM     12  C   UNL     1       6.123   3.487  12.698  0.00  0.00    +0.000 C 
ENDBRANCH   9  11
ENDBRANCH   4   9
ENDBRANCH   3   4
ENDBRANCH   2   3
ENDBRANCH   1   2
BRANCH   1  13
ATOM     13  C   UNL     1       3.559   2.036  18.167  0.00  0.00    +0.000 C 
BRANCH  13  14
ATOM     14  C   UNL     1       2.387   1.499  18.991  0.00  0.00    +0.000 C 
BRANCH  14  15
ATOM     15  C   UNL     1       1.109   2.301  18.776  0.00  0.00    +0.000 C 
BRANCH  15  16
ATOM     16  C   UNL     1       0.960   3.347  19.883  0.00  0.00    +0.000 C 
BRANCH  16  17
ATOM     17  C   UNL     1       1.441   4.698  19.430  0.00  0.00    +0.000 A 
ATOM     18  C   UNL     1       1.536   4.999  18.064  0.00  0.00    +0.000 A 
ATOM     19  C   UNL     1       2.015   6.241  17.648  0.00  0.00    +0.000 A 
ATOM     20  C   UNL     1       2.404   7.178  18.601  0.00  0.00    +0.000 A 
ATOM     21  C   UNL     1       2.319   6.895  19.958  0.00  0.00    +0.000 A 
ATOM     22  C   UNL     1       1.840   5.654  20.374  0.00  0.00    +0.000 A 
BRANCH  20  23
ATOM     23  O   UNL     1       2.889   8.401  18.238  0.00  0.00    +0.000 OA
ATOM     24  H   UNL     1       2.137   9.006  18.129  0.00  0.00    +0.000 HD
ENDBRANCH  20  23
ENDBRANCH  16  17
ENDBRANCH  15  16
ENDBRANCH  14  15
ENDBRANCH  13  14
ENDBRANCH   1  13
TORSDOF 13
ENDMDL
MODEL 9
REMARK VINA RESULT:      -6.1      1.771      4.242
REMARK  Name = 
REMARK  15 active torsions:
REMARK  status: ('A' for Active; 'I' for Inactive)
REMARK    1  A    between atoms: C_1  and  C_2
REMARK    2  A    between atoms: C_2  and  C_3
REMARK    3  A    between atoms: C_3  and  C_5
REMARK    4  A    between atoms: C_5  and  C_6
REMARK    5  A    between atoms: C_5  and  C_20
REMARK    6  A    between atoms: C_6  and  C_7
REMARK    7  A    between atoms: C_7  and  C_8
REMARK    8  A    between atoms: C_8  and  C_9
REMARK    9  A    between atoms: C_9  and  C_10
REMARK   10  A    between atoms: C_10  and  C_11
REMARK   11  A    between atoms: C_11  and  C_12
REMARK   12  A    between atoms: C_12  and  C_13
REMARK   13  A    between atoms: C_16  and  O_17
REMARK   14  A    between atoms: C_20  and  C_22
REMARK   15  A    between atoms: C_22  and  C_23
REMARK                            x       y       z     vdW  Elec       q    Type
REMARK                         _______ _______ _______ _____ _____    ______ ____
ROOT
ATOM      1  C   UNL     1       4.872   2.461  19.615  0.00  0.00    +0.000 C 
ENDROOT
BRANCH   1   2
ATOM      2  C   UNL     1       4.801   3.692  18.711  0.00  0.00    +0.000 C 
BRANCH   2   3
ATOM      3  C   UNL     1       5.785   4.796  19.101  0.00  0.00    +0.000 C 
BRANCH   3   4
ATOM      4  C   UNL     1       6.366   5.539  17.877  0.00  0.00    +0.000 C 
BRANCH   4   5
ATOM      5  C   UNL     1       6.842   4.578  16.789  0.00  0.00    +0.000 C 
ATOM      6  O   UNL     1       7.999   4.153  16.754  0.00  0.00    +0.000 OA
BRANCH   5   8
ATOM      7  C   UNL     1       5.780   4.927  14.544  0.00  0.00    +0.000 C 
ATOM      8  C   UNL     1       5.800   4.078  15.803  0.00  0.00    +0.000 C 
ENDBRANCH   5   8
ENDBRANCH   4   5
BRANCH   4   9
ATOM      9  C   UNL     1       7.434   6.537  18.307  0.00  0.00    +0.000 C 
ATOM     10  O   UNL     1       8.136   6.349  19.301  0.00  0.00    +0.000 OA
BRANCH   9  11
ATOM     11  C   UNL     1       7.632   7.756  17.418  0.00  0.00    +0.000 C 
ATOM     12  C   UNL     1       8.289   8.913  18.151  0.00  0.00    +0.000 C 
ENDBRANCH   9  11
ENDBRANCH   4   9
ENDBRANCH   3   4
ENDBRANCH   2   3
ENDBRANCH   1   2
BRANCH   1  13
ATOM     13  C   UNL     1       3.961   2.612  20.842  0.00  0.00    +0.000 C 
BRANCH  13  14
ATOM     14  C   UNL     1       2.574   2.007  20.617  0.00  0.00    +0.000 C 
BRANCH  14  15
ATOM     15  C   UNL     1       1.476   2.788  21.328  0.00  0.00    +0.000 C 
BRANCH  15  16
ATOM     16  C   UNL     1       0.611   3.521  20.300  0.00  0.00    +0.000 C 
BRANCH  16  17
ATOM     17  C   UNL     1       1.361   4.657  19.661  0.00  0.00    +0.000 A 
ATOM     18  C   UNL     1       1.824   5.730  20.435  0.00  0.00    +0.000 A 
ATOM     19  C   UNL     1       2.490   6.798  19.832  0.00  0.00    +0.000 A 
ATOM     20  C   UNL     1       2.688   6.790  18.455  0.00  0.00    +0.000 A 
ATOM     21  C   UNL     1       2.234   5.735  17.673  0.00  0.00    +0.000 A 
ATOM     22  C   UNL     1       1.569   4.669  18.275  0.00  0.00    +0.000 A 
BRANCH  20  23
ATOM     23  O   UNL     1       3.325   7.818  17.823  0.00  0.00    +0.000 OA
ATOM     24  H   UNL     1       4.114   7.463  17.384  0.00  0.00    +0.000 HD
ENDBRANCH  20  23
ENDBRANCH  16  17
ENDBRANCH  15  16
ENDBRANCH  14  15
ENDBRANCH  13  14
ENDBRANCH   1  13
TORSDOF 13
ENDMDL
