MODEL 1
REMARK VINA RESULT:      -8.2      0.000      0.000
REMARK  Name = 
REMARK  10 active torsions:
REMARK  status: ('A' for Active; 'I' for Inactive)
REMARK    1  A    between atoms: C_1  and  C_2
REMARK    2  A    between atoms: C_2  and  C_3
REMARK    3  A    between atoms: C_3  and  N_4
REMARK    4  A    between atoms: C_9  and  C_10
REMARK    5  A    between atoms: N_13  and  C_14
REMARK    6  A    between atoms: C_14  and  C_15
REMARK    7  A    between atoms: C_19  and  C_20
REMARK    8  A    between atoms: N_26  and  C_27
REMARK    9  A    between atoms: C_27  and  C_28
REMARK   10  A    between atoms: C_28  and  C_29
REMARK                            x       y       z     vdW  Elec       q    Type
REMARK                         _______ _______ _______ _____ _____    ______ ____
ROOT
ATOM      1  N   UNL     1       5.293   5.108  17.308  0.00  0.00    +0.000 N 
ATOM      2  C   UNL     1       4.817   6.378  16.920  0.00  0.00    +0.000 A 
ATOM      3  O   UNL     1       5.248   7.010  15.959  0.00  0.00    +0.000 OA
ATOM      4  C   UNL     1       3.772   6.881  17.779  0.00  0.00    +0.000 A 
ATOM      5  N   UNL     1       3.079   8.068  17.703  0.00  0.00    +0.000 NA
ATOM      6  C   UNL     1       2.265   8.065  18.744  0.00  0.00    +0.000 A 
ATOM      7  N   UNL     1       2.407   6.907  19.472  0.00  0.00    +0.000 N 
ATOM      8  C   UNL     1       3.344   6.141  18.843  0.00  0.00    +0.000 A 
ATOM      9  N   UNL     1       3.794   4.886  19.192  0.00  0.00    +0.000 N 
ATOM     10  C   UNL     1       4.824   4.331  18.400  0.00  0.00    +0.000 A 
ATOM     11  O   UNL     1       5.291   3.222  18.652  0.00  0.00    +0.000 OA
ATOM     12  H   UNL     1       1.895   6.678  20.310  0.00  0.00    +0.000 HD
ENDROOT
BRANCH   6  13
ATOM     13  C   UNL     1       1.320   9.151  19.078  0.00  0.00    +0.000 A 
ATOM     14  C   UNL     1       0.550   9.341  20.240  0.00  0.00    +0.000 A 
ATOM     15  N   UNL     1      -0.223  10.428  20.167  0.00  0.00    +0.000 NA
ATOM     16  N   UNL     1       0.070  10.946  18.950  0.00  0.00    +0.000 N 
ATOM     17  C   UNL     1       1.004  10.215  18.269  0.00  0.00    +0.000 A 
BRANCH  16  18
ATOM     18  C   UNL     1      -0.676  12.093  18.447  0.00  0.00    +0.000 C 
BRANCH  18  19
ATOM     19  C   UNL     1      -2.079  11.719  18.065  0.00  0.00    +0.000 A 
ATOM     20  C   UNL     1      -2.344  10.996  16.894  0.00  0.00    +0.000 A 
ATOM     21  C   UNL     1      -3.650  10.617  16.580  0.00  0.00    +0.000 A 
ATOM     22  C   UNL     1      -4.703  10.943  17.439  0.00  0.00    +0.000 A 
ATOM     23  C   UNL     1      -4.458  11.664  18.612  0.00  0.00    +0.000 A 
ATOM     24  C   UNL     1      -5.562  11.988  19.572  0.00  0.00    +0.000 C 
ATOM     25  C   UNL     1      -3.147  12.053  18.902  0.00  0.00    +0.000 A 
ATOM     26  F   UNL     1      -2.906  12.761  20.016  0.00  0.00    +0.000 F 
ENDBRANCH  18  19
ENDBRANCH  16  18
ENDBRANCH   6  13
BRANCH   1  27
ATOM     27  C   UNL     1       6.351   4.536  16.477  0.00  0.00    +0.000 C 
BRANCH  27  29
ATOM     28  C   UNL     1       6.512   4.231  13.927  0.00  0.00    +0.000 C 
ATOM     29  C   UNL     1       5.847   3.801  15.226  0.00  0.00    +0.000 C 
ENDBRANCH  27  29
ENDBRANCH   1  27
BRANCH   9  30
ATOM     30  C   UNL     1       3.267   4.125  20.328  0.00  0.00    +0.000 C 
BRANCH  30  31
ATOM     31  C   UNL     1       2.180   3.103  19.967  0.00  0.00    +0.000 C 
ATOM     32  C   UNL     1       0.756   3.547  20.272  0.00  0.00    +0.000 C 
ENDBRANCH  30  31
ENDBRANCH   9  30
TORSDOF 7
ENDMDL
MODEL 2
REMARK VINA RESULT:      -8.1      0.734      1.119
REMARK  Name = 
REMARK  10 active torsions:
REMARK  status: ('A' for Active; 'I' for Inactive)
REMARK    1  A    between atoms: C_1  and  C_2
REMARK    2  A    between atoms: C_2  and  C_3
REMARK    3  A    between atoms: C_3  and  N_4
REMARK    4  A    between atoms: C_9  and  C_10
REMARK    5  A    between atoms: N_13  and  C_14
REMARK    6  A    between atoms: C_14  and  C_15
REMARK    7  A    between atoms: C_19  and  C_20
REMARK    8  A    between atoms: N_26  and  C_27
REMARK    9  A    between atoms: C_27  and  C_28
REMARK   10  A    between atoms: C_28  and  C_29
REMARK                            x       y       z     vdW  Elec       q    Type
REMARK                         _______ _______ _______ _____ _____    ______ ____
ROOT
ATOM      1  N   UNL     1       5.055   5.004  17.688  0.00  0.00    +0.000 N 
ATOM      2  C   UNL     1       4.590   6.256  17.232  0.00  0.00    +0.000 A 
ATOM      3  O   UNL     1       5.013   6.821  16.226  0.00  0.00    +0.000 OA
ATOM      4  C   UNL     1       3.570   6.827  18.077  0.00  0.00    +0.000 A 
ATOM      5  N   UNL     1       2.894   8.019  17.941  0.00  0.00    +0.000 NA
ATOM      6  C   UNL     1       2.099   8.093  18.994  0.00  0.00    +0.000 A 
ATOM      7  N   UNL     1       2.238   6.979  19.789  0.00  0.00    +0.000 N 
ATOM      8  C   UNL     1       3.150   6.161  19.192  0.00  0.00    +0.000 A 
ATOM      9  N   UNL     1       3.588   4.922  19.609  0.00  0.00    +0.000 N 
ATOM     10  C   UNL     1       4.594   4.303  18.833  0.00  0.00    +0.000 A 
ATOM     11  O   UNL     1       5.048   3.204  19.144  0.00  0.00    +0.000 OA
ATOM     12  H   UNL     1       1.738   6.809  20.648  0.00  0.00    +0.000 HD
ENDROOT
BRANCH   6  13
ATOM     13  C   UNL     1       1.177   9.213  19.278  0.00  0.00    +0.000 A 
ATOM     14  C   UNL     1       0.414   9.472  20.430  0.00  0.00    +0.000 A 
ATOM     15  N   UNL     1      -0.337  10.571  20.308  0.00  0.00    +0.000 NA
ATOM     16  N   UNL     1      -0.035  11.025  19.067  0.00  0.00    +0.000 N 
ATOM     17  C   UNL     1       0.882  10.244  18.420  0.00  0.00    +0.000 A 
BRANCH  16  18
ATOM     18  C   UNL     1      -0.758  12.162  18.512  0.00  0.00    +0.000 C 
BRANCH  18  19
ATOM     19  C   UNL     1      -2.146  11.782  18.083  0.00  0.00    +0.000 A 
ATOM     20  C   UNL     1      -2.375  11.125  16.867  0.00  0.00    +0.000 A 
ATOM     21  C   UNL     1      -3.668  10.738  16.508  0.00  0.00    +0.000 A 
ATOM     22  C   UNL     1      -4.742  10.990  17.365  0.00  0.00    +0.000 A 
ATOM     23  C   UNL     1      -4.533  11.645  18.583  0.00  0.00    +0.000 A 
ATOM     24  C   UNL     1      -5.660  11.888  19.539  0.00  0.00    +0.000 C 
ATOM     25  C   UNL     1      -3.236  12.043  18.919  0.00  0.00    +0.000 A 
ATOM     26  F   UNL     1      -3.029  12.689  20.077  0.00  0.00    +0.000 F 
ENDBRANCH  18  19
ENDBRANCH  16  18
ENDBRANCH   6  13
BRANCH   1  27
ATOM     27  C   UNL     1       6.088   4.366  16.874  0.00  0.00    +0.000 C 
BRANCH  27  29
ATOM     28  C   UNL     1       7.642   5.612  18.502  0.00  0.00    +0.000 C 
ATOM     29  C   UNL     1       7.522   4.611  17.363  0.00  0.00    +0.000 C 
ENDBRANCH  27  29
ENDBRANCH   1  27
BRANCH   9  30
ATOM     30  C   UNL     1       3.071   4.241  20.798  0.00  0.00    +0.000 C 
BRANCH  30  31
ATOM     31  C   UNL     1       1.921   3.260  20.527  0.00  0.00    +0.000 C 
ATOM     32  C   UNL     1       1.322   2.617  21.770  0.00  0.00    +0.000 C 
ENDBRANCH  30  31
ENDBRANCH   9  30
TORSDOF 7
ENDMDL
MODEL 3
REMARK VINA RESULT:      -7.9      3.921     10.101
REMARK  Name = 
REMARK  10 active torsions:
REMARK  status: ('A' for Active; 'I' for Inactive)
REMARK    1  A    between atoms: C_1  and  C_2
REMARK    2  A    between atoms: C_2  and  C_3
REMARK    3  A    between atoms: C_3  and  N_4
REMARK    4  A    between atoms: C_9  and  C_10
REMARK    5  A    between atoms: N_13  and  C_14
REMARK    6  A    between atoms: C_14  and  C_15
REMARK    7  A    between atoms: C_19  and  C_20
REMARK    8  A    between atoms: N_26  and  C_27
REMARK    9  A    between atoms: C_27  and  C_28
REMARK   10  A    between atoms: C_28  and  C_29
REMARK                            x       y       z     vdW  Elec       q    Type
REMARK                         _______ _______ _______ _____ _____    ______ ____
ROOT
ATOM      1  N   UNL     1      -1.683  12.090  21.957  0.00  0.00    +0.000 N 
ATOM      2  C   UNL     1      -0.714  11.117  22.283  0.00  0.00    +0.000 A 
ATOM      3  O   UNL     1      -0.355  10.862  23.430  0.00  0.00    +0.000 OA
ATOM      4  C   UNL     1      -0.164  10.451  21.128  0.00  0.00    +0.000 A 
ATOM      5  N   UNL     1       0.787   9.458  21.066  0.00  0.00    +0.000 NA
ATOM      6  C   UNL     1       0.968   9.225  19.778  0.00  0.00    +0.000 A 
ATOM      7  N   UNL     1       0.151  10.029  19.017  0.00  0.00    +0.000 N 
ATOM      8  C   UNL     1      -0.590  10.787  19.875  0.00  0.00    +0.000 A 
ATOM      9  N   UNL     1      -1.561  11.716  19.571  0.00  0.00    +0.000 N 
ATOM     10  C   UNL     1      -2.141  12.415  20.654  0.00  0.00    +0.000 A 
ATOM     11  O   UNL     1      -3.006  13.270  20.467  0.00  0.00    +0.000 OA
ATOM     12  H   UNL     1       0.112  10.035  18.010  0.00  0.00    +0.000 HD
ENDROOT
BRANCH   6  13
ATOM     13  C   UNL     1       1.911   8.230  19.225  0.00  0.00    +0.000 A 
ATOM     14  C   UNL     1       2.571   8.219  17.983  0.00  0.00    +0.000 A 
ATOM     15  N   UNL     1       3.325   7.127  17.818  0.00  0.00    +0.000 NA
ATOM     16  N   UNL     1       3.152   6.443  18.974  0.00  0.00    +0.000 N 
ATOM     17  C   UNL     1       2.320   7.080  19.853  0.00  0.00    +0.000 A 
BRANCH  16  18
ATOM     18  C   UNL     1       3.730   5.114  19.128  0.00  0.00    +0.000 C 
BRANCH  18  19
ATOM     19  C   UNL     1       5.031   4.986  18.389  0.00  0.00    +0.000 A 
ATOM     20  C   UNL     1       6.250   5.301  19.004  0.00  0.00    +0.000 A 
ATOM     21  C   UNL     1       7.452   5.130  18.315  0.00  0.00    +0.000 A 
ATOM     22  C   UNL     1       7.451   4.629  17.011  0.00  0.00    +0.000 A 
ATOM     23  C   UNL     1       6.244   4.308  16.380  0.00  0.00    +0.000 A 
ATOM     24  C   UNL     1       6.218   3.728  14.999  0.00  0.00    +0.000 C 
ATOM     25  C   UNL     1       5.049   4.504  17.076  0.00  0.00    +0.000 A 
ATOM     26  F   UNL     1       3.885   4.217  16.472  0.00  0.00    +0.000 F 
ENDBRANCH  18  19
ENDBRANCH  16  18
ENDBRANCH   6  13
BRANCH   1  27
ATOM     27  C   UNL     1      -2.286  12.801  23.083  0.00  0.00    +0.000 C 
BRANCH  27  29
ATOM     28  C   UNL     1      -4.620  13.391  23.990  0.00  0.00    +0.000 C 
ATOM     29  C   UNL     1      -3.688  12.308  23.466  0.00  0.00    +0.000 C 
ENDBRANCH  27  29
ENDBRANCH   1  27
BRANCH   9  30
ATOM     30  C   UNL     1      -2.002  12.008  18.204  0.00  0.00    +0.000 C 
BRANCH  30  31
ATOM     31  C   UNL     1      -3.006  11.001  17.625  0.00  0.00    +0.000 C 
ATOM     32  C   UNL     1      -4.459  11.450  17.664  0.00  0.00    +0.000 C 
ENDBRANCH  30  31
ENDBRANCH   9  30
TORSDOF 7
ENDMDL
MODEL 4
REMARK VINA RESULT:      -7.9      3.767      9.388
REMARK  Name = 
REMARK  10 active torsions:
REMARK  status: ('A' for Active; 'I' for Inactive)
REMARK    1  A    between atoms: C_1  and  C_2
REMARK    2  A    between atoms: C_2  and  C_3
REMARK    3  A    between atoms: C_3  and  N_4
REMARK    4  A    between atoms: C_9  and  C_10
REMARK    5  A    between atoms: N_13  and  C_14
REMARK    6  A    between atoms: C_14  and  C_15
REMARK    7  A    between atoms: C_19  and  C_20
REMARK    8  A    between atoms: N_26  and  C_27
REMARK    9  A    between atoms: C_27  and  C_28
REMARK   10  A    between atoms: C_28  and  C_29
REMARK                            x       y       z     vdW  Elec       q    Type
REMARK                         _______ _______ _______ _____ _____    ______ ____
ROOT
ATOM      1  N   UNL     1      -0.427  11.188  21.841  0.00  0.00    +0.000 N 
ATOM      2  C   UNL     1       0.109  10.045  22.471  0.00  0.00    +0.000 A 
ATOM      3  O   UNL     1       0.171   9.897  23.689  0.00  0.00    +0.000 OA
ATOM      4  C   UNL     1       0.599   9.058  21.539  0.00  0.00    +0.000 A 
ATOM      5  N   UNL     1       1.177   7.834  21.791  0.00  0.00    +0.000 NA
ATOM      6  C   UNL     1       1.484   7.341  20.604  0.00  0.00    +0.000 A 
ATOM      7  N   UNL     1       1.107   8.206  19.604  0.00  0.00    +0.000 N 
ATOM      8  C   UNL     1       0.518   9.284  20.195  0.00  0.00    +0.000 A 
ATOM      9  N   UNL     1      -0.038  10.390  19.591  0.00  0.00    +0.000 N 
ATOM     10  C   UNL     1      -0.534  11.404  20.442  0.00  0.00    +0.000 A 
ATOM     11  O   UNL     1      -1.034  12.430  19.983  0.00  0.00    +0.000 OA
ATOM     12  H   UNL     1       1.239   8.049  18.617  0.00  0.00    +0.000 HD
ENDROOT
BRANCH   6  13
ATOM     13  C   UNL     1       2.134   6.033  20.377  0.00  0.00    +0.000 A 
ATOM     14  C   UNL     1       1.836   4.777  20.936  0.00  0.00    +0.000 A 
ATOM     15  N   UNL     1       2.671   3.822  20.517  0.00  0.00    +0.000 NA
ATOM     16  N   UNL     1       3.502   4.475  19.670  0.00  0.00    +0.000 N 
ATOM     17  C   UNL     1       3.204   5.804  19.547  0.00  0.00    +0.000 A 
BRANCH  16  18
ATOM     18  C   UNL     1       4.647   3.782  19.093  0.00  0.00    +0.000 C 
BRANCH  18  19
ATOM     19  C   UNL     1       5.271   4.571  17.979  0.00  0.00    +0.000 A 
ATOM     20  C   UNL     1       4.907   4.356  16.644  0.00  0.00    +0.000 A 
ATOM     21  C   UNL     1       5.464   5.133  15.627  0.00  0.00    +0.000 A 
ATOM     22  C   UNL     1       6.380   6.143  15.934  0.00  0.00    +0.000 A 
ATOM     23  C   UNL     1       6.756   6.373  17.261  0.00  0.00    +0.000 A 
ATOM     24  C   UNL     1       7.702   7.477  17.622  0.00  0.00    +0.000 C 
ATOM     25  C   UNL     1       6.204   5.573  18.265  0.00  0.00    +0.000 A 
ATOM     26  F   UNL     1       6.573   5.775  19.540  0.00  0.00    +0.000 F 
ENDBRANCH  18  19
ENDBRANCH  16  18
ENDBRANCH   6  13
BRANCH   1  27
ATOM     27  C   UNL     1      -0.947  12.227  22.728  0.00  0.00    +0.000 C 
BRANCH  27  29
ATOM     28  C   UNL     1      -3.449  12.782  22.503  0.00  0.00    +0.000 C 
ATOM     29  C   UNL     1      -2.378  11.978  23.225  0.00  0.00    +0.000 C 
ENDBRANCH  27  29
ENDBRANCH   1  27
BRANCH   9  30
ATOM     30  C   UNL     1      -0.129  10.559  18.138  0.00  0.00    +0.000 C 
BRANCH  30  31
ATOM     31  C   UNL     1      -1.406   9.991  17.504  0.00  0.00    +0.000 C 
ATOM     32  C   UNL     1      -2.386  11.037  16.993  0.00  0.00    +0.000 C 
ENDBRANCH  30  31
ENDBRANCH   9  30
TORSDOF 7
ENDMDL
MODEL 5
REMARK VINA RESULT:      -7.9      3.793      9.396
REMARK  Name = 
REMARK  10 active torsions:
REMARK  status: ('A' for Active; 'I' for Inactive)
REMARK    1  A    between atoms: C_1  and  C_2
REMARK    2  A    between atoms: C_2  and  C_3
REMARK    3  A    between atoms: C_3  and  N_4
REMARK    4  A    between atoms: C_9  and  C_10
REMARK    5  A    between atoms: N_13  and  C_14
REMARK    6  A    between atoms: C_14  and  C_15
REMARK    7  A    between atoms: C_19  and  C_20
REMARK    8  A    between atoms: N_26  and  C_27
REMARK    9  A    between atoms: C_27  and  C_28
REMARK   10  A    between atoms: C_28  and  C_29
REMARK                            x       y       z     vdW  Elec       q    Type
REMARK                         _______ _______ _______ _____ _____    ______ ____
ROOT
ATOM      1  N   UNL     1      -1.912  12.323  21.555  0.00  0.00    +0.000 N 
ATOM      2  C   UNL     1      -0.746  11.583  21.844  0.00  0.00    +0.000 A 
ATOM      3  O   UNL     1      -0.178  11.593  22.933  0.00  0.00    +0.000 OA
ATOM      4  C   UNL     1      -0.266  10.814  20.721  0.00  0.00    +0.000 A 
ATOM      5  N   UNL     1       0.829   9.984  20.639  0.00  0.00    +0.000 NA
ATOM      6  C   UNL     1       0.851   9.557  19.389  0.00  0.00    +0.000 A 
ATOM      7  N   UNL     1      -0.203  10.079  18.675  0.00  0.00    +0.000 N 
ATOM      8  C   UNL     1      -0.930  10.855  19.529  0.00  0.00    +0.000 A 
ATOM      9  N   UNL     1      -2.088  11.556  19.269  0.00  0.00    +0.000 N 
ATOM     10  C   UNL     1      -2.614  12.338  20.322  0.00  0.00    +0.000 A 
ATOM     11  O   UNL     1      -3.636  13.004  20.168  0.00  0.00    +0.000 OA
ATOM     12  H   UNL     1      -0.394   9.900  17.702  0.00  0.00    +0.000 HD
ENDROOT
BRANCH   6  13
ATOM     13  C   UNL     1       1.863   8.636  18.830  0.00  0.00    +0.000 A 
ATOM     14  C   UNL     1       2.591   8.728  17.630  0.00  0.00    +0.000 A 
ATOM     15  N   UNL     1       3.396   7.679  17.441  0.00  0.00    +0.000 NA
ATOM     16  N   UNL     1       3.190   6.917  18.542  0.00  0.00    +0.000 N 
ATOM     17  C   UNL     1       2.285   7.464  19.409  0.00  0.00    +0.000 A 
BRANCH  16  18
ATOM     18  C   UNL     1       3.813   5.603  18.645  0.00  0.00    +0.000 C 
BRANCH  18  19
ATOM     19  C   UNL     1       2.795   4.521  18.858  0.00  0.00    +0.000 A 
ATOM     20  C   UNL     1       2.232   3.832  17.775  0.00  0.00    +0.000 A 
ATOM     21  C   UNL     1       1.321   2.796  17.996  0.00  0.00    +0.000 A 
ATOM     22  C   UNL     1       0.976   2.428  19.298  0.00  0.00    +0.000 A 
ATOM     23  C   UNL     1       1.528   3.104  20.392  0.00  0.00    +0.000 A 
ATOM     24  C   UNL     1       1.208   2.700  21.798  0.00  0.00    +0.000 C 
ATOM     25  C   UNL     1       2.422   4.151  20.153  0.00  0.00    +0.000 A 
ATOM     26  F   UNL     1       2.942   4.817  21.196  0.00  0.00    +0.000 F 
ENDBRANCH  18  19
ENDBRANCH  16  18
ENDBRANCH   6  13
BRANCH   1  27
ATOM     27  C   UNL     1      -2.456  13.121  22.653  0.00  0.00    +0.000 C 
BRANCH  27  29
ATOM     28  C   UNL     1      -4.812  12.897  23.661  0.00  0.00    +0.000 C 
ATOM     29  C   UNL     1      -3.394  12.351  23.593  0.00  0.00    +0.000 C 
ENDBRANCH  27  29
ENDBRANCH   1  27
BRANCH   9  30
ATOM     30  C   UNL     1      -2.775  11.529  17.975  0.00  0.00    +0.000 C 
BRANCH  30  31
ATOM     31  C   UNL     1      -3.848  10.440  17.840  0.00  0.00    +0.000 C 
ATOM     32  C   UNL     1      -5.278  10.956  17.760  0.00  0.00    +0.000 C 
ENDBRANCH  30  31
ENDBRANCH   9  30
TORSDOF 7
ENDMDL
MODEL 6
REMARK VINA RESULT:      -7.9      1.203      1.875
REMARK  Name = 
REMARK  10 active torsions:
REMARK  status: ('A' for Active; 'I' for Inactive)
REMARK    1  A    between atoms: C_1  and  C_2
REMARK    2  A    between atoms: C_2  and  C_3
REMARK    3  A    between atoms: C_3  and  N_4
REMARK    4  A    between atoms: C_9  and  C_10
REMARK    5  A    between atoms: N_13  and  C_14
REMARK    6  A    between atoms: C_14  and  C_15
REMARK    7  A    between atoms: C_19  and  C_20
REMARK    8  A    between atoms: N_26  and  C_27
REMARK    9  A    between atoms: C_27  and  C_28
REMARK   10  A    between atoms: C_28  and  C_29
REMARK                            x       y       z     vdW  Elec       q    Type
REMARK                         _______ _______ _______ _____ _____    ______ ____
ROOT
ATOM      1  N   UNL     1       4.803   5.197  17.815  0.00  0.00    +0.000 N 
ATOM      2  C   UNL     1       4.323   6.455  17.392  0.00  0.00    +0.000 A 
ATOM      3  O   UNL     1       4.716   7.037  16.384  0.00  0.00    +0.000 OA
ATOM      4  C   UNL     1       3.326   7.010  18.275  0.00  0.00    +0.000 A 
ATOM      5  N   UNL     1       2.645   8.203  18.178  0.00  0.00    +0.000 NA
ATOM      6  C   UNL     1       1.880   8.257  19.254  0.00  0.00    +0.000 A 
ATOM      7  N   UNL     1       2.043   7.131  20.027  0.00  0.00    +0.000 N 
ATOM      8  C   UNL     1       2.940   6.325  19.390  0.00  0.00    +0.000 A 
ATOM      9  N   UNL     1       3.391   5.081  19.774  0.00  0.00    +0.000 N 
ATOM     10  C   UNL     1       4.376   4.477  18.961  0.00  0.00    +0.000 A 
ATOM     11  O   UNL     1       4.841   3.373  19.241  0.00  0.00    +0.000 OA
ATOM     12  H   UNL     1       1.569   6.947  20.897  0.00  0.00    +0.000 HD
ENDROOT
BRANCH   6  13
ATOM     13  C   UNL     1       0.965   9.371  19.582  0.00  0.00    +0.000 A 
ATOM     14  C   UNL     1       0.259   9.626  20.771  0.00  0.00    +0.000 A 
ATOM     15  N   UNL     1      -0.506  10.719  20.685  0.00  0.00    +0.000 NA
ATOM     16  N   UNL     1      -0.271  11.173  19.430  0.00  0.00    +0.000 N 
ATOM     17  C   UNL     1       0.618  10.398  18.739  0.00  0.00    +0.000 A 
BRANCH  16  18
ATOM     18  C   UNL     1      -1.031  12.303  18.910  0.00  0.00    +0.000 C 
BRANCH  18  19
ATOM     19  C   UNL     1      -2.405  11.892  18.468  0.00  0.00    +0.000 A 
ATOM     20  C   UNL     1      -3.531  12.152  19.261  0.00  0.00    +0.000 A 
ATOM     21  C   UNL     1      -4.806  11.804  18.811  0.00  0.00    +0.000 A 
ATOM     22  C   UNL     1      -4.971  11.208  17.558  0.00  0.00    +0.000 A 
ATOM     23  C   UNL     1      -3.860  10.941  16.752  0.00  0.00    +0.000 A 
ATOM     24  C   UNL     1      -4.014  10.343  15.387  0.00  0.00    +0.000 C 
ATOM     25  C   UNL     1      -2.589  11.277  17.226  0.00  0.00    +0.000 A 
ATOM     26  F   UNL     1      -1.516  11.008  16.466  0.00  0.00    +0.000 F 
ENDBRANCH  18  19
ENDBRANCH  16  18
ENDBRANCH   6  13
BRANCH   1  27
ATOM     27  C   UNL     1       5.813   4.574  16.961  0.00  0.00    +0.000 C 
BRANCH  27  29
ATOM     28  C   UNL     1       7.590   5.974  18.186  0.00  0.00    +0.000 C 
ATOM     29  C   UNL     1       7.244   4.656  17.509  0.00  0.00    +0.000 C 
ENDBRANCH  27  29
ENDBRANCH   1  27
BRANCH   9  30
ATOM     30  C   UNL     1       2.909   4.379  20.967  0.00  0.00    +0.000 C 
BRANCH  30  31
ATOM     31  C   UNL     1       1.574   3.643  20.784  0.00  0.00    +0.000 C 
ATOM     32  C   UNL     1       1.376   2.441  21.696  0.00  0.00    +0.000 C 
ENDBRANCH  30  31
ENDBRANCH   9  30
TORSDOF 7
ENDMDL
MODEL 7
REMARK VINA RESULT:      -7.9      1.822      2.485
REMARK  Name = 
REMARK  10 active torsions:
REMARK  status: ('A' for Active; 'I' for Inactive)
REMARK    1  A    between atoms: C_1  and  C_2
REMARK    2  A    between atoms: C_2  and  C_3
REMARK    3  A    between atoms: C_3  and  N_4
REMARK    4  A    between atoms: C_9  and  C_10
REMARK    5  A    between atoms: N_13  and  C_14
REMARK    6  A    between atoms: C_14  and  C_15
REMARK    7  A    between atoms: C_19  and  C_20
REMARK    8  A    between atoms: N_26  and  C_27
REMARK    9  A    between atoms: C_27  and  C_28
REMARK   10  A    between atoms: C_28  and  C_29
REMARK                            x       y       z     vdW  Elec       q    Type
REMARK                         _______ _______ _______ _____ _____    ______ ____
ROOT
ATOM      1  N   UNL     1       4.889   5.437  17.713  0.00  0.00    +0.000 N 
ATOM      2  C   UNL     1       4.456   6.635  17.107  0.00  0.00    +0.000 A 
ATOM      3  O   UNL     1       4.961   7.116  16.096  0.00  0.00    +0.000 OA
ATOM      4  C   UNL     1       3.359   7.262  17.805  0.00  0.00    +0.000 A 
ATOM      5  N   UNL     1       2.688   8.425  17.504  0.00  0.00    +0.000 NA
ATOM      6  C   UNL     1       1.802   8.579  18.473  0.00  0.00    +0.000 A 
ATOM      7  N   UNL     1       1.880   7.542  19.374  0.00  0.00    +0.000 N 
ATOM      8  C   UNL     1       2.849   6.690  18.934  0.00  0.00    +0.000 A 
ATOM      9  N   UNL     1       3.259   5.501  19.497  0.00  0.00    +0.000 N 
ATOM     10  C   UNL     1       4.335   4.833  18.872  0.00  0.00    +0.000 A 
ATOM     11  O   UNL     1       4.770   3.773  19.319  0.00  0.00    +0.000 OA
ATOM     12  H   UNL     1       1.308   7.441  20.198  0.00  0.00    +0.000 HD
ENDROOT
BRANCH   6  13
ATOM     13  C   UNL     1       0.849   9.704  18.574  0.00  0.00    +0.000 A 
ATOM     14  C   UNL     1      -0.299   9.974  17.808  0.00  0.00    +0.000 A 
ATOM     15  N   UNL     1      -0.896  11.114  18.169  0.00  0.00    +0.000 NA
ATOM     16  N   UNL     1      -0.126  11.567  19.187  0.00  0.00    +0.000 N 
ATOM     17  C   UNL     1       0.926  10.741  19.471  0.00  0.00    +0.000 A 
BRANCH  16  18
ATOM     18  C   UNL     1      -0.391  12.874  19.776  0.00  0.00    +0.000 C 
BRANCH  18  19
ATOM     19  C   UNL     1      -1.280  12.770  20.981  0.00  0.00    +0.000 A 
ATOM     20  C   UNL     1      -0.745  12.730  22.276  0.00  0.00    +0.000 A 
ATOM     21  C   UNL     1      -1.590  12.681  23.386  0.00  0.00    +0.000 A 
ATOM     22  C   UNL     1      -2.977  12.686  23.216  0.00  0.00    +0.000 A 
ATOM     23  C   UNL     1      -3.529  12.726  21.932  0.00  0.00    +0.000 A 
ATOM     24  C   UNL     1      -5.011  12.777  21.724  0.00  0.00    +0.000 C 
ATOM     25  C   UNL     1      -2.669  12.755  20.830  0.00  0.00    +0.000 A 
ATOM     26  F   UNL     1      -3.191  12.775  19.594  0.00  0.00    +0.000 F 
ENDBRANCH  18  19
ENDBRANCH  16  18
ENDBRANCH   6  13
BRANCH   1  27
ATOM     27  C   UNL     1       5.996   4.746  17.053  0.00  0.00    +0.000 C 
BRANCH  27  29
ATOM     28  C   UNL     1       6.333   4.051  14.599  0.00  0.00    +0.000 C 
ATOM     29  C   UNL     1       5.572   3.828  15.898  0.00  0.00    +0.000 C 
ENDBRANCH  27  29
ENDBRANCH   1  27
BRANCH   9  30
ATOM     30  C   UNL     1       2.644   4.919  20.694  0.00  0.00    +0.000 C 
BRANCH  30  31
ATOM     31  C   UNL     1       1.325   4.176  20.441  0.00  0.00    +0.000 C 
ATOM     32  C   UNL     1       1.459   2.669  20.278  0.00  0.00    +0.000 C 
ENDBRANCH  30  31
ENDBRANCH   9  30
TORSDOF 7
ENDMDL
MODEL 8
REMARK VINA RESULT:      -7.8      3.799      9.533
REMARK  Name = 
REMARK  10 active torsions:
REMARK  status: ('A' for Active; 'I' for Inactive)
REMARK    1  A    between atoms: C_1  and  C_2
REMARK    2  A    between atoms: C_2  and  C_3
REMARK    3  A    between atoms: C_3  and  N_4
REMARK    4  A    between atoms: C_9  and  C_10
REMARK    5  A    between atoms: N_13  and  C_14
REMARK    6  A    between atoms: C_14  and  C_15
REMARK    7  A    between atoms: C_19  and  C_20
REMARK    8  A    between atoms: N_26  and  C_27
REMARK    9  A    between atoms: C_27  and  C_28
REMARK   10  A    between atoms: C_28  and  C_29
REMARK                            x       y       z     vdW  Elec       q    Type
REMARK                         _______ _______ _______ _____ _____    ______ ____
ROOT
ATOM      1  N   UNL     1      -0.458  11.227  21.909  0.00  0.00    +0.000 N 
ATOM      2  C   UNL     1       0.056  10.055  22.504  0.00  0.00    +0.000 A 
ATOM      3  O   UNL     1       0.091   9.858  23.716  0.00  0.00    +0.000 OA
ATOM      4  C   UNL     1       0.559   9.103  21.544  0.00  0.00    +0.000 A 
ATOM      5  N   UNL     1       1.124   7.866  21.760  0.00  0.00    +0.000 NA
ATOM      6  C   UNL     1       1.452   7.418  20.561  0.00  0.00    +0.000 A 
ATOM      7  N   UNL     1       1.103   8.325  19.588  0.00  0.00    +0.000 N 
ATOM      8  C   UNL     1       0.509   9.383  20.209  0.00  0.00    +0.000 A 
ATOM      9  N   UNL     1      -0.027  10.517  19.639  0.00  0.00    +0.000 N 
ATOM     10  C   UNL     1      -0.533  11.500  20.519  0.00  0.00    +0.000 A 
ATOM     11  O   UNL     1      -1.017  12.546  20.091  0.00  0.00    +0.000 OA
ATOM     12  H   UNL     1       1.256   8.207  18.598  0.00  0.00    +0.000 HD
ENDROOT
BRANCH   6  13
ATOM     13  C   UNL     1       2.099   6.115  20.295  0.00  0.00    +0.000 A 
ATOM     14  C   UNL     1       1.619   4.814  20.531  0.00  0.00    +0.000 A 
ATOM     15  N   UNL     1       2.507   3.875  20.193  0.00  0.00    +0.000 NA
ATOM     16  N   UNL     1       3.559   4.586  19.723  0.00  0.00    +0.000 N 
ATOM     17  C   UNL     1       3.349   5.937  19.754  0.00  0.00    +0.000 A 
BRANCH  16  18
ATOM     18  C   UNL     1       4.796   3.905  19.362  0.00  0.00    +0.000 C 
BRANCH  18  19
ATOM     19  C   UNL     1       5.504   4.599  18.234  0.00  0.00    +0.000 A 
ATOM     20  C   UNL     1       6.495   5.558  18.479  0.00  0.00    +0.000 A 
ATOM     21  C   UNL     1       7.174   6.157  17.417  0.00  0.00    +0.000 A 
ATOM     22  C   UNL     1       6.882   5.794  16.100  0.00  0.00    +0.000 A 
ATOM     23  C   UNL     1       5.896   4.838  15.835  0.00  0.00    +0.000 A 
ATOM     24  C   UNL     1       5.593   4.399  14.435  0.00  0.00    +0.000 C 
ATOM     25  C   UNL     1       5.211   4.262  16.909  0.00  0.00    +0.000 A 
ATOM     26  F   UNL     1       4.251   3.358  16.663  0.00  0.00    +0.000 F 
ENDBRANCH  18  19
ENDBRANCH  16  18
ENDBRANCH   6  13
BRANCH   1  27
ATOM     27  C   UNL     1      -0.991  12.233  22.826  0.00  0.00    +0.000 C 
BRANCH  27  29
ATOM     28  C   UNL     1      -3.515  12.626  22.527  0.00  0.00    +0.000 C 
ATOM     29  C   UNL     1      -2.413  11.947  23.326  0.00  0.00    +0.000 C 
ENDBRANCH  27  29
ENDBRANCH   1  27
BRANCH   9  30
ATOM     30  C   UNL     1      -0.085  10.744  18.192  0.00  0.00    +0.000 C 
BRANCH  30  31
ATOM     31  C   UNL     1      -1.192   9.967  17.464  0.00  0.00    +0.000 C 
ATOM     32  C   UNL     1      -2.588  10.554  17.611  0.00  0.00    +0.000 C 
ENDBRANCH  30  31
ENDBRANCH   9  30
TORSDOF 7
ENDMDL
MODEL 9
REMARK VINA RESULT:      -7.8      1.945      2.433
REMARK  Name = 
REMARK  10 active torsions:
REMARK  status: ('A' for Active; 'I' for Inactive)
REMARK    1  A    between atoms: C_1  and  C_2
REMARK    2  A    between atoms: C_2  and  C_3
REMARK    3  A    between atoms: C_3  and  N_4
REMARK    4  A    between atoms: C_9  and  C_10
REMARK    5  A    between atoms: N_13  and  C_14
REMARK    6  A    between atoms: C_14  and  C_15
REMARK    7  A    between atoms: C_19  and  C_20
REMARK    8  A    between atoms: N_26  and  C_27
REMARK    9  A    between atoms: C_27  and  C_28
REMARK   10  A    between atoms: C_28  and  C_29
REMARK                            x       y       z     vdW  Elec       q    Type
REMARK                         _______ _______ _______ _____ _____    ______ ____
ROOT
ATOM      1  N   UNL     1       4.653   5.371  18.019  0.00  0.00    +0.000 N 
ATOM      2  C   UNL     1       4.249   6.601  17.457  0.00  0.00    +0.000 A 
ATOM      3  O   UNL     1       4.746   7.091  16.446  0.00  0.00    +0.000 OA
ATOM      4  C   UNL     1       3.196   7.249  18.201  0.00  0.00    +0.000 A 
ATOM      5  N   UNL     1       2.562   8.444  17.950  0.00  0.00    +0.000 NA
ATOM      6  C   UNL     1       1.709   8.604  18.946  0.00  0.00    +0.000 A 
ATOM      7  N   UNL     1       1.770   7.541  19.817  0.00  0.00    +0.000 N 
ATOM      8  C   UNL     1       2.694   6.665  19.328  0.00  0.00    +0.000 A 
ATOM      9  N   UNL     1       3.073   5.446  19.848  0.00  0.00    +0.000 N 
ATOM     10  C   UNL     1       4.107   4.756  19.175  0.00  0.00    +0.000 A 
ATOM     11  O   UNL     1       4.512   3.668  19.581  0.00  0.00    +0.000 OA
ATOM     12  H   UNL     1       1.216   7.438  20.653  0.00  0.00    +0.000 HD
ENDROOT
BRANCH   6  13
ATOM     13  C   UNL     1       0.802   9.761  19.103  0.00  0.00    +0.000 A 
ATOM     14  C   UNL     1      -0.203  10.232  18.240  0.00  0.00    +0.000 A 
ATOM     15  N   UNL     1      -0.797  11.336  18.704  0.00  0.00    +0.000 NA
ATOM     16  N   UNL     1      -0.171  11.561  19.884  0.00  0.00    +0.000 N 
ATOM     17  C   UNL     1       0.787  10.628  20.168  0.00  0.00    +0.000 A 
BRANCH  16  18
ATOM     18  C   UNL     1      -0.465  12.769  20.645  0.00  0.00    +0.000 C 
BRANCH  18  19
ATOM     19  C   UNL     1      -1.900  12.813  21.085  0.00  0.00    +0.000 A 
ATOM     20  C   UNL     1      -2.935  13.019  20.165  0.00  0.00    +0.000 A 
ATOM     21  C   UNL     1      -4.266  13.010  20.587  0.00  0.00    +0.000 A 
ATOM     22  C   UNL     1      -4.577  12.779  21.929  0.00  0.00    +0.000 A 
ATOM     23  C   UNL     1      -3.557  12.571  22.863  0.00  0.00    +0.000 A 
ATOM     24  C   UNL     1      -3.865  12.278  24.299  0.00  0.00    +0.000 C 
ATOM     25  C   UNL     1      -2.230  12.603  22.428  0.00  0.00    +0.000 A 
ATOM     26  F   UNL     1      -1.244  12.422  23.321  0.00  0.00    +0.000 F 
ENDBRANCH  18  19
ENDBRANCH  16  18
ENDBRANCH   6  13
BRANCH   1  27
ATOM     27  C   UNL     1       5.714   4.658  17.310  0.00  0.00    +0.000 C 
BRANCH  27  29
ATOM     28  C   UNL     1       5.864   4.114  14.801  0.00  0.00    +0.000 C 
ATOM     29  C   UNL     1       5.226   3.789  16.143  0.00  0.00    +0.000 C 
ENDBRANCH  27  29
ENDBRANCH   1  27
BRANCH   9  30
ATOM     30  C   UNL     1       2.468   4.854  21.044  0.00  0.00    +0.000 C 
BRANCH  30  31
ATOM     31  C   UNL     1       1.336   3.856  20.765  0.00  0.00    +0.000 C 
ATOM     32  C   UNL     1       1.409   2.565  21.567  0.00  0.00    +0.000 C 
ENDBRANCH  30  31
ENDBRANCH   9  30
TORSDOF 7
ENDMDL
