MODEL 1
REMARK VINA RESULT:      -6.7      0.000      0.000
REMARK  Name = 
REMARK  11 active torsions:
REMARK  status: ('A' for Active; 'I' for Inactive)
REMARK    1  A    between atoms: C_1  and  C_2
REMARK    2  A    between atoms: C_2  and  C_3
REMARK    3  A    between atoms: C_3  and  C_4
REMARK    4  A    between atoms: C_4  and  C_5
REMARK    5  A    between atoms: C_5  and  N_6
REMARK    6  A    between atoms: C_7  and  S_8
REMARK    7  A    between atoms: S_8  and  C_9
REMARK    8  A    between atoms: C_9  and  C_10
REMARK    9  A    between atoms: C_10  and  C_11
REMARK   10  A    between atoms: C_11  and  C_12
REMARK   11  A    between atoms: N_21  and  C_22
REMARK                            x       y       z     vdW  Elec       q    Type
REMARK                         _______ _______ _______ _____ _____    ______ ____
ROOT
ATOM      1  N   UNL     1       5.196   4.177  17.912  0.00  0.00    +0.000 N 
ATOM      2  C   UNL     1       4.447   3.221  17.248  0.00  0.00    +0.000 A 
ATOM      3  N   UNL     1       4.770   3.141  15.975  0.00  0.00    +0.000 NA
ATOM      4  C   UNL     1       5.740   4.075  15.805  0.00  0.00    +0.000 A 
ATOM      5  C   UNL     1       6.010   4.754  16.962  0.00  0.00    +0.000 A 
ATOM      6  C   UNL     1       6.966   5.812  17.012  0.00  0.00    +0.000 A 
ATOM      7  O   UNL     1       7.246   6.482  17.998  0.00  0.00    +0.000 OA
ATOM      8  N   UNL     1       7.577   6.028  15.797  0.00  0.00    +0.000 N 
ATOM      9  C   UNL     1       7.364   5.349  14.611  0.00  0.00    +0.000 A 
ATOM     10  O   UNL     1       8.024   5.661  13.622  0.00  0.00    +0.000 OA
ATOM     11  N   UNL     1       6.404   4.348  14.626  0.00  0.00    +0.000 N 
ATOM     12  C   UNL     1       6.124   3.578  13.429  0.00  0.00    +0.000 C 
ATOM     13  H   UNL     1       8.272   6.759  15.768  0.00  0.00    +0.000 HD
ENDROOT
BRANCH   1  14
ATOM     14  C   UNL     1       5.110   4.575  19.308  0.00  0.00    +0.000 C 
BRANCH  14  15
ATOM     15  C   UNL     1       3.955   5.528  19.634  0.00  0.00    +0.000 C 
BRANCH  15  16
ATOM     16  C   UNL     1       3.640   6.431  18.439  0.00  0.00    +0.000 C 
BRANCH  16  18
ATOM     17  C   UNL     1       2.043   7.339  20.163  0.00  0.00    +0.000 C 
ATOM     18  C   UNL     1       2.388   7.274  18.683  0.00  0.00    +0.000 C 
ENDBRANCH  16  18
ENDBRANCH  15  16
ENDBRANCH  14  15
ENDBRANCH   1  14
BRANCH   2  19
ATOM     19  S   UNL     1       3.250   2.242  18.033  0.00  0.00    +0.000 S 
BRANCH  19  20
ATOM     20  C   UNL     1       1.755   3.278  18.030  0.00  0.00    +0.000 C 
BRANCH  20  21
ATOM     21  C   UNL     1       0.724   2.908  19.101  0.00  0.00    +0.000 C 
BRANCH  21  22
ATOM     22  C   UNL     1       0.919   3.774  20.353  0.00  0.00    +0.000 C 
ATOM     23  C   UNL     1       1.658   3.039  21.460  0.00  0.00    +0.000 C 
ENDBRANCH  21  22
ENDBRANCH  20  21
ENDBRANCH  19  20
ENDBRANCH   2  19
TORSDOF 8
ENDMDL
MODEL 2
REMARK VINA RESULT:      -6.5      2.961      5.932
REMARK  Name = 
REMARK  11 active torsions:
REMARK  status: ('A' for Active; 'I' for Inactive)
REMARK    1  A    between atoms: C_1  and  C_2
REMARK    2  A    between atoms: C_2  and  C_3
REMARK    3  A    between atoms: C_3  and  C_4
REMARK    4  A    between atoms: C_4  and  C_5
REMARK    5  A    between atoms: C_5  and  N_6
REMARK    6  A    between atoms: C_7  and  S_8
REMARK    7  A    between atoms: S_8  and  C_9
REMARK    8  A    between atoms: C_9  and  C_10
REMARK    9  A    between atoms: C_10  and  C_11
REMARK   10  A    between atoms: C_11  and  C_12
REMARK   11  A    between atoms: N_21  and  C_22
REMARK                            x       y       z     vdW  Elec       q    Type
REMARK                         _______ _______ _______ _____ _____    ______ ____
ROOT
ATOM      1  N   UNL     1       5.174   5.653  17.224  0.00  0.00    +0.000 N 
ATOM      2  C   UNL     1       5.661   4.443  16.763  0.00  0.00    +0.000 A 
ATOM      3  N   UNL     1       4.869   3.441  17.081  0.00  0.00    +0.000 NA
ATOM      4  C   UNL     1       3.853   4.011  17.778  0.00  0.00    +0.000 A 
ATOM      5  C   UNL     1       4.017   5.363  17.914  0.00  0.00    +0.000 A 
ATOM      6  C   UNL     1       3.092   6.165  18.646  0.00  0.00    +0.000 A 
ATOM      7  O   UNL     1       3.179   7.373  18.835  0.00  0.00    +0.000 OA
ATOM      8  N   UNL     1       2.041   5.433  19.150  0.00  0.00    +0.000 N 
ATOM      9  C   UNL     1       1.814   4.075  19.011  0.00  0.00    +0.000 A 
ATOM     10  O   UNL     1       0.800   3.589  19.508  0.00  0.00    +0.000 OA
ATOM     11  N   UNL     1       2.764   3.349  18.308  0.00  0.00    +0.000 N 
ATOM     12  C   UNL     1       2.600   1.922  18.106  0.00  0.00    +0.000 C 
ATOM     13  H   UNL     1       1.345   5.945  19.671  0.00  0.00    +0.000 HD
ENDROOT
BRANCH   1  14
ATOM     14  C   UNL     1       5.775   6.971  17.098  0.00  0.00    +0.000 C 
BRANCH  14  15
ATOM     15  C   UNL     1       7.105   7.144  17.838  0.00  0.00    +0.000 C 
BRANCH  15  16
ATOM     16  C   UNL     1       7.757   8.483  17.482  0.00  0.00    +0.000 C 
BRANCH  16  18
ATOM     17  C   UNL     1       9.042  10.445  18.403  0.00  0.00    +0.000 C 
ATOM     18  C   UNL     1       8.662   8.986  18.607  0.00  0.00    +0.000 C 
ENDBRANCH  16  18
ENDBRANCH  15  16
ENDBRANCH  14  15
ENDBRANCH   1  14
BRANCH   2  19
ATOM     19  S   UNL     1       7.130   4.299  15.852  0.00  0.00    +0.000 S 
BRANCH  19  20
ATOM     20  C   UNL     1       6.631   4.665  14.142  0.00  0.00    +0.000 C 
BRANCH  20  21
ATOM     21  C   UNL     1       5.434   3.850  13.642  0.00  0.00    +0.000 C 
BRANCH  21  22
ATOM     22  C   UNL     1       5.693   3.335  12.220  0.00  0.00    +0.000 C 
ATOM     23  C   UNL     1       4.414   3.192  11.409  0.00  0.00    +0.000 C 
ENDBRANCH  21  22
ENDBRANCH  20  21
ENDBRANCH  19  20
ENDBRANCH   2  19
TORSDOF 8
ENDMDL
MODEL 3
REMARK VINA RESULT:      -6.4      3.274      6.131
REMARK  Name = 
REMARK  11 active torsions:
REMARK  status: ('A' for Active; 'I' for Inactive)
REMARK    1  A    between atoms: C_1  and  C_2
REMARK    2  A    between atoms: C_2  and  C_3
REMARK    3  A    between atoms: C_3  and  C_4
REMARK    4  A    between atoms: C_4  and  C_5
REMARK    5  A    between atoms: C_5  and  N_6
REMARK    6  A    between atoms: C_7  and  S_8
REMARK    7  A    between atoms: S_8  and  C_9
REMARK    8  A    between atoms: C_9  and  C_10
REMARK    9  A    between atoms: C_10  and  C_11
REMARK   10  A    between atoms: C_11  and  C_12
REMARK   11  A    between atoms: N_21  and  C_22
REMARK                            x       y       z     vdW  Elec       q    Type
REMARK                         _______ _______ _______ _____ _____    ______ ____
ROOT
ATOM      1  N   UNL     1       3.994   5.344  18.295  0.00  0.00    +0.000 N 
ATOM      2  C   UNL     1       4.280   6.099  17.171  0.00  0.00    +0.000 A 
ATOM      3  N   UNL     1       3.677   7.269  17.198  0.00  0.00    +0.000 NA
ATOM      4  C   UNL     1       2.972   7.267  18.359  0.00  0.00    +0.000 A 
ATOM      5  C   UNL     1       3.116   6.093  19.047  0.00  0.00    +0.000 A 
ATOM      6  C   UNL     1       2.432   5.850  20.276  0.00  0.00    +0.000 A 
ATOM      7  O   UNL     1       2.487   4.820  20.938  0.00  0.00    +0.000 OA
ATOM      8  N   UNL     1       1.666   6.921  20.675  0.00  0.00    +0.000 N 
ATOM      9  C   UNL     1       1.516   8.138  20.034  0.00  0.00    +0.000 A 
ATOM     10  O   UNL     1       0.807   8.999  20.551  0.00  0.00    +0.000 OA
ATOM     11  N   UNL     1       2.188   8.300  18.831  0.00  0.00    +0.000 N 
ATOM     12  C   UNL     1       2.095   9.548  18.097  0.00  0.00    +0.000 C 
ATOM     13  H   UNL     1       1.163   6.816  21.543  0.00  0.00    +0.000 HD
ENDROOT
BRANCH   1  14
ATOM     14  C   UNL     1       4.445   3.998  18.612  0.00  0.00    +0.000 C 
BRANCH  14  15
ATOM     15  C   UNL     1       3.828   2.894  17.746  0.00  0.00    +0.000 C 
BRANCH  15  16
ATOM     16  C   UNL     1       3.446   1.682  18.599  0.00  0.00    +0.000 C 
BRANCH  16  18
ATOM     17  C   UNL     1       1.054   2.475  18.634  0.00  0.00    +0.000 C 
ATOM     18  C   UNL     1       2.221   1.969  19.469  0.00  0.00    +0.000 C 
ENDBRANCH  16  18
ENDBRANCH  15  16
ENDBRANCH  14  15
ENDBRANCH   1  14
BRANCH   2  19
ATOM     19  S   UNL     1       5.332   5.553  15.906  0.00  0.00    +0.000 S 
BRANCH  19  20
ATOM     20  C   UNL     1       6.998   5.694  16.621  0.00  0.00    +0.000 C 
BRANCH  20  21
ATOM     21  C   UNL     1       7.369   7.103  17.093  0.00  0.00    +0.000 C 
BRANCH  21  22
ATOM     22  C   UNL     1       7.986   7.052  18.498  0.00  0.00    +0.000 C 
ATOM     23  C   UNL     1       7.784   5.704  19.173  0.00  0.00    +0.000 C 
ENDBRANCH  21  22
ENDBRANCH  20  21
ENDBRANCH  19  20
ENDBRANCH   2  19
TORSDOF 8
ENDMDL
MODEL 4
REMARK VINA RESULT:      -6.4      3.149      6.860
REMARK  Name = 
REMARK  11 active torsions:
REMARK  status: ('A' for Active; 'I' for Inactive)
REMARK    1  A    between atoms: C_1  and  C_2
REMARK    2  A    between atoms: C_2  and  C_3
REMARK    3  A    between atoms: C_3  and  C_4
REMARK    4  A    between atoms: C_4  and  C_5
REMARK    5  A    between atoms: C_5  and  N_6
REMARK    6  A    between atoms: C_7  and  S_8
REMARK    7  A    between atoms: S_8  and  C_9
REMARK    8  A    between atoms: C_9  and  C_10
REMARK    9  A    between atoms: C_10  and  C_11
REMARK   10  A    between atoms: C_11  and  C_12
REMARK   11  A    between atoms: N_21  and  C_22
REMARK                            x       y       z     vdW  Elec       q    Type
REMARK                         _______ _______ _______ _____ _____    ______ ____
ROOT
ATOM      1  N   UNL     1       4.690   4.398  17.402  0.00  0.00    +0.000 N 
ATOM      2  C   UNL     1       4.634   5.741  17.730  0.00  0.00    +0.000 A 
ATOM      3  N   UNL     1       3.790   5.972  18.713  0.00  0.00    +0.000 NA
ATOM      4  C   UNL     1       3.275   4.753  19.020  0.00  0.00    +0.000 A 
ATOM      5  C   UNL     1       3.779   3.765  18.219  0.00  0.00    +0.000 A 
ATOM      6  C   UNL     1       3.349   2.409  18.333  0.00  0.00    +0.000 A 
ATOM      7  O   UNL     1       3.732   1.473  17.641  0.00  0.00    +0.000 OA
ATOM      8  N   UNL     1       2.423   2.231  19.335  0.00  0.00    +0.000 N 
ATOM      9  C   UNL     1       1.909   3.189  20.191  0.00  0.00    +0.000 A 
ATOM     10  O   UNL     1       1.102   2.845  21.052  0.00  0.00    +0.000 OA
ATOM     11  N   UNL     1       2.350   4.492  20.011  0.00  0.00    +0.000 N 
ATOM     12  C   UNL     1       1.871   5.557  20.870  0.00  0.00    +0.000 C 
ATOM     13  H   UNL     1       2.085   1.290  19.473  0.00  0.00    +0.000 HD
ENDROOT
BRANCH   1  14
ATOM     14  C   UNL     1       5.477   3.760  16.359  0.00  0.00    +0.000 C 
BRANCH  14  15
ATOM     15  C   UNL     1       5.150   4.222  14.935  0.00  0.00    +0.000 C 
BRANCH  15  16
ATOM     16  C   UNL     1       6.251   3.801  13.959  0.00  0.00    +0.000 C 
BRANCH  16  18
ATOM     17  C   UNL     1       6.004   2.397  11.882  0.00  0.00    +0.000 C 
ATOM     18  C   UNL     1       5.740   3.753  12.518  0.00  0.00    +0.000 C 
ENDBRANCH  16  18
ENDBRANCH  15  16
ENDBRANCH  14  15
ENDBRANCH   1  14
BRANCH   2  19
ATOM     19  S   UNL     1       5.594   6.950  16.941  0.00  0.00    +0.000 S 
BRANCH  19  20
ATOM     20  C   UNL     1       7.308   6.476  17.322  0.00  0.00    +0.000 C 
BRANCH  20  21
ATOM     21  C   UNL     1       8.003   7.379  18.345  0.00  0.00    +0.000 C 
BRANCH  21  22
ATOM     22  C   UNL     1       8.059   8.825  17.833  0.00  0.00    +0.000 C 
ATOM     23  C   UNL     1       8.906   9.725  18.719  0.00  0.00    +0.000 C 
ENDBRANCH  21  22
ENDBRANCH  20  21
ENDBRANCH  19  20
ENDBRANCH   2  19
TORSDOF 8
ENDMDL
MODEL 5
REMARK VINA RESULT:      -6.4      2.679      4.761
REMARK  Name = 
REMARK  11 active torsions:
REMARK  status: ('A' for Active; 'I' for Inactive)
REMARK    1  A    between atoms: C_1  and  C_2
REMARK    2  A    between atoms: C_2  and  C_3
REMARK    3  A    between atoms: C_3  and  C_4
REMARK    4  A    between atoms: C_4  and  C_5
REMARK    5  A    between atoms: C_5  and  N_6
REMARK    6  A    between atoms: C_7  and  S_8
REMARK    7  A    between atoms: S_8  and  C_9
REMARK    8  A    between atoms: C_9  and  C_10
REMARK    9  A    between atoms: C_10  and  C_11
REMARK   10  A    between atoms: C_11  and  C_12
REMARK   11  A    between atoms: N_21  and  C_22
REMARK                            x       y       z     vdW  Elec       q    Type
REMARK                         _______ _______ _______ _____ _____    ______ ____
ROOT
ATOM      1  N   UNL     1       3.077   5.793  18.053  0.00  0.00    +0.000 N 
ATOM      2  C   UNL     1       3.291   7.149  17.877  0.00  0.00    +0.000 A 
ATOM      3  N   UNL     1       4.561   7.423  17.671  0.00  0.00    +0.000 NA
ATOM      4  C   UNL     1       5.189   6.221  17.730  0.00  0.00    +0.000 A 
ATOM      5  C   UNL     1       4.319   5.198  17.992  0.00  0.00    +0.000 A 
ATOM      6  C   UNL     1       4.761   3.850  18.141  0.00  0.00    +0.000 A 
ATOM      7  O   UNL     1       4.051   2.884  18.399  0.00  0.00    +0.000 OA
ATOM      8  N   UNL     1       6.119   3.717  17.961  0.00  0.00    +0.000 N 
ATOM      9  C   UNL     1       7.033   4.711  17.662  0.00  0.00    +0.000 A 
ATOM     10  O   UNL     1       8.214   4.406  17.509  0.00  0.00    +0.000 OA
ATOM     11  N   UNL     1       6.541   6.004  17.556  0.00  0.00    +0.000 N 
ATOM     12  C   UNL     1       7.428   7.106  17.235  0.00  0.00    +0.000 C 
ATOM     13  H   UNL     1       6.494   2.784  18.044  0.00  0.00    +0.000 HD
ENDROOT
BRANCH   1  14
ATOM     14  C   UNL     1       1.824   5.109  18.330  0.00  0.00    +0.000 C 
BRANCH  14  15
ATOM     15  C   UNL     1       1.576   4.798  19.810  0.00  0.00    +0.000 C 
BRANCH  15  16
ATOM     16  C   UNL     1       0.867   3.451  19.972  0.00  0.00    +0.000 C 
BRANCH  16  18
ATOM     17  C   UNL     1       2.706   2.755  21.548  0.00  0.00    +0.000 C 
ATOM     18  C   UNL     1       1.204   2.794  21.312  0.00  0.00    +0.000 C 
ENDBRANCH  16  18
ENDBRANCH  15  16
ENDBRANCH  14  15
ENDBRANCH   1  14
BRANCH   2  19
ATOM     19  S   UNL     1       2.013   8.320  17.902  0.00  0.00    +0.000 S 
BRANCH  19  20
ATOM     20  C   UNL     1       1.645   8.540  19.670  0.00  0.00    +0.000 C 
BRANCH  20  21
ATOM     21  C   UNL     1       0.633   9.649  19.974  0.00  0.00    +0.000 C 
BRANCH  21  22
ATOM     22  C   UNL     1      -0.054  10.116  18.683  0.00  0.00    +0.000 C 
ATOM     23  C   UNL     1      -1.101  11.190  18.937  0.00  0.00    +0.000 C 
ENDBRANCH  21  22
ENDBRANCH  20  21
ENDBRANCH  19  20
ENDBRANCH   2  19
TORSDOF 8
ENDMDL
MODEL 6
REMARK VINA RESULT:      -6.4      2.729      4.766
REMARK  Name = 
REMARK  11 active torsions:
REMARK  status: ('A' for Active; 'I' for Inactive)
REMARK    1  A    between atoms: C_1  and  C_2
REMARK    2  A    between atoms: C_2  and  C_3
REMARK    3  A    between atoms: C_3  and  C_4
REMARK    4  A    between atoms: C_4  and  C_5
REMARK    5  A    between atoms: C_5  and  N_6
REMARK    6  A    between atoms: C_7  and  S_8
REMARK    7  A    between atoms: S_8  and  C_9
REMARK    8  A    between atoms: C_9  and  C_10
REMARK    9  A    between atoms: C_10  and  C_11
REMARK   10  A    between atoms: C_11  and  C_12
REMARK   11  A    between atoms: N_21  and  C_22
REMARK                            x       y       z     vdW  Elec       q    Type
REMARK                         _______ _______ _______ _____ _____    ______ ____
ROOT
ATOM      1  N   UNL     1       3.126   5.672  19.609  0.00  0.00    +0.000 N 
ATOM      2  C   UNL     1       2.820   6.855  18.960  0.00  0.00    +0.000 A 
ATOM      3  N   UNL     1       3.571   7.040  17.895  0.00  0.00    +0.000 NA
ATOM      4  C   UNL     1       4.394   5.960  17.861  0.00  0.00    +0.000 A 
ATOM      5  C   UNL     1       4.173   5.111  18.911  0.00  0.00    +0.000 A 
ATOM      6  C   UNL     1       4.950   3.930  19.103  0.00  0.00    +0.000 A 
ATOM      7  O   UNL     1       4.832   3.134  20.027  0.00  0.00    +0.000 OA
ATOM      8  N   UNL     1       5.891   3.751  18.114  0.00  0.00    +0.000 N 
ATOM      9  C   UNL     1       6.129   4.560  17.018  0.00  0.00    +0.000 A 
ATOM     10  O   UNL     1       6.999   4.230  16.214  0.00  0.00    +0.000 OA
ATOM     11  N   UNL     1       5.356   5.705  16.904  0.00  0.00    +0.000 N 
ATOM     12  C   UNL     1       5.531   6.605  15.780  0.00  0.00    +0.000 C 
ATOM     13  H   UNL     1       6.468   2.926  18.187  0.00  0.00    +0.000 HD
ENDROOT
BRANCH   1  14
ATOM     14  C   UNL     1       2.539   5.138  20.827  0.00  0.00    +0.000 C 
BRANCH  14  15
ATOM     15  C   UNL     1       1.179   4.456  20.640  0.00  0.00    +0.000 C 
BRANCH  15  16
ATOM     16  C   UNL     1       1.355   2.974  20.300  0.00  0.00    +0.000 C 
BRANCH  16  18
ATOM     17  C   UNL     1       2.072   2.137  18.034  0.00  0.00    +0.000 C 
ATOM     18  C   UNL     1       0.916   2.668  18.867  0.00  0.00    +0.000 C 
ENDBRANCH  16  18
ENDBRANCH  15  16
ENDBRANCH  14  15
ENDBRANCH   1  14
BRANCH   2  19
ATOM     19  S   UNL     1       1.571   7.933  19.494  0.00  0.00    +0.000 S 
BRANCH  19  20
ATOM     20  C   UNL     1       1.485   9.196  18.189  0.00  0.00    +0.000 C 
BRANCH  20  21
ATOM     21  C   UNL     1       0.836  10.514  18.623  0.00  0.00    +0.000 C 
BRANCH  21  22
ATOM     22  C   UNL     1      -0.672  10.324  18.835  0.00  0.00    +0.000 C 
ATOM     23  C   UNL     1      -1.411  10.038  17.537  0.00  0.00    +0.000 C 
ENDBRANCH  21  22
ENDBRANCH  20  21
ENDBRANCH  19  20
ENDBRANCH   2  19
TORSDOF 8
ENDMDL
MODEL 7
REMARK VINA RESULT:      -6.4      2.741      6.052
REMARK  Name = 
REMARK  11 active torsions:
REMARK  status: ('A' for Active; 'I' for Inactive)
REMARK    1  A    between atoms: C_1  and  C_2
REMARK    2  A    between atoms: C_2  and  C_3
REMARK    3  A    between atoms: C_3  and  C_4
REMARK    4  A    between atoms: C_4  and  C_5
REMARK    5  A    between atoms: C_5  and  N_6
REMARK    6  A    between atoms: C_7  and  S_8
REMARK    7  A    between atoms: S_8  and  C_9
REMARK    8  A    between atoms: C_9  and  C_10
REMARK    9  A    between atoms: C_10  and  C_11
REMARK   10  A    between atoms: C_11  and  C_12
REMARK   11  A    between atoms: N_21  and  C_22
REMARK                            x       y       z     vdW  Elec       q    Type
REMARK                         _______ _______ _______ _____ _____    ______ ____
ROOT
ATOM      1  N   UNL     1       4.612   5.395  16.719  0.00  0.00    +0.000 N 
ATOM      2  C   UNL     1       4.991   4.116  16.353  0.00  0.00    +0.000 A 
ATOM      3  N   UNL     1       4.269   3.197  16.959  0.00  0.00    +0.000 NA
ATOM      4  C   UNL     1       3.413   3.895  17.747  0.00  0.00    +0.000 A 
ATOM      5  C   UNL     1       3.610   5.246  17.653  0.00  0.00    +0.000 A 
ATOM      6  C   UNL     1       2.851   6.175  18.425  0.00  0.00    +0.000 A 
ATOM      7  O   UNL     1       2.983   7.394  18.416  0.00  0.00    +0.000 OA
ATOM      8  N   UNL     1       1.913   5.559  19.221  0.00  0.00    +0.000 N 
ATOM      9  C   UNL     1       1.653   4.204  19.326  0.00  0.00    +0.000 A 
ATOM     10  O   UNL     1       0.752   3.828  20.073  0.00  0.00    +0.000 OA
ATOM     11  N   UNL     1       2.443   3.353  18.567  0.00  0.00    +0.000 N 
ATOM     12  C   UNL     1       2.232   1.919  18.608  0.00  0.00    +0.000 C 
ATOM     13  H   UNL     1       1.335   6.163  19.786  0.00  0.00    +0.000 HD
ENDROOT
BRANCH   1  14
ATOM     14  C   UNL     1       5.187   6.660  16.290  0.00  0.00    +0.000 C 
BRANCH  14  15
ATOM     15  C   UNL     1       6.089   7.340  17.327  0.00  0.00    +0.000 C 
BRANCH  15  16
ATOM     16  C   UNL     1       7.503   6.754  17.286  0.00  0.00    +0.000 C 
BRANCH  16  18
ATOM     17  C   UNL     1       8.061   5.887  19.585  0.00  0.00    +0.000 C 
ATOM     18  C   UNL     1       7.626   5.516  18.176  0.00  0.00    +0.000 C 
ENDBRANCH  16  18
ENDBRANCH  15  16
ENDBRANCH  14  15
ENDBRANCH   1  14
BRANCH   2  19
ATOM     19  S   UNL     1       6.253   3.793  15.208  0.00  0.00    +0.000 S 
BRANCH  19  20
ATOM     20  C   UNL     1       5.442   3.965  13.590  0.00  0.00    +0.000 C 
BRANCH  20  21
ATOM     21  C   UNL     1       6.262   3.437  12.409  0.00  0.00    +0.000 C 
BRANCH  21  22
ATOM     22  C   UNL     1       5.429   2.453  11.577  0.00  0.00    +0.000 C 
ATOM     23  C   UNL     1       6.220   1.218  11.172  0.00  0.00    +0.000 C 
ENDBRANCH  21  22
ENDBRANCH  20  21
ENDBRANCH  19  20
ENDBRANCH   2  19
TORSDOF 8
ENDMDL
MODEL 8
REMARK VINA RESULT:      -6.3      3.292      5.854
REMARK  Name = 
REMARK  11 active torsions:
REMARK  status: ('A' for Active; 'I' for Inactive)
REMARK    1  A    between atoms: C_1  and  C_2
REMARK    2  A    between atoms: C_2  and  C_3
REMARK    3  A    between atoms: C_3  and  C_4
REMARK    4  A    between atoms: C_4  and  C_5
REMARK    5  A    between atoms: C_5  and  N_6
REMARK    6  A    between atoms: C_7  and  S_8
REMARK    7  A    between atoms: S_8  and  C_9
REMARK    8  A    between atoms: C_9  and  C_10
REMARK    9  A    between atoms: C_10  and  C_11
REMARK   10  A    between atoms: C_11  and  C_12
REMARK   11  A    between atoms: N_21  and  C_22
REMARK                            x       y       z     vdW  Elec       q    Type
REMARK                         _______ _______ _______ _____ _____    ______ ____
ROOT
ATOM      1  N   UNL     1       3.517   6.238  18.114  0.00  0.00    +0.000 N 
ATOM      2  C   UNL     1       4.256   5.410  17.288  0.00  0.00    +0.000 A 
ATOM      3  N   UNL     1       4.132   4.144  17.624  0.00  0.00    +0.000 NA
ATOM      4  C   UNL     1       3.306   4.151  18.702  0.00  0.00    +0.000 A 
ATOM      5  C   UNL     1       2.929   5.419  19.053  0.00  0.00    +0.000 A 
ATOM      6  C   UNL     1       2.095   5.673  20.182  0.00  0.00    +0.000 A 
ATOM      7  O   UNL     1       1.734   6.775  20.576  0.00  0.00    +0.000 OA
ATOM      8  N   UNL     1       1.711   4.518  20.825  0.00  0.00    +0.000 N 
ATOM      9  C   UNL     1       2.037   3.216  20.490  0.00  0.00    +0.000 A 
ATOM     10  O   UNL     1       1.580   2.296  21.166  0.00  0.00    +0.000 OA
ATOM     11  N   UNL     1       2.871   3.040  19.396  0.00  0.00    +0.000 N 
ATOM     12  C   UNL     1       3.255   1.708  18.968  0.00  0.00    +0.000 C 
ATOM     13  H   UNL     1       1.111   4.629  21.629  0.00  0.00    +0.000 HD
ENDROOT
BRANCH   1  14
ATOM     14  C   UNL     1       3.421   7.689  18.079  0.00  0.00    +0.000 C 
BRANCH  14  15
ATOM     15  C   UNL     1       2.056   8.232  17.642  0.00  0.00    +0.000 C 
BRANCH  15  16
ATOM     16  C   UNL     1       1.913   9.709  18.017  0.00  0.00    +0.000 C 
BRANCH  16  18
ATOM     17  C   UNL     1      -0.537  10.247  18.259  0.00  0.00    +0.000 C 
ATOM     18  C   UNL     1       0.758   9.934  18.994  0.00  0.00    +0.000 C 
ENDBRANCH  16  18
ENDBRANCH  15  16
ENDBRANCH  14  15
ENDBRANCH   1  14
BRANCH   2  19
ATOM     19  S   UNL     1       5.203   5.997  15.959  0.00  0.00    +0.000 S 
BRANCH  19  20
ATOM     20  C   UNL     1       6.923   5.774  16.504  0.00  0.00    +0.000 C 
BRANCH  20  21
ATOM     21  C   UNL     1       7.103   5.707  18.024  0.00  0.00    +0.000 C 
BRANCH  21  22
ATOM     22  C   UNL     1       7.941   6.896  18.516  0.00  0.00    +0.000 C 
ATOM     23  C   UNL     1       7.836   8.103  17.596  0.00  0.00    +0.000 C 
ENDBRANCH  21  22
ENDBRANCH  20  21
ENDBRANCH  19  20
ENDBRANCH   2  19
TORSDOF 8
ENDMDL
MODEL 9
REMARK VINA RESULT:      -6.3      2.535      4.499
REMARK  Name = 
REMARK  11 active torsions:
REMARK  status: ('A' for Active; 'I' for Inactive)
REMARK    1  A    between atoms: C_1  and  C_2
REMARK    2  A    between atoms: C_2  and  C_3
REMARK    3  A    between atoms: C_3  and  C_4
REMARK    4  A    between atoms: C_4  and  C_5
REMARK    5  A    between atoms: C_5  and  N_6
REMARK    6  A    between atoms: C_7  and  S_8
REMARK    7  A    between atoms: S_8  and  C_9
REMARK    8  A    between atoms: C_9  and  C_10
REMARK    9  A    between atoms: C_10  and  C_11
REMARK   10  A    between atoms: C_11  and  C_12
REMARK   11  A    between atoms: N_21  and  C_22
REMARK                            x       y       z     vdW  Elec       q    Type
REMARK                         _______ _______ _______ _____ _____    ______ ____
ROOT
ATOM      1  N   UNL     1       3.080   5.847  17.993  0.00  0.00    +0.000 N 
ATOM      2  C   UNL     1       3.317   7.201  17.838  0.00  0.00    +0.000 A 
ATOM      3  N   UNL     1       4.595   7.459  17.654  0.00  0.00    +0.000 NA
ATOM      4  C   UNL     1       5.203   6.246  17.708  0.00  0.00    +0.000 A 
ATOM      5  C   UNL     1       4.313   5.234  17.944  0.00  0.00    +0.000 A 
ATOM      6  C   UNL     1       4.732   3.877  18.082  0.00  0.00    +0.000 A 
ATOM      7  O   UNL     1       4.004   2.920  18.317  0.00  0.00    +0.000 OA
ATOM      8  N   UNL     1       6.090   3.725  17.921  0.00  0.00    +0.000 N 
ATOM      9  C   UNL     1       7.024   4.708  17.649  0.00  0.00    +0.000 A 
ATOM     10  O   UNL     1       8.202   4.386  17.509  0.00  0.00    +0.000 OA
ATOM     11  N   UNL     1       6.554   6.010  17.551  0.00  0.00    +0.000 N 
ATOM     12  C   UNL     1       7.462   7.102  17.257  0.00  0.00    +0.000 C 
ATOM     13  H   UNL     1       6.450   2.785  17.998  0.00  0.00    +0.000 HD
ENDROOT
BRANCH   1  14
ATOM     14  C   UNL     1       1.812   5.180  18.243  0.00  0.00    +0.000 C 
BRANCH  14  15
ATOM     15  C   UNL     1       1.521   4.887  19.719  0.00  0.00    +0.000 C 
BRANCH  15  16
ATOM     16  C   UNL     1       0.751   3.572  19.871  0.00  0.00    +0.000 C 
BRANCH  16  18
ATOM     17  C   UNL     1       2.322   3.345  21.828  0.00  0.00    +0.000 C 
ATOM     18  C   UNL     1       1.472   2.602  20.809  0.00  0.00    +0.000 C 
ENDBRANCH  16  18
ENDBRANCH  15  16
ENDBRANCH  14  15
ENDBRANCH   1  14
BRANCH   2  19
ATOM     19  S   UNL     1       2.057   8.392  17.858  0.00  0.00    +0.000 S 
BRANCH  19  20
ATOM     20  C   UNL     1       1.718   8.651  19.626  0.00  0.00    +0.000 C 
BRANCH  20  21
ATOM     21  C   UNL     1       0.614   9.672  19.918  0.00  0.00    +0.000 C 
BRANCH  21  22
ATOM     22  C   UNL     1       0.370   9.780  21.429  0.00  0.00    +0.000 C 
ATOM     23  C   UNL     1      -0.508   8.657  21.959  0.00  0.00    +0.000 C 
ENDBRANCH  21  22
ENDBRANCH  20  21
ENDBRANCH  19  20
ENDBRANCH   2  19
TORSDOF 8
ENDMDL
