MODEL 1
REMARK VINA RESULT:      -8.1      0.000      0.000
REMARK  Name = 
REMARK  9 active torsions:
REMARK  status: ('A' for Active; 'I' for Inactive)
REMARK    1  A    between atoms: C_1  and  C_2
REMARK    2  A    between atoms: C_2  and  N_3
REMARK    3  A    between atoms: C_2  and  C_29
REMARK    4  A    between atoms: N_3  and  C_4
REMARK    5  A    between atoms: C_4  and  C_5
REMARK    6  A    between atoms: N_7  and  C_8
REMARK    7  A    between atoms: C_10  and  S_11
REMARK    8  A    between atoms: S_11  and  N_14
REMARK    9  A    between atoms: C_22  and  N_23
REMARK                            x       y       z     vdW  Elec       q    Type
REMARK                         _______ _______ _______ _____ _____    ______ ____
ROOT
ATOM      1  C   UNL     1       1.210   8.754  20.077  0.00  0.00    +0.000 A 
ATOM      2  C   UNL     1       1.878   7.518  20.078  0.00  0.00    +0.000 A 
ATOM      3  C   UNL     1       2.601   7.111  18.963  0.00  0.00    +0.000 A 
ATOM      4  C   UNL     1       2.687   7.958  17.863  0.00  0.00    +0.000 A 
ATOM      5  C   UNL     1       2.048   9.213  17.893  0.00  0.00    +0.000 A 
ATOM      6  C   UNL     1       1.301   9.671  18.998  0.00  0.00    +0.000 A 
ENDROOT
BRANCH   6   7
ATOM      7  N   UNL     1       0.630  10.888  18.964  0.00  0.00    +0.000 N 
ATOM      8  C   UNL     1      -0.840  11.020  18.923  0.00  0.00    +0.000 C 
ATOM      9  C   UNL     1      -1.210  12.172  17.974  0.00  0.00    +0.000 C 
ATOM     10  O   UNL     1      -0.622  13.408  18.412  0.00  0.00    +0.000 OA
ATOM     11  C   UNL     1       0.810  13.288  18.461  0.00  0.00    +0.000 C 
ATOM     12  C   UNL     1       1.266  12.150  19.394  0.00  0.00    +0.000 C 
ENDBRANCH   6   7
BRANCH   1  15
ATOM     13  C   UNL     1       0.851   9.493  22.377  0.00  0.00    +0.000 C 
ATOM     14  O   UNL     1       2.043   9.663  22.626  0.00  0.00    +0.000 OA
ATOM     15  N   UNL     1       0.365   9.017  21.170  0.00  0.00    +0.000 N 
ATOM     16  H   UNL     1      -0.602   9.194  20.941  0.00  0.00    +0.000 HD
BRANCH  13  17
ATOM     17  C   UNL     1      -0.267   9.725  23.393  0.00  0.00    +0.000 C 
BRANCH  17  18
ATOM     18  N   UNL     1      -1.394  10.411  22.754  0.00  0.00    +0.000 NA
ATOM     19  H   UNL     1      -2.253   9.887  22.931  0.00  0.00    +0.000 HD
BRANCH  18  21
ATOM     20  C   UNL     1      -0.696  12.701  22.393  0.00  0.00    +0.000 C 
ATOM     21  C   UNL     1      -1.567  11.782  23.246  0.00  0.00    +0.000 C 
BRANCH  21  22
ATOM     22  C   UNL     1      -2.999  12.229  23.230  0.00  0.00    +0.000 A 
ATOM     23  C   UNL     1      -3.744  12.946  22.315  0.00  0.00    +0.000 A 
ATOM     24  C   UNL     1      -5.011  13.161  22.908  0.00  0.00    +0.000 A 
ATOM     25  C   UNL     1      -4.970  12.545  24.137  0.00  0.00    +0.000 A 
ATOM     26  O   UNL     1      -3.758  11.967  24.339  0.00  0.00    +0.000 OA
ENDBRANCH  21  22
ENDBRANCH  18  21
ENDBRANCH  17  18
ENDBRANCH  13  17
ENDBRANCH   1  15
BRANCH   3  27
ATOM     27  S   UNL     1       3.558   5.614  19.057  0.00  0.00    +0.000 S 
ATOM     28  O   UNL     1       4.919   5.961  18.702  0.00  0.00    +0.000 OA
ATOM     29  O   UNL     1       3.262   5.014  20.345  0.00  0.00    +0.000 OA
BRANCH  27  30
ATOM     30  N   UNL     1       2.958   4.586  17.867  0.00  0.00    +0.000 NA
ATOM     31  C   UNL     1       1.524   4.216  17.833  0.00  0.00    +0.000 C 
ATOM     32  C   UNL     1       1.299   2.847  18.469  0.00  0.00    +0.000 C 
ATOM     33  O   UNL     1       2.113   1.843  17.847  0.00  0.00    +0.000 OA
ATOM     34  C   UNL     1       3.512   2.167  17.938  0.00  0.00    +0.000 C 
ATOM     35  C   UNL     1       3.817   3.522  17.288  0.00  0.00    +0.000 C 
ENDBRANCH  27  30
ENDBRANCH   3  27
TORSDOF 8
ENDMDL
MODEL 2
REMARK VINA RESULT:      -8.0      0.564      1.006
REMARK  Name = 
REMARK  9 active torsions:
REMARK  status: ('A' for Active; 'I' for Inactive)
REMARK    1  A    between atoms: C_1  and  C_2
REMARK    2  A    between atoms: C_2  and  N_3
REMARK    3  A    between atoms: C_2  and  C_29
REMARK    4  A    between atoms: N_3  and  C_4
REMARK    5  A    between atoms: C_4  and  C_5
REMARK    6  A    between atoms: N_7  and  C_8
REMARK    7  A    between atoms: C_10  and  S_11
REMARK    8  A    between atoms: S_11  and  N_14
REMARK    9  A    between atoms: C_22  and  N_23
REMARK                            x       y       z     vdW  Elec       q    Type
REMARK                         _______ _______ _______ _____ _____    ______ ____
ROOT
ATOM      1  C   UNL     1       1.063   8.977  20.085  0.00  0.00    +0.000 A 
ATOM      2  C   UNL     1       1.611   7.688  20.197  0.00  0.00    +0.000 A 
ATOM      3  C   UNL     1       2.392   7.167  19.171  0.00  0.00    +0.000 A 
ATOM      4  C   UNL     1       2.656   7.951  18.053  0.00  0.00    +0.000 A 
ATOM      5  C   UNL     1       2.135   9.258  17.974  0.00  0.00    +0.000 A 
ATOM      6  C   UNL     1       1.335   9.830  18.985  0.00  0.00    +0.000 A 
ENDROOT
BRANCH   6   7
ATOM      7  N   UNL     1       0.785  11.099  18.840  0.00  0.00    +0.000 N 
ATOM      8  C   UNL     1       1.583  12.334  18.707  0.00  0.00    +0.000 C 
ATOM      9  C   UNL     1       0.899  13.457  19.507  0.00  0.00    +0.000 C 
ATOM     10  O   UNL     1      -0.437  13.686  19.030  0.00  0.00    +0.000 OA
ATOM     11  C   UNL     1      -1.221  12.487  19.150  0.00  0.00    +0.000 C 
ATOM     12  C   UNL     1      -0.601  11.308  18.375  0.00  0.00    +0.000 C 
ENDBRANCH   6   7
BRANCH   1  15
ATOM     13  C   UNL     1       0.554   9.680  22.367  0.00  0.00    +0.000 C 
ATOM     14  O   UNL     1       1.712   9.591  22.771  0.00  0.00    +0.000 OA
ATOM     15  N   UNL     1       0.149   9.364  21.081  0.00  0.00    +0.000 N 
ATOM     16  H   UNL     1      -0.724   9.746  20.747  0.00  0.00    +0.000 HD
BRANCH  13  17
ATOM     17  C   UNL     1      -0.620  10.097  23.252  0.00  0.00    +0.000 C 
BRANCH  17  18
ATOM     18  N   UNL     1      -1.470  11.059  22.543  0.00  0.00    +0.000 NA
ATOM     19  H   UNL     1      -2.296  10.579  22.183  0.00  0.00    +0.000 HD
BRANCH  18  21
ATOM     20  C   UNL     1      -1.098  13.403  23.018  0.00  0.00    +0.000 C 
ATOM     21  C   UNL     1      -1.903  12.164  23.403  0.00  0.00    +0.000 C 
BRANCH  21  22
ATOM     22  C   UNL     1      -3.377  12.429  23.312  0.00  0.00    +0.000 A 
ATOM     23  C   UNL     1      -4.172  12.952  22.313  0.00  0.00    +0.000 A 
ATOM     24  C   UNL     1      -5.474  13.070  22.855  0.00  0.00    +0.000 A 
ATOM     25  C   UNL     1      -5.400  12.591  24.142  0.00  0.00    +0.000 A 
ATOM     26  O   UNL     1      -4.134  12.189  24.428  0.00  0.00    +0.000 OA
ENDBRANCH  21  22
ENDBRANCH  18  21
ENDBRANCH  17  18
ENDBRANCH  13  17
ENDBRANCH   1  15
BRANCH   3  27
ATOM     27  S   UNL     1       3.195   5.598  19.414  0.00  0.00    +0.000 S 
ATOM     28  O   UNL     1       4.621   5.838  19.335  0.00  0.00    +0.000 OA
ATOM     29  O   UNL     1       2.610   5.014  20.608  0.00  0.00    +0.000 OA
BRANCH  27  30
ATOM     30  N   UNL     1       2.758   4.629  18.108  0.00  0.00    +0.000 NA
ATOM     31  C   UNL     1       1.455   3.925  18.086  0.00  0.00    +0.000 C 
ATOM     32  C   UNL     1       1.616   2.467  18.509  0.00  0.00    +0.000 C 
ATOM     33  O   UNL     1       2.590   1.793  17.701  0.00  0.00    +0.000 OA
ATOM     34  C   UNL     1       3.874   2.438  17.774  0.00  0.00    +0.000 C 
ATOM     35  C   UNL     1       3.793   3.904  17.330  0.00  0.00    +0.000 C 
ENDBRANCH  27  30
ENDBRANCH   3  27
TORSDOF 8
ENDMDL
MODEL 3
REMARK VINA RESULT:      -7.9      1.182      1.940
REMARK  Name = 
REMARK  9 active torsions:
REMARK  status: ('A' for Active; 'I' for Inactive)
REMARK    1  A    between atoms: C_1  and  C_2
REMARK    2  A    between atoms: C_2  and  N_3
REMARK    3  A    between atoms: C_2  and  C_29
REMARK    4  A    between atoms: N_3  and  C_4
REMARK    5  A    between atoms: C_4  and  C_5
REMARK    6  A    between atoms: N_7  and  C_8
REMARK    7  A    between atoms: C_10  and  S_11
REMARK    8  A    between atoms: S_11  and  N_14
REMARK    9  A    between atoms: C_22  and  N_23
REMARK                            x       y       z     vdW  Elec       q    Type
REMARK                         _______ _______ _______ _____ _____    ______ ____
ROOT
ATOM      1  C   UNL     1       1.102   8.688  20.051  0.00  0.00    +0.000 A 
ATOM      2  C   UNL     1       1.693   7.425  20.226  0.00  0.00    +0.000 A 
ATOM      3  C   UNL     1       2.510   6.891  19.236  0.00  0.00    +0.000 A 
ATOM      4  C   UNL     1       2.766   7.636  18.090  0.00  0.00    +0.000 A 
ATOM      5  C   UNL     1       2.201   8.920  17.947  0.00  0.00    +0.000 A 
ATOM      6  C   UNL     1       1.364   9.505  18.921  0.00  0.00    +0.000 A 
ENDROOT
BRANCH   6   7
ATOM      7  N   UNL     1       0.773  10.746  18.714  0.00  0.00    +0.000 N 
ATOM      8  C   UNL     1       1.525  12.012  18.611  0.00  0.00    +0.000 C 
ATOM      9  C   UNL     1       0.742  13.117  19.340  0.00  0.00    +0.000 C 
ATOM     10  O   UNL     1      -0.567  13.281  18.770  0.00  0.00    +0.000 OA
ATOM     11  C   UNL     1      -1.306  12.051  18.861  0.00  0.00    +0.000 C 
ATOM     12  C   UNL     1      -0.586  10.886  18.153  0.00  0.00    +0.000 C 
ENDBRANCH   6   7
BRANCH   1  15
ATOM     13  C   UNL     1       0.534   9.626  22.233  0.00  0.00    +0.000 C 
ATOM     14  O   UNL     1       1.699   9.751  22.606  0.00  0.00    +0.000 OA
ATOM     15  N   UNL     1       0.158   9.083  21.015  0.00  0.00    +0.000 N 
ATOM     16  H   UNL     1      -0.764   9.294  20.662  0.00  0.00    +0.000 HD
BRANCH  13  17
ATOM     17  C   UNL     1      -0.674  10.000  23.091  0.00  0.00    +0.000 C 
BRANCH  17  18
ATOM     18  N   UNL     1      -0.694  11.446  23.332  0.00  0.00    +0.000 NA
ATOM     19  H   UNL     1       0.191  11.853  23.025  0.00  0.00    +0.000 HD
BRANCH  18  21
ATOM     20  C   UNL     1      -3.029  12.057  23.522  0.00  0.00    +0.000 C 
ATOM     21  C   UNL     1      -1.792  12.116  22.629  0.00  0.00    +0.000 C 
BRANCH  21  22
ATOM     22  C   UNL     1      -1.465  13.532  22.255  0.00  0.00    +0.000 A 
ATOM     23  C   UNL     1      -0.429  14.375  22.603  0.00  0.00    +0.000 A 
ATOM     24  C   UNL     1      -0.724  15.634  22.028  0.00  0.00    +0.000 A 
ATOM     25  C   UNL     1      -1.909  15.478  21.347  0.00  0.00    +0.000 A 
ATOM     26  O   UNL     1      -2.362  14.203  21.468  0.00  0.00    +0.000 OA
ENDBRANCH  21  22
ENDBRANCH  18  21
ENDBRANCH  17  18
ENDBRANCH  13  17
ENDBRANCH   1  15
BRANCH   3  27
ATOM     27  S   UNL     1       3.363   5.362  19.556  0.00  0.00    +0.000 S 
ATOM     28  O   UNL     1       4.781   5.654  19.512  0.00  0.00    +0.000 OA
ATOM     29  O   UNL     1       2.764   4.798  20.752  0.00  0.00    +0.000 OA
BRANCH  27  30
ATOM     30  N   UNL     1       3.003   4.335  18.273  0.00  0.00    +0.000 NA
ATOM     31  C   UNL     1       1.601   3.989  17.944  0.00  0.00    +0.000 C 
ATOM     32  C   UNL     1       1.223   2.629  18.526  0.00  0.00    +0.000 C 
ATOM     33  O   UNL     1       2.130   1.606  18.092  0.00  0.00    +0.000 OA
ATOM     34  C   UNL     1       3.485   1.908  18.469  0.00  0.00    +0.000 C 
ATOM     35  C   UNL     1       3.943   3.252  17.890  0.00  0.00    +0.000 C 
ENDBRANCH  27  30
ENDBRANCH   3  27
TORSDOF 8
ENDMDL
MODEL 4
REMARK VINA RESULT:      -7.8      1.137      1.911
REMARK  Name = 
REMARK  9 active torsions:
REMARK  status: ('A' for Active; 'I' for Inactive)
REMARK    1  A    between atoms: C_1  and  C_2
REMARK    2  A    between atoms: C_2  and  N_3
REMARK    3  A    between atoms: C_2  and  C_29
REMARK    4  A    between atoms: N_3  and  C_4
REMARK    5  A    between atoms: C_4  and  C_5
REMARK    6  A    between atoms: N_7  and  C_8
REMARK    7  A    between atoms: C_10  and  S_11
REMARK    8  A    between atoms: S_11  and  N_14
REMARK    9  A    between atoms: C_22  and  N_23
REMARK                            x       y       z     vdW  Elec       q    Type
REMARK                         _______ _______ _______ _____ _____    ______ ____
ROOT
ATOM      1  C   UNL     1       1.081   8.928  20.006  0.00  0.00    +0.000 A 
ATOM      2  C   UNL     1       1.689   7.662  20.047  0.00  0.00    +0.000 A 
ATOM      3  C   UNL     1       2.478   7.229  18.987  0.00  0.00    +0.000 A 
ATOM      4  C   UNL     1       2.688   8.077  17.906  0.00  0.00    +0.000 A 
ATOM      5  C   UNL     1       2.107   9.361  17.898  0.00  0.00    +0.000 A 
ATOM      6  C   UNL     1       1.297   9.846  18.947  0.00  0.00    +0.000 A 
ENDROOT
BRANCH   6   7
ATOM      7  N   UNL     1       0.688  11.093  18.872  0.00  0.00    +0.000 N 
ATOM      8  C   UNL     1      -0.769  11.294  18.739  0.00  0.00    +0.000 C 
ATOM      9  C   UNL     1      -1.025  12.461  17.770  0.00  0.00    +0.000 C 
ATOM     10  O   UNL     1      -0.408  13.668  18.246  0.00  0.00    +0.000 OA
ATOM     11  C   UNL     1       1.011  13.482  18.384  0.00  0.00    +0.000 C 
ATOM     12  C   UNL     1       1.355  12.324  19.342  0.00  0.00    +0.000 C 
ENDBRANCH   6   7
BRANCH   1  15
ATOM     13  C   UNL     1       0.578   9.641  22.287  0.00  0.00    +0.000 C 
ATOM     14  O   UNL     1       1.752   9.728  22.637  0.00  0.00    +0.000 OA
ATOM     15  N   UNL     1       0.165   9.223  21.032  0.00  0.00    +0.000 N 
ATOM     16  H   UNL     1      -0.766   9.468  20.729  0.00  0.00    +0.000 HD
BRANCH  13  17
ATOM     17  C   UNL     1      -0.604   9.926  23.213  0.00  0.00    +0.000 C 
BRANCH  17  18
ATOM     18  N   UNL     1      -0.712  11.366  23.466  0.00  0.00    +0.000 NA
ATOM     19  H   UNL     1       0.223  11.775  23.497  0.00  0.00    +0.000 HD
BRANCH  18  21
ATOM     20  C   UNL     1      -2.933  12.178  22.946  0.00  0.00    +0.000 C 
ATOM     21  C   UNL     1      -1.497  12.058  22.439  0.00  0.00    +0.000 C 
BRANCH  21  22
ATOM     22  C   UNL     1      -0.936  13.404  22.086  0.00  0.00    +0.000 A 
ATOM     23  C   UNL     1      -1.467  14.493  21.426  0.00  0.00    +0.000 A 
ATOM     24  C   UNL     1      -0.416  15.432  21.290  0.00  0.00    +0.000 A 
ATOM     25  C   UNL     1       0.684  14.869  21.894  0.00  0.00    +0.000 A 
ATOM     26  O   UNL     1       0.378  13.642  22.391  0.00  0.00    +0.000 OA
ENDBRANCH  21  22
ENDBRANCH  18  21
ENDBRANCH  17  18
ENDBRANCH  13  17
ENDBRANCH   1  15
BRANCH   3  27
ATOM     27  S   UNL     1       3.355   5.688  19.141  0.00  0.00    +0.000 S 
ATOM     28  O   UNL     1       4.749   5.969  18.869  0.00  0.00    +0.000 OA
ATOM     29  O   UNL     1       2.953   5.109  20.411  0.00  0.00    +0.000 OA
BRANCH  27  30
ATOM     30  N   UNL     1       2.778   4.684  17.920  0.00  0.00    +0.000 NA
ATOM     31  C   UNL     1       1.426   4.086  18.001  0.00  0.00    +0.000 C 
ATOM     32  C   UNL     1       1.496   2.647  18.505  0.00  0.00    +0.000 C 
ATOM     33  O   UNL     1       2.372   1.852  17.695  0.00  0.00    +0.000 OA
ATOM     34  C   UNL     1       3.704   2.395  17.669  0.00  0.00    +0.000 C 
ATOM     35  C   UNL     1       3.713   3.835  17.140  0.00  0.00    +0.000 C 
ENDBRANCH  27  30
ENDBRANCH   3  27
TORSDOF 8
ENDMDL
MODEL 5
REMARK VINA RESULT:      -7.8      1.198      1.614
REMARK  Name = 
REMARK  9 active torsions:
REMARK  status: ('A' for Active; 'I' for Inactive)
REMARK    1  A    between atoms: C_1  and  C_2
REMARK    2  A    between atoms: C_2  and  N_3
REMARK    3  A    between atoms: C_2  and  C_29
REMARK    4  A    between atoms: N_3  and  C_4
REMARK    5  A    between atoms: C_4  and  C_5
REMARK    6  A    between atoms: N_7  and  C_8
REMARK    7  A    between atoms: C_10  and  S_11
REMARK    8  A    between atoms: S_11  and  N_14
REMARK    9  A    between atoms: C_22  and  N_23
REMARK                            x       y       z     vdW  Elec       q    Type
REMARK                         _______ _______ _______ _____ _____    ______ ____
ROOT
ATOM      1  C   UNL     1       1.000   9.151  19.887  0.00  0.00    +0.000 A 
ATOM      2  C   UNL     1       1.493   7.835  19.850  0.00  0.00    +0.000 A 
ATOM      3  C   UNL     1       2.240   7.397  18.761  0.00  0.00    +0.000 A 
ATOM      4  C   UNL     1       2.524   8.287  17.731  0.00  0.00    +0.000 A 
ATOM      5  C   UNL     1       2.060   9.615  17.802  0.00  0.00    +0.000 A 
ATOM      6  C   UNL     1       1.297  10.107  18.882  0.00  0.00    +0.000 A 
ENDROOT
BRANCH   6   7
ATOM      7  N   UNL     1       0.802  11.406  18.885  0.00  0.00    +0.000 N 
ATOM      8  C   UNL     1       1.650  12.614  18.898  0.00  0.00    +0.000 C 
ATOM      9  C   UNL     1       1.009  13.663  19.822  0.00  0.00    +0.000 C 
ATOM     10  O   UNL     1      -0.313  14.003  19.373  0.00  0.00    +0.000 OA
ATOM     11  C   UNL     1      -1.147  12.831  19.351  0.00  0.00    +0.000 C 
ATOM     12  C   UNL     1      -0.572  11.725  18.445  0.00  0.00    +0.000 C 
ENDBRANCH   6   7
BRANCH   1  15
ATOM     13  C   UNL     1       0.562   9.726  22.219  0.00  0.00    +0.000 C 
ATOM     14  O   UNL     1       1.735   9.646  22.575  0.00  0.00    +0.000 OA
ATOM     15  N   UNL     1       0.115   9.464  20.934  0.00  0.00    +0.000 N 
ATOM     16  H   UNL     1      -0.778   9.841  20.652  0.00  0.00    +0.000 HD
BRANCH  13  17
ATOM     17  C   UNL     1      -0.588  10.069  23.166  0.00  0.00    +0.000 C 
BRANCH  17  18
ATOM     18  N   UNL     1      -1.475  11.058  22.546  0.00  0.00    +0.000 NA
ATOM     19  H   UNL     1      -2.347  10.605  22.269  0.00  0.00    +0.000 HD
BRANCH  18  21
ATOM     20  C   UNL     1      -0.964  13.380  23.002  0.00  0.00    +0.000 C 
ATOM     21  C   UNL     1      -1.787  12.173  23.446  0.00  0.00    +0.000 C 
BRANCH  21  22
ATOM     22  C   UNL     1      -3.250  12.502  23.480  0.00  0.00    +0.000 A 
ATOM     23  C   UNL     1      -4.169  12.571  24.508  0.00  0.00    +0.000 A 
ATOM     24  C   UNL     1      -5.427  12.813  23.907  0.00  0.00    +0.000 A 
ATOM     25  C   UNL     1      -5.198  12.898  22.554  0.00  0.00    +0.000 A 
ATOM     26  O   UNL     1      -3.879  12.722  22.283  0.00  0.00    +0.000 OA
ENDBRANCH  21  22
ENDBRANCH  18  21
ENDBRANCH  17  18
ENDBRANCH  13  17
ENDBRANCH   1  15
BRANCH   3  27
ATOM     27  S   UNL     1       2.976   5.778  18.818  0.00  0.00    +0.000 S 
ATOM     28  O   UNL     1       3.481   5.499  17.491  0.00  0.00    +0.000 OA
ATOM     29  O   UNL     1       3.869   5.771  19.964  0.00  0.00    +0.000 OA
BRANCH  27  30
ATOM     30  N   UNL     1       1.728   4.696  19.139  0.00  0.00    +0.000 NA
ATOM     31  C   UNL     1       1.291   4.427  20.528  0.00  0.00    +0.000 C 
ATOM     32  C   UNL     1       1.914   3.137  21.055  0.00  0.00    +0.000 C 
ATOM     33  O   UNL     1       1.628   2.028  20.193  0.00  0.00    +0.000 OA
ATOM     34  C   UNL     1       2.112   2.260  18.858  0.00  0.00    +0.000 C 
ATOM     35  C   UNL     1       1.499   3.528  18.251  0.00  0.00    +0.000 C 
ENDBRANCH  27  30
ENDBRANCH   3  27
TORSDOF 8
ENDMDL
MODEL 6
REMARK VINA RESULT:      -7.7      1.109      1.253
REMARK  Name = 
REMARK  9 active torsions:
REMARK  status: ('A' for Active; 'I' for Inactive)
REMARK    1  A    between atoms: C_1  and  C_2
REMARK    2  A    between atoms: C_2  and  N_3
REMARK    3  A    between atoms: C_2  and  C_29
REMARK    4  A    between atoms: N_3  and  C_4
REMARK    5  A    between atoms: C_4  and  C_5
REMARK    6  A    between atoms: N_7  and  C_8
REMARK    7  A    between atoms: C_10  and  S_11
REMARK    8  A    between atoms: S_11  and  N_14
REMARK    9  A    between atoms: C_22  and  N_23
REMARK                            x       y       z     vdW  Elec       q    Type
REMARK                         _______ _______ _______ _____ _____    ______ ____
ROOT
ATOM      1  C   UNL     1       1.060   9.046  19.934  0.00  0.00    +0.000 A 
ATOM      2  C   UNL     1       1.547   7.729  19.882  0.00  0.00    +0.000 A 
ATOM      3  C   UNL     1       2.302   7.304  18.795  0.00  0.00    +0.000 A 
ATOM      4  C   UNL     1       2.601   8.206  17.781  0.00  0.00    +0.000 A 
ATOM      5  C   UNL     1       2.142   9.536  17.867  0.00  0.00    +0.000 A 
ATOM      6  C   UNL     1       1.371  10.016  18.947  0.00  0.00    +0.000 A 
ENDROOT
BRANCH   6   7
ATOM      7  N   UNL     1       0.882  11.317  18.964  0.00  0.00    +0.000 N 
ATOM      8  C   UNL     1      -0.548  11.663  18.843  0.00  0.00    +0.000 C 
ATOM      9  C   UNL     1      -0.685  12.917  17.963  0.00  0.00    +0.000 C 
ATOM     10  O   UNL     1       0.037  14.023  18.529  0.00  0.00    +0.000 OA
ATOM     11  C   UNL     1       1.431  13.694  18.656  0.00  0.00    +0.000 C 
ATOM     12  C   UNL     1       1.656  12.442  19.526  0.00  0.00    +0.000 C 
ENDBRANCH   6   7
BRANCH   1  15
ATOM     13  C   UNL     1       0.604   9.629  22.261  0.00  0.00    +0.000 C 
ATOM     14  O   UNL     1       1.778   9.576  22.621  0.00  0.00    +0.000 OA
ATOM     15  N   UNL     1       0.166   9.348  20.977  0.00  0.00    +0.000 N 
ATOM     16  H   UNL     1      -0.734   9.704  20.691  0.00  0.00    +0.000 HD
BRANCH  13  17
ATOM     17  C   UNL     1      -0.555   9.954  23.203  0.00  0.00    +0.000 C 
BRANCH  17  18
ATOM     18  N   UNL     1      -1.488  10.881  22.554  0.00  0.00    +0.000 NA
ATOM     19  H   UNL     1      -2.338  10.379  22.294  0.00  0.00    +0.000 HD
BRANCH  18  21
ATOM     20  C   UNL     1      -1.014  13.214  22.997  0.00  0.00    +0.000 C 
ATOM     21  C   UNL     1      -1.850  12.008  23.420  0.00  0.00    +0.000 C 
BRANCH  21  22
ATOM     22  C   UNL     1      -3.316  12.327  23.376  0.00  0.00    +0.000 A 
ATOM     23  C   UNL     1      -4.120  12.895  22.409  0.00  0.00    +0.000 A 
ATOM     24  C   UNL     1      -5.401  13.049  22.991  0.00  0.00    +0.000 A 
ATOM     25  C   UNL     1      -5.307  12.547  24.268  0.00  0.00    +0.000 A 
ATOM     26  O   UNL     1      -4.049  12.096  24.510  0.00  0.00    +0.000 OA
ENDBRANCH  21  22
ENDBRANCH  18  21
ENDBRANCH  17  18
ENDBRANCH  13  17
ENDBRANCH   1  15
BRANCH   3  27
ATOM     27  S   UNL     1       3.030   5.680  18.835  0.00  0.00    +0.000 S 
ATOM     28  O   UNL     1       3.295   5.304  17.463  0.00  0.00    +0.000 OA
ATOM     29  O   UNL     1       4.109   5.735  19.806  0.00  0.00    +0.000 OA
BRANCH  27  30
ATOM     30  N   UNL     1       1.853   4.642  19.442  0.00  0.00    +0.000 NA
ATOM     31  C   UNL     1       1.829   4.272  20.875  0.00  0.00    +0.000 C 
ATOM     32  C   UNL     1       2.477   2.908  21.097  0.00  0.00    +0.000 C 
ATOM     33  O   UNL     1       1.860   1.899  20.286  0.00  0.00    +0.000 OA
ATOM     34  C   UNL     1       1.941   2.224  18.887  0.00  0.00    +0.000 C 
ATOM     35  C   UNL     1       1.278   3.574  18.586  0.00  0.00    +0.000 C 
ENDBRANCH  27  30
ENDBRANCH   3  27
TORSDOF 8
ENDMDL
MODEL 7
REMARK VINA RESULT:      -7.7      1.636      2.308
REMARK  Name = 
REMARK  9 active torsions:
REMARK  status: ('A' for Active; 'I' for Inactive)
REMARK    1  A    between atoms: C_1  and  C_2
REMARK    2  A    between atoms: C_2  and  N_3
REMARK    3  A    between atoms: C_2  and  C_29
REMARK    4  A    between atoms: N_3  and  C_4
REMARK    5  A    between atoms: C_4  and  C_5
REMARK    6  A    between atoms: N_7  and  C_8
REMARK    7  A    between atoms: C_10  and  S_11
REMARK    8  A    between atoms: S_11  and  N_14
REMARK    9  A    between atoms: C_22  and  N_23
REMARK                            x       y       z     vdW  Elec       q    Type
REMARK                         _______ _______ _______ _____ _____    ______ ____
ROOT
ATOM      1  C   UNL     1       1.505   8.805  20.116  0.00  0.00    +0.000 A 
ATOM      2  C   UNL     1       2.174   7.570  20.117  0.00  0.00    +0.000 A 
ATOM      3  C   UNL     1       2.527   6.963  18.916  0.00  0.00    +0.000 A 
ATOM      4  C   UNL     1       2.245   7.611  17.719  0.00  0.00    +0.000 A 
ATOM      5  C   UNL     1       1.612   8.869  17.734  0.00  0.00    +0.000 A 
ATOM      6  C   UNL     1       1.231   9.525  18.924  0.00  0.00    +0.000 A 
ENDROOT
BRANCH   6   7
ATOM      7  N   UNL     1       0.549  10.736  18.896  0.00  0.00    +0.000 N 
ATOM      8  C   UNL     1      -0.922  10.856  18.914  0.00  0.00    +0.000 C 
ATOM      9  C   UNL     1      -1.342  11.988  17.960  0.00  0.00    +0.000 C 
ATOM     10  O   UNL     1      -0.746  13.236  18.352  0.00  0.00    +0.000 OA
ATOM     11  C   UNL     1       0.687  13.128  18.342  0.00  0.00    +0.000 C 
ATOM     12  C   UNL     1       1.192  12.011  19.276  0.00  0.00    +0.000 C 
ENDBRANCH   6   7
BRANCH   1  15
ATOM     13  C   UNL     1      -0.160   8.823  21.902  0.00  0.00    +0.000 C 
ATOM     14  O   UNL     1      -0.933   8.051  21.340  0.00  0.00    +0.000 OA
ATOM     15  N   UNL     1       1.033   9.269  21.356  0.00  0.00    +0.000 N 
ATOM     16  H   UNL     1       1.736   9.638  21.981  0.00  0.00    +0.000 HD
BRANCH  13  17
ATOM     17  C   UNL     1      -0.436   9.453  23.267  0.00  0.00    +0.000 C 
BRANCH  17  18
ATOM     18  N   UNL     1      -0.178  10.895  23.219  0.00  0.00    +0.000 NA
ATOM     19  H   UNL     1       0.704  11.065  22.733  0.00  0.00    +0.000 HD
BRANCH  18  21
ATOM     20  C   UNL     1      -2.470  11.641  23.446  0.00  0.00    +0.000 C 
ATOM     21  C   UNL     1      -1.245  11.632  22.535  0.00  0.00    +0.000 C 
BRANCH  21  22
ATOM     22  C   UNL     1      -0.840  13.028  22.162  0.00  0.00    +0.000 A 
ATOM     23  C   UNL     1      -1.519  14.068  21.558  0.00  0.00    +0.000 A 
ATOM     24  C   UNL     1      -0.574  15.103  21.360  0.00  0.00    +0.000 A 
ATOM     25  C   UNL     1       0.615  14.643  21.874  0.00  0.00    +0.000 A 
ATOM     26  O   UNL     1       0.464  13.388  22.373  0.00  0.00    +0.000 OA
ENDBRANCH  21  22
ENDBRANCH  18  21
ENDBRANCH  17  18
ENDBRANCH  13  17
ENDBRANCH   1  15
BRANCH   3  27
ATOM     27  S   UNL     1       3.508   5.478  18.959  0.00  0.00    +0.000 S 
ATOM     28  O   UNL     1       3.630   5.016  17.592  0.00  0.00    +0.000 OA
ATOM     29  O   UNL     1       4.691   5.787  19.742  0.00  0.00    +0.000 OA
BRANCH  27  30
ATOM     30  N   UNL     1       2.614   4.338  19.815  0.00  0.00    +0.000 NA
ATOM     31  C   UNL     1       3.253   3.114  20.349  0.00  0.00    +0.000 C 
ATOM     32  C   UNL     1       3.007   1.923  19.426  0.00  0.00    +0.000 C 
ATOM     33  O   UNL     1       1.606   1.723  19.194  0.00  0.00    +0.000 OA
ATOM     34  C   UNL     1       0.996   2.889  18.613  0.00  0.00    +0.000 C 
ATOM     35  C   UNL     1       1.178   4.122  19.507  0.00  0.00    +0.000 C 
ENDBRANCH  27  30
ENDBRANCH   3  27
TORSDOF 8
ENDMDL
MODEL 8
REMARK VINA RESULT:      -7.6      1.507      2.050
REMARK  Name = 
REMARK  9 active torsions:
REMARK  status: ('A' for Active; 'I' for Inactive)
REMARK    1  A    between atoms: C_1  and  C_2
REMARK    2  A    between atoms: C_2  and  N_3
REMARK    3  A    between atoms: C_2  and  C_29
REMARK    4  A    between atoms: N_3  and  C_4
REMARK    5  A    between atoms: C_4  and  C_5
REMARK    6  A    between atoms: N_7  and  C_8
REMARK    7  A    between atoms: C_10  and  S_11
REMARK    8  A    between atoms: S_11  and  N_14
REMARK    9  A    between atoms: C_22  and  N_23
REMARK                            x       y       z     vdW  Elec       q    Type
REMARK                         _______ _______ _______ _____ _____    ______ ____
ROOT
ATOM      1  C   UNL     1       1.282   8.732  19.871  0.00  0.00    +0.000 A 
ATOM      2  C   UNL     1       1.941   7.494  19.775  0.00  0.00    +0.000 A 
ATOM      3  C   UNL     1       2.648   7.164  18.624  0.00  0.00    +0.000 A 
ATOM      4  C   UNL     1       2.727   8.087  17.587  0.00  0.00    +0.000 A 
ATOM      5  C   UNL     1       2.097   9.341  17.714  0.00  0.00    +0.000 A 
ATOM      6  C   UNL     1       1.366   9.723  18.859  0.00  0.00    +0.000 A 
ENDROOT
BRANCH   6   7
ATOM      7  N   UNL     1       0.705  10.944  18.920  0.00  0.00    +0.000 N 
ATOM      8  C   UNL     1      -0.763  11.085  18.993  0.00  0.00    +0.000 C 
ATOM      9  C   UNL     1      -1.194  12.274  18.118  0.00  0.00    +0.000 C 
ATOM     10  O   UNL     1      -0.565  13.489  18.558  0.00  0.00    +0.000 OA
ATOM     11  C   UNL     1       0.865  13.361  18.496  0.00  0.00    +0.000 C 
ATOM     12  C   UNL     1       1.381  12.185  19.349  0.00  0.00    +0.000 C 
ENDBRANCH   6   7
BRANCH   1  15
ATOM     13  C   UNL     1       0.914   9.508  22.157  0.00  0.00    +0.000 C 
ATOM     14  O   UNL     1       2.079   9.850  22.347  0.00  0.00    +0.000 OA
ATOM     15  N   UNL     1       0.452   8.921  20.990  0.00  0.00    +0.000 N 
ATOM     16  H   UNL     1      -0.539   8.955  20.797  0.00  0.00    +0.000 HD
BRANCH  13  17
ATOM     17  C   UNL     1      -0.185   9.627  23.212  0.00  0.00    +0.000 C 
BRANCH  17  18
ATOM     18  N   UNL     1      -1.330  10.363  22.668  0.00  0.00    +0.000 NA
ATOM     19  H   UNL     1      -2.190   9.853  22.875  0.00  0.00    +0.000 HD
BRANCH  18  21
ATOM     20  C   UNL     1      -0.527  12.632  22.405  0.00  0.00    +0.000 C 
ATOM     21  C   UNL     1      -1.438  11.717  23.220  0.00  0.00    +0.000 C 
BRANCH  21  22
ATOM     22  C   UNL     1      -2.848  12.231  23.229  0.00  0.00    +0.000 A 
ATOM     23  C   UNL     1      -3.752  12.462  24.246  0.00  0.00    +0.000 A 
ATOM     24  C   UNL     1      -4.969  12.836  23.627  0.00  0.00    +0.000 A 
ATOM     25  C   UNL     1      -4.728  12.831  22.273  0.00  0.00    +0.000 A 
ATOM     26  O   UNL     1      -3.442  12.475  22.019  0.00  0.00    +0.000 OA
ENDBRANCH  21  22
ENDBRANCH  18  21
ENDBRANCH  17  18
ENDBRANCH  13  17
ENDBRANCH   1  15
BRANCH   3  27
ATOM     27  S   UNL     1       3.595   5.658  18.599  0.00  0.00    +0.000 S 
ATOM     28  O   UNL     1       4.095   5.452  19.942  0.00  0.00    +0.000 OA
ATOM     29  O   UNL     1       2.760   4.655  17.961  0.00  0.00    +0.000 OA
BRANCH  27  30
ATOM     30  N   UNL     1       4.913   5.937  17.591  0.00  0.00    +0.000 NA
ATOM     31  C   UNL     1       4.972   5.349  16.233  0.00  0.00    +0.000 C 
ATOM     32  C   UNL     1       5.830   4.086  16.224  0.00  0.00    +0.000 C 
ATOM     33  O   UNL     1       7.143   4.343  16.740  0.00  0.00    +0.000 OA
ATOM     34  C   UNL     1       7.091   4.853  18.084  0.00  0.00    +0.000 C 
ATOM     35  C   UNL     1       6.267   6.144  18.163  0.00  0.00    +0.000 C 
ENDBRANCH  27  30
ENDBRANCH   3  27
TORSDOF 8
ENDMDL
MODEL 9
REMARK VINA RESULT:      -7.5      1.069      1.411
REMARK  Name = 
REMARK  9 active torsions:
REMARK  status: ('A' for Active; 'I' for Inactive)
REMARK    1  A    between atoms: C_1  and  C_2
REMARK    2  A    between atoms: C_2  and  N_3
REMARK    3  A    between atoms: C_2  and  C_29
REMARK    4  A    between atoms: N_3  and  C_4
REMARK    5  A    between atoms: C_4  and  C_5
REMARK    6  A    between atoms: N_7  and  C_8
REMARK    7  A    between atoms: C_10  and  S_11
REMARK    8  A    between atoms: S_11  and  N_14
REMARK    9  A    between atoms: C_22  and  N_23
REMARK                            x       y       z     vdW  Elec       q    Type
REMARK                         _______ _______ _______ _____ _____    ______ ____
ROOT
ATOM      1  C   UNL     1       1.340   9.044  20.162  0.00  0.00    +0.000 A 
ATOM      2  C   UNL     1       1.866   7.769  20.427  0.00  0.00    +0.000 A 
ATOM      3  C   UNL     1       2.299   6.958  19.384  0.00  0.00    +0.000 A 
ATOM      4  C   UNL     1       2.241   7.440  18.081  0.00  0.00    +0.000 A 
ATOM      5  C   UNL     1       1.752   8.738  17.833  0.00  0.00    +0.000 A 
ATOM      6  C   UNL     1       1.298   9.597  18.856  0.00  0.00    +0.000 A 
ENDROOT
BRANCH   6   7
ATOM      7  N   UNL     1       0.761  10.846  18.566  0.00  0.00    +0.000 N 
ATOM      8  C   UNL     1       1.544  12.098  18.548  0.00  0.00    +0.000 C 
ATOM      9  C   UNL     1       0.696  13.225  19.163  0.00  0.00    +0.000 C 
ATOM     10  O   UNL     1      -0.527  13.405  18.430  0.00  0.00    +0.000 OA
ATOM     11  C   UNL     1      -1.295  12.189  18.436  0.00  0.00    +0.000 C 
ATOM     12  C   UNL     1      -0.513  11.005  17.835  0.00  0.00    +0.000 C 
ENDBRANCH   6   7
BRANCH   1  15
ATOM     13  C   UNL     1      -0.294   9.211  21.968  0.00  0.00    +0.000 C 
ATOM     14  O   UNL     1      -0.870   8.161  21.694  0.00  0.00    +0.000 OA
ATOM     15  N   UNL     1       0.769   9.731  21.248  0.00  0.00    +0.000 N 
ATOM     16  H   UNL     1       1.367  10.408  21.700  0.00  0.00    +0.000 HD
BRANCH  13  17
ATOM     17  C   UNL     1      -0.713  10.131  23.115  0.00  0.00    +0.000 C 
BRANCH  17  18
ATOM     18  N   UNL     1      -0.601  11.534  22.704  0.00  0.00    +0.000 NA
ATOM     19  H   UNL     1      -0.665  11.594  21.687  0.00  0.00    +0.000 HD
BRANCH  18  21
ATOM     20  C   UNL     1      -1.049  13.756  23.553  0.00  0.00    +0.000 C 
ATOM     21  C   UNL     1      -1.646  12.375  23.294  0.00  0.00    +0.000 C 
BRANCH  21  22
ATOM     22  C   UNL     1      -2.871  12.472  22.432  0.00  0.00    +0.000 A 
ATOM     23  C   UNL     1      -3.052  12.756  21.094  0.00  0.00    +0.000 A 
ATOM     24  C   UNL     1      -4.450  12.819  20.881  0.00  0.00    +0.000 A 
ATOM     25  C   UNL     1      -5.036  12.548  22.095  0.00  0.00    +0.000 A 
ATOM     26  O   UNL     1      -4.088  12.325  23.042  0.00  0.00    +0.000 OA
ENDBRANCH  21  22
ENDBRANCH  18  21
ENDBRANCH  17  18
ENDBRANCH  13  17
ENDBRANCH   1  15
BRANCH   3  27
ATOM     27  S   UNL     1       3.099   5.415  19.767  0.00  0.00    +0.000 S 
ATOM     28  O   UNL     1       4.525   5.659  19.723  0.00  0.00    +0.000 OA
ATOM     29  O   UNL     1       2.473   4.915  20.978  0.00  0.00    +0.000 OA
BRANCH  27  30
ATOM     30  N   UNL     1       2.714   4.353  18.520  0.00  0.00    +0.000 NA
ATOM     31  C   UNL     1       1.350   3.791  18.392  0.00  0.00    +0.000 C 
ATOM     32  C   UNL     1       1.283   2.383  18.980  0.00  0.00    +0.000 C 
ATOM     33  O   UNL     1       2.263   1.522  18.384  0.00  0.00    +0.000 OA
ATOM     34  C   UNL     1       3.595   2.033  18.565  0.00  0.00    +0.000 C 
ATOM     35  C   UNL     1       3.743   3.438  17.967  0.00  0.00    +0.000 C 
ENDBRANCH  27  30
ENDBRANCH   3  27
TORSDOF 8
ENDMDL
