MODEL 1
REMARK VINA RESULT:      -9.4      0.000      0.000
REMARK  Name = 
REMARK  8 active torsions:
REMARK  status: ('A' for Active; 'I' for Inactive)
REMARK    1  A    between atoms: C_1  and  C_2
REMARK    2  A    between atoms: C_4  and  C_5
REMARK    3  A    between atoms: C_11  and  C_12
REMARK    4  A    between atoms: N_14  and  C_15
REMARK    5  A    between atoms: C_19  and  C_20
REMARK    6  A    between atoms: C_19  and  O_22
REMARK    7  A    between atoms: C_20  and  O_21
REMARK    8  A    between atoms: O_22  and  C_23
REMARK                            x       y       z     vdW  Elec       q    Type
REMARK                         _______ _______ _______ _____ _____    ______ ____
ROOT
ATOM      1  C   UNL     1       1.805   8.945  18.737  0.00  0.00    +0.000 C 
ATOM      2  O   UNL     1       2.012   9.322  17.592  0.00  0.00    +0.000 OA
ATOM      3  N   UNL     1       1.277   9.760  19.711  0.00  0.00    +0.000 N 
ATOM      4  H   UNL     1       1.127   9.377  20.641  0.00  0.00    +0.000 HD
ENDROOT
BRANCH   1  11
ATOM      5  C   UNL     1       4.507   4.651  18.157  0.00  0.00    +0.000 A 
ATOM      6  N   UNL     1       4.425   3.489  18.830  0.00  0.00    +0.000 NA
ATOM      7  N   UNL     1       3.499   3.713  19.774  0.00  0.00    +0.000 N 
ATOM      8  C   UNL     1       2.956   4.967  19.746  0.00  0.00    +0.000 A 
ATOM      9  C   UNL     1       1.979   5.571  20.545  0.00  0.00    +0.000 A 
ATOM     10  C   UNL     1       1.607   6.884  20.219  0.00  0.00    +0.000 A 
ATOM     11  C   UNL     1       2.192   7.560  19.145  0.00  0.00    +0.000 A 
ATOM     12  C   UNL     1       3.176   6.923  18.367  0.00  0.00    +0.000 A 
ATOM     13  C   UNL     1       3.575   5.607  18.680  0.00  0.00    +0.000 A 
ATOM     14  H   UNL     1       3.271   2.955  20.406  0.00  0.00    +0.000 HD
BRANCH   5  18
ATOM     15  C   UNL     1       5.912   3.747  13.436  0.00  0.00    +0.000 C 
ATOM     16  C   UNL     1       6.134   4.378  14.777  0.00  0.00    +0.000 A 
ATOM     17  C   UNL     1       5.202   4.222  15.798  0.00  0.00    +0.000 A 
ATOM     18  C   UNL     1       5.449   4.804  17.045  0.00  0.00    +0.000 A 
ATOM     19  C   UNL     1       6.614   5.556  17.208  0.00  0.00    +0.000 A 
ATOM     20  C   UNL     1       7.481   5.669  16.137  0.00  0.00    +0.000 A 
ATOM     21  N   UNL     1       7.272   5.093  14.934  0.00  0.00    +0.000 NA
ENDBRANCH   5  18
ENDBRANCH   1  11
BRANCH   3  22
ATOM     22  C   UNL     1       0.921  11.153  19.477  0.00  0.00    +0.000 C 
ATOM     23  C   UNL     1      -0.346  11.339  18.648  0.00  0.00    +0.000 C 
ATOM     24  C   UNL     1      -1.648  11.163  19.431  0.00  0.00    +0.000 C 
ATOM     25  C   UNL     1      -1.661  11.818  20.826  0.00  0.00    +0.000 C 
ATOM     26  C   UNL     1      -0.393  11.555  21.701  0.00  0.00    +0.000 C 
ATOM     27  C   UNL     1       0.805  11.921  20.779  0.00  0.00    +0.000 C 
BRANCH  26  28
ATOM     28  C   UNL     1      -0.564  10.126  22.323  0.00  0.00    +0.000 C 
BRANCH  28  29
ATOM     29  O   UNL     1       0.226   9.855  23.469  0.00  0.00    +0.000 OA
ATOM     30  H   UNL     1       1.046  10.365  23.383  0.00  0.00    +0.000 HD
ENDBRANCH  28  29
ENDBRANCH  26  28
BRANCH  26  31
ATOM     31  O   UNL     1      -0.408  12.513  22.802  0.00  0.00    +0.000 OA
BRANCH  31  32
ATOM     32  C   UNL     1      -1.590  13.128  23.151  0.00  0.00    +0.000 A 
ATOM     33  C   UNL     1      -1.917  14.477  22.954  0.00  0.00    +0.000 A 
ATOM     34  C   UNL     1      -3.119  15.027  23.387  0.00  0.00    +0.000 A 
ATOM     35  C   UNL     1      -4.045  14.208  24.018  0.00  0.00    +0.000 A 
ATOM     36  C   UNL     1      -3.748  12.864  24.194  0.00  0.00    +0.000 A 
ATOM     37  F   UNL     1      -4.661  12.076  24.792  0.00  0.00    +0.000 F 
ATOM     38  C   UNL     1      -2.538  12.314  23.773  0.00  0.00    +0.000 A 
ENDBRANCH  31  32
ENDBRANCH  26  31
ENDBRANCH   3  22
TORSDOF 7
ENDMDL
MODEL 2
REMARK VINA RESULT:      -9.4      0.814      1.130
REMARK  Name = 
REMARK  8 active torsions:
REMARK  status: ('A' for Active; 'I' for Inactive)
REMARK    1  A    between atoms: C_1  and  C_2
REMARK    2  A    between atoms: C_4  and  C_5
REMARK    3  A    between atoms: C_11  and  C_12
REMARK    4  A    between atoms: N_14  and  C_15
REMARK    5  A    between atoms: C_19  and  C_20
REMARK    6  A    between atoms: C_19  and  O_22
REMARK    7  A    between atoms: C_20  and  O_21
REMARK    8  A    between atoms: O_22  and  C_23
REMARK                            x       y       z     vdW  Elec       q    Type
REMARK                         _______ _______ _______ _____ _____    ______ ____
ROOT
ATOM      1  C   UNL     1       1.861   8.814  18.608  0.00  0.00    +0.000 C 
ATOM      2  O   UNL     1       2.010   9.183  17.451  0.00  0.00    +0.000 OA
ATOM      3  N   UNL     1       1.385   9.636  19.603  0.00  0.00    +0.000 N 
ATOM      4  H   UNL     1       1.282   9.258  20.541  0.00  0.00    +0.000 HD
ENDROOT
BRANCH   1  11
ATOM      5  C   UNL     1       4.590   4.545  17.970  0.00  0.00    +0.000 A 
ATOM      6  N   UNL     1       4.527   3.380  18.639  0.00  0.00    +0.000 NA
ATOM      7  N   UNL     1       3.614   3.592  19.597  0.00  0.00    +0.000 N 
ATOM      8  C   UNL     1       3.060   4.841  19.583  0.00  0.00    +0.000 A 
ATOM      9  C   UNL     1       2.091   5.434  20.399  0.00  0.00    +0.000 A 
ATOM     10  C   UNL     1       1.702   6.746  20.084  0.00  0.00    +0.000 A 
ATOM     11  C   UNL     1       2.266   7.431  19.004  0.00  0.00    +0.000 A 
ATOM     12  C   UNL     1       3.243   6.805  18.209  0.00  0.00    +0.000 A 
ATOM     13  C   UNL     1       3.658   5.491  18.511  0.00  0.00    +0.000 A 
ATOM     14  H   UNL     1       3.402   2.829  20.230  0.00  0.00    +0.000 HD
BRANCH   5  18
ATOM     15  C   UNL     1       5.938   3.659  13.228  0.00  0.00    +0.000 C 
ATOM     16  C   UNL     1       6.172   4.293  14.567  0.00  0.00    +0.000 A 
ATOM     17  C   UNL     1       5.256   4.125  15.601  0.00  0.00    +0.000 A 
ATOM     18  C   UNL     1       5.513   4.711  16.844  0.00  0.00    +0.000 A 
ATOM     19  C   UNL     1       6.670   5.478  16.990  0.00  0.00    +0.000 A 
ATOM     20  C   UNL     1       7.521   5.602  15.907  0.00  0.00    +0.000 A 
ATOM     21  N   UNL     1       7.302   5.023  14.707  0.00  0.00    +0.000 NA
ENDBRANCH   5  18
ENDBRANCH   1  11
BRANCH   3  22
ATOM     22  C   UNL     1       1.020  11.028  19.379  0.00  0.00    +0.000 C 
ATOM     23  C   UNL     1      -0.263  11.212  18.574  0.00  0.00    +0.000 C 
ATOM     24  C   UNL     1      -1.550  11.030  19.382  0.00  0.00    +0.000 C 
ATOM     25  C   UNL     1      -1.537  11.683  20.779  0.00  0.00    +0.000 C 
ATOM     26  C   UNL     1      -0.251  11.421  21.628  0.00  0.00    +0.000 C 
ATOM     27  C   UNL     1       0.927  11.793  20.684  0.00  0.00    +0.000 C 
BRANCH  26  28
ATOM     28  C   UNL     1      -0.406   9.992  22.251  0.00  0.00    +0.000 C 
BRANCH  28  29
ATOM     29  O   UNL     1       0.192   9.806  23.524  0.00  0.00    +0.000 OA
ATOM     30  H   UNL     1       1.152   9.872  23.405  0.00  0.00    +0.000 HD
ENDBRANCH  28  29
ENDBRANCH  26  28
BRANCH  26  31
ATOM     31  O   UNL     1      -0.247  12.378  22.731  0.00  0.00    +0.000 OA
BRANCH  31  32
ATOM     32  C   UNL     1      -1.443  12.853  23.223  0.00  0.00    +0.000 A 
ATOM     33  C   UNL     1      -2.580  12.092  23.528  0.00  0.00    +0.000 A 
ATOM     34  C   UNL     1      -3.767  12.665  23.973  0.00  0.00    +0.000 A 
ATOM     35  C   UNL     1      -3.827  14.041  24.147  0.00  0.00    +0.000 A 
ATOM     36  C   UNL     1      -2.699  14.805  23.878  0.00  0.00    +0.000 A 
ATOM     37  F   UNL     1      -2.764  16.135  24.067  0.00  0.00    +0.000 F 
ATOM     38  C   UNL     1      -1.513  14.233  23.418  0.00  0.00    +0.000 A 
ENDBRANCH  31  32
ENDBRANCH  26  31
ENDBRANCH   3  22
TORSDOF 7
ENDMDL
MODEL 3
REMARK VINA RESULT:      -8.8      2.346      2.844
REMARK  Name = 
REMARK  8 active torsions:
REMARK  status: ('A' for Active; 'I' for Inactive)
REMARK    1  A    between atoms: C_1  and  C_2
REMARK    2  A    between atoms: C_4  and  C_5
REMARK    3  A    between atoms: C_11  and  C_12
REMARK    4  A    between atoms: N_14  and  C_15
REMARK    5  A    between atoms: C_19  and  C_20
REMARK    6  A    between atoms: C_19  and  O_22
REMARK    7  A    between atoms: C_20  and  O_21
REMARK    8  A    between atoms: O_22  and  C_23
REMARK                            x       y       z     vdW  Elec       q    Type
REMARK                         _______ _______ _______ _____ _____    ______ ____
ROOT
ATOM      1  C   UNL     1       1.830   8.852  18.466  0.00  0.00    +0.000 C 
ATOM      2  O   UNL     1       2.282   9.166  17.374  0.00  0.00    +0.000 OA
ATOM      3  N   UNL     1       1.069   9.701  19.236  0.00  0.00    +0.000 N 
ATOM      4  H   UNL     1       0.722   9.370  20.132  0.00  0.00    +0.000 HD
ENDROOT
BRANCH   1  11
ATOM      5  C   UNL     1       4.414   4.448  18.509  0.00  0.00    +0.000 A 
ATOM      6  N   UNL     1       4.263   3.374  19.304  0.00  0.00    +0.000 NA
ATOM      7  N   UNL     1       3.304   3.730  20.171  0.00  0.00    +0.000 N 
ATOM      8  C   UNL     1       2.803   4.986  19.975  0.00  0.00    +0.000 A 
ATOM      9  C   UNL     1       1.812   5.705  20.652  0.00  0.00    +0.000 A 
ATOM     10  C   UNL     1       1.498   6.981  20.160  0.00  0.00    +0.000 A 
ATOM     11  C   UNL     1       2.153   7.513  19.047  0.00  0.00    +0.000 A 
ATOM     12  C   UNL     1       3.149   6.764  18.395  0.00  0.00    +0.000 A 
ATOM     13  C   UNL     1       3.491   5.483  18.874  0.00  0.00    +0.000 A 
ATOM     14  H   UNL     1       3.023   3.055  20.874  0.00  0.00    +0.000 HD
BRANCH   5  18
ATOM     15  C   UNL     1       5.671   3.922  13.690  0.00  0.00    +0.000 C 
ATOM     16  C   UNL     1       6.025   4.197  15.120  0.00  0.00    +0.000 A 
ATOM     17  C   UNL     1       5.044   4.208  16.105  0.00  0.00    +0.000 A 
ATOM     18  C   UNL     1       5.409   4.446  17.433  0.00  0.00    +0.000 A 
ATOM     19  C   UNL     1       6.752   4.701  17.717  0.00  0.00    +0.000 A 
ATOM     20  C   UNL     1       7.661   4.682  16.676  0.00  0.00    +0.000 A 
ATOM     21  N   UNL     1       7.331   4.429  15.391  0.00  0.00    +0.000 NA
ENDBRANCH   5  18
ENDBRANCH   1  11
BRANCH   3  22
ATOM     22  C   UNL     1       0.736  11.060  18.831  0.00  0.00    +0.000 C 
ATOM     23  C   UNL     1      -0.665  11.208  18.247  0.00  0.00    +0.000 C 
ATOM     24  C   UNL     1      -1.783  11.271  19.289  0.00  0.00    +0.000 C 
ATOM     25  C   UNL     1      -1.475  12.148  20.520  0.00  0.00    +0.000 C 
ATOM     26  C   UNL     1      -0.066  11.932  21.160  0.00  0.00    +0.000 C 
ATOM     27  C   UNL     1       0.929  12.041  19.970  0.00  0.00    +0.000 C 
BRANCH  26  28
ATOM     28  C   UNL     1      -0.169  10.646  22.050  0.00  0.00    +0.000 C 
BRANCH  28  29
ATOM     29  O   UNL     1      -0.471  10.866  23.418  0.00  0.00    +0.000 OA
ATOM     30  H   UNL     1      -1.316  10.430  23.603  0.00  0.00    +0.000 HD
ENDBRANCH  28  29
ENDBRANCH  26  28
BRANCH  26  31
ATOM     31  O   UNL     1       0.192  13.058  22.052  0.00  0.00    +0.000 OA
BRANCH  31  32
ATOM     32  C   UNL     1       0.573  14.271  21.523  0.00  0.00    +0.000 A 
ATOM     33  C   UNL     1      -0.243  15.165  20.816  0.00  0.00    +0.000 A 
ATOM     34  C   UNL     1       0.242  16.350  20.270  0.00  0.00    +0.000 A 
ATOM     35  C   UNL     1       1.579  16.676  20.450  0.00  0.00    +0.000 A 
ATOM     36  C   UNL     1       2.393  15.816  21.174  0.00  0.00    +0.000 A 
ATOM     37  F   UNL     1       3.682  16.151  21.357  0.00  0.00    +0.000 F 
ATOM     38  C   UNL     1       1.911  14.621  21.710  0.00  0.00    +0.000 A 
ENDBRANCH  31  32
ENDBRANCH  26  31
ENDBRANCH   3  22
TORSDOF 7
ENDMDL
MODEL 4
REMARK VINA RESULT:      -8.8      0.967      1.252
REMARK  Name = 
REMARK  8 active torsions:
REMARK  status: ('A' for Active; 'I' for Inactive)
REMARK    1  A    between atoms: C_1  and  C_2
REMARK    2  A    between atoms: C_4  and  C_5
REMARK    3  A    between atoms: C_11  and  C_12
REMARK    4  A    between atoms: N_14  and  C_15
REMARK    5  A    between atoms: C_19  and  C_20
REMARK    6  A    between atoms: C_19  and  O_22
REMARK    7  A    between atoms: C_20  and  O_21
REMARK    8  A    between atoms: O_22  and  C_23
REMARK                            x       y       z     vdW  Elec       q    Type
REMARK                         _______ _______ _______ _____ _____    ______ ____
ROOT
ATOM      1  C   UNL     1       1.902   8.800  18.766  0.00  0.00    +0.000 C 
ATOM      2  O   UNL     1       2.234   9.192  17.656  0.00  0.00    +0.000 OA
ATOM      3  N   UNL     1       1.295   9.610  19.697  0.00  0.00    +0.000 N 
ATOM      4  H   UNL     1       1.041   9.214  20.598  0.00  0.00    +0.000 HD
ENDROOT
BRANCH   1  11
ATOM      5  C   UNL     1       4.407   4.380  18.245  0.00  0.00    +0.000 A 
ATOM      6  N   UNL     1       4.255   3.226  18.918  0.00  0.00    +0.000 NA
ATOM      7  N   UNL     1       3.323   3.495  19.843  0.00  0.00    +0.000 N 
ATOM      8  C   UNL     1       2.841   4.773  19.803  0.00  0.00    +0.000 A 
ATOM      9  C   UNL     1       1.879   5.425  20.582  0.00  0.00    +0.000 A 
ATOM     10  C   UNL     1       1.576   6.754  20.246  0.00  0.00    +0.000 A 
ATOM     11  C   UNL     1       2.214   7.399  19.183  0.00  0.00    +0.000 A 
ATOM     12  C   UNL     1       3.182   6.714  18.426  0.00  0.00    +0.000 A 
ATOM     13  C   UNL     1       3.511   5.381  18.749  0.00  0.00    +0.000 A 
ATOM     14  H   UNL     1       3.046   2.750  20.472  0.00  0.00    +0.000 HD
BRANCH   5  18
ATOM     15  C   UNL     1       5.672   3.839  13.430  0.00  0.00    +0.000 C 
ATOM     16  C   UNL     1       5.996   4.232  14.840  0.00  0.00    +0.000 A 
ATOM     17  C   UNL     1       5.037   4.134  15.842  0.00  0.00    +0.000 A 
ATOM     18  C   UNL     1       5.376   4.486  17.152  0.00  0.00    +0.000 A 
ATOM     19  C   UNL     1       6.666   4.960  17.399  0.00  0.00    +0.000 A 
ATOM     20  C   UNL     1       7.554   5.036  16.342  0.00  0.00    +0.000 A 
ATOM     21  N   UNL     1       7.252   4.677  15.076  0.00  0.00    +0.000 NA
ENDBRANCH   5  18
ENDBRANCH   1  11
BRANCH   3  22
ATOM     22  C   UNL     1       0.995  11.015  19.456  0.00  0.00    +0.000 C 
ATOM     23  C   UNL     1      -0.286  11.250  18.663  0.00  0.00    +0.000 C 
ATOM     24  C   UNL     1      -1.571  11.143  19.486  0.00  0.00    +0.000 C 
ATOM     25  C   UNL     1      -1.511  11.814  20.873  0.00  0.00    +0.000 C 
ATOM     26  C   UNL     1      -0.230  11.502  21.713  0.00  0.00    +0.000 C 
ATOM     27  C   UNL     1       0.954  11.802  20.751  0.00  0.00    +0.000 C 
BRANCH  26  28
ATOM     28  C   UNL     1      -0.448  10.090  22.358  0.00  0.00    +0.000 C 
BRANCH  28  29
ATOM     29  O   UNL     1      -1.282  10.059  23.505  0.00  0.00    +0.000 OA
ATOM     30  H   UNL     1      -1.755  10.904  23.542  0.00  0.00    +0.000 HD
ENDBRANCH  28  29
ENDBRANCH  26  28
BRANCH  26  31
ATOM     31  O   UNL     1      -0.168  12.472  22.802  0.00  0.00    +0.000 OA
BRANCH  31  32
ATOM     32  C   UNL     1      -0.717  13.724  22.629  0.00  0.00    +0.000 A 
ATOM     33  C   UNL     1      -0.209  14.752  21.822  0.00  0.00    +0.000 A 
ATOM     34  C   UNL     1      -0.803  16.008  21.748  0.00  0.00    +0.000 A 
ATOM     35  C   UNL     1      -1.958  16.251  22.479  0.00  0.00    +0.000 A 
ATOM     36  C   UNL     1      -2.490  15.233  23.258  0.00  0.00    +0.000 A 
ATOM     37  F   UNL     1      -3.619  15.474  23.948  0.00  0.00    +0.000 F 
ATOM     38  C   UNL     1      -1.887  13.978  23.345  0.00  0.00    +0.000 A 
ENDBRANCH  31  32
ENDBRANCH  26  31
ENDBRANCH   3  22
TORSDOF 7
ENDMDL
MODEL 5
REMARK VINA RESULT:      -8.7      3.805     10.928
REMARK  Name = 
REMARK  8 active torsions:
REMARK  status: ('A' for Active; 'I' for Inactive)
REMARK    1  A    between atoms: C_1  and  C_2
REMARK    2  A    between atoms: C_4  and  C_5
REMARK    3  A    between atoms: C_11  and  C_12
REMARK    4  A    between atoms: N_14  and  C_15
REMARK    5  A    between atoms: C_19  and  C_20
REMARK    6  A    between atoms: C_19  and  O_22
REMARK    7  A    between atoms: C_20  and  O_21
REMARK    8  A    between atoms: O_22  and  C_23
REMARK                            x       y       z     vdW  Elec       q    Type
REMARK                         _______ _______ _______ _____ _____    ______ ____
ROOT
ATOM      1  C   UNL     1       1.328   7.732  20.760  0.00  0.00    +0.000 C 
ATOM      2  O   UNL     1       1.148   7.706  21.970  0.00  0.00    +0.000 OA
ATOM      3  N   UNL     1       1.811   6.658  20.050  0.00  0.00    +0.000 N 
ATOM      4  H   UNL     1       1.931   6.751  19.045  0.00  0.00    +0.000 HD
ENDROOT
BRANCH   1  11
ATOM      5  C   UNL     1      -1.229  12.070  19.908  0.00  0.00    +0.000 A 
ATOM      6  N   UNL     1      -1.103  12.955  18.904  0.00  0.00    +0.000 NA
ATOM      7  N   UNL     1      -0.078  12.492  18.174  0.00  0.00    +0.000 N 
ATOM      8  C   UNL     1       0.470  11.331  18.643  0.00  0.00    +0.000 A 
ATOM      9  C   UNL     1       1.528  10.548  18.169  0.00  0.00    +0.000 A 
ATOM     10  C   UNL     1       1.816   9.367  18.871  0.00  0.00    +0.000 A 
ATOM     11  C   UNL     1       1.081   8.995  20.000  0.00  0.00    +0.000 A 
ATOM     12  C   UNL     1       0.029   9.811  20.452  0.00  0.00    +0.000 A 
ATOM     13  C   UNL     1      -0.276  11.007  19.769  0.00  0.00    +0.000 A 
ATOM     14  H   UNL     1       0.193  13.014  17.349  0.00  0.00    +0.000 HD
BRANCH   5  18
ATOM     15  C   UNL     1      -5.908  13.163  21.320  0.00  0.00    +0.000 C 
ATOM     16  C   UNL     1      -4.494  12.778  21.636  0.00  0.00    +0.000 A 
ATOM     17  C   UNL     1      -3.565  12.592  20.617  0.00  0.00    +0.000 A 
ATOM     18  C   UNL     1      -2.248  12.256  20.945  0.00  0.00    +0.000 A 
ATOM     19  C   UNL     1      -1.922  12.083  22.291  0.00  0.00    +0.000 A 
ATOM     20  C   UNL     1      -2.910  12.277  23.239  0.00  0.00    +0.000 A 
ATOM     21  N   UNL     1      -4.180  12.627  22.943  0.00  0.00    +0.000 NA
ENDBRANCH   5  18
ENDBRANCH   1  11
BRANCH   3  22
ATOM     22  C   UNL     1       2.164   5.388  20.669  0.00  0.00    +0.000 C 
ATOM     23  C   UNL     1       1.091   4.312  20.534  0.00  0.00    +0.000 C 
ATOM     24  C   UNL     1       1.062   3.612  19.174  0.00  0.00    +0.000 C 
ATOM     25  C   UNL     1       2.446   3.252  18.599  0.00  0.00    +0.000 C 
ATOM     26  C   UNL     1       3.517   4.388  18.668  0.00  0.00    +0.000 C 
ATOM     27  C   UNL     1       3.489   4.867  20.148  0.00  0.00    +0.000 C 
BRANCH  26  28
ATOM     28  C   UNL     1       3.224   5.356  17.471  0.00  0.00    +0.000 C 
BRANCH  28  29
ATOM     29  O   UNL     1       3.448   6.734  17.723  0.00  0.00    +0.000 OA
ATOM     30  H   UNL     1       4.349   6.822  18.068  0.00  0.00    +0.000 HD
ENDBRANCH  28  29
ENDBRANCH  26  28
BRANCH  26  31
ATOM     31  O   UNL     1       4.822   3.782  18.428  0.00  0.00    +0.000 OA
BRANCH  31  32
ATOM     32  C   UNL     1       5.608   4.245  17.396  0.00  0.00    +0.000 A 
ATOM     33  C   UNL     1       6.557   5.274  17.469  0.00  0.00    +0.000 A 
ATOM     34  C   UNL     1       7.271   5.714  16.359  0.00  0.00    +0.000 A 
ATOM     35  C   UNL     1       7.058   5.097  15.134  0.00  0.00    +0.000 A 
ATOM     36  C   UNL     1       6.144   4.056  15.052  0.00  0.00    +0.000 A 
ATOM     37  F   UNL     1       5.959   3.454  13.864  0.00  0.00    +0.000 F 
ATOM     38  C   UNL     1       5.417   3.624  16.161  0.00  0.00    +0.000 A 
ENDBRANCH  31  32
ENDBRANCH  26  31
ENDBRANCH   3  22
TORSDOF 7
ENDMDL
MODEL 6
REMARK VINA RESULT:      -8.7      3.566     10.851
REMARK  Name = 
REMARK  8 active torsions:
REMARK  status: ('A' for Active; 'I' for Inactive)
REMARK    1  A    between atoms: C_1  and  C_2
REMARK    2  A    between atoms: C_4  and  C_5
REMARK    3  A    between atoms: C_11  and  C_12
REMARK    4  A    between atoms: N_14  and  C_15
REMARK    5  A    between atoms: C_19  and  C_20
REMARK    6  A    between atoms: C_19  and  O_22
REMARK    7  A    between atoms: C_20  and  O_21
REMARK    8  A    between atoms: O_22  and  C_23
REMARK                            x       y       z     vdW  Elec       q    Type
REMARK                         _______ _______ _______ _____ _____    ______ ____
ROOT
ATOM      1  C   UNL     1       1.328   7.738  20.786  0.00  0.00    +0.000 C 
ATOM      2  O   UNL     1       1.034   7.671  21.971  0.00  0.00    +0.000 OA
ATOM      3  N   UNL     1       1.946   6.715  20.106  0.00  0.00    +0.000 N 
ATOM      4  H   UNL     1       2.155   6.839  19.119  0.00  0.00    +0.000 HD
ENDROOT
BRANCH   1  11
ATOM      5  C   UNL     1      -1.240  12.074  19.957  0.00  0.00    +0.000 A 
ATOM      6  N   UNL     1      -1.122  12.961  18.953  0.00  0.00    +0.000 NA
ATOM      7  N   UNL     1      -0.103  12.499  18.215  0.00  0.00    +0.000 N 
ATOM      8  C   UNL     1       0.450  11.338  18.678  0.00  0.00    +0.000 A 
ATOM      9  C   UNL     1       1.505  10.557  18.196  0.00  0.00    +0.000 A 
ATOM     10  C   UNL     1       1.800   9.376  18.895  0.00  0.00    +0.000 A 
ATOM     11  C   UNL     1       1.074   9.002  20.028  0.00  0.00    +0.000 A 
ATOM     12  C   UNL     1       0.024   9.816  20.489  0.00  0.00    +0.000 A 
ATOM     13  C   UNL     1      -0.287  11.012  19.810  0.00  0.00    +0.000 A 
ATOM     14  H   UNL     1       0.162  13.022  17.388  0.00  0.00    +0.000 HD
BRANCH   5  18
ATOM     15  C   UNL     1      -5.916  13.134  21.402  0.00  0.00    +0.000 C 
ATOM     16  C   UNL     1      -4.496  12.765  21.708  0.00  0.00    +0.000 A 
ATOM     17  C   UNL     1      -3.574  12.580  20.683  0.00  0.00    +0.000 A 
ATOM     18  C   UNL     1      -2.251  12.258  21.001  0.00  0.00    +0.000 A 
ATOM     19  C   UNL     1      -1.912  12.098  22.345  0.00  0.00    +0.000 A 
ATOM     20  C   UNL     1      -2.893  12.289  23.301  0.00  0.00    +0.000 A 
ATOM     21  N   UNL     1      -4.169  12.625  23.014  0.00  0.00    +0.000 NA
ENDBRANCH   5  18
ENDBRANCH   1  11
BRANCH   3  22
ATOM     22  C   UNL     1       2.319   5.454  20.733  0.00  0.00    +0.000 C 
ATOM     23  C   UNL     1       1.207   4.409  20.737  0.00  0.00    +0.000 C 
ATOM     24  C   UNL     1       1.029   3.668  19.410  0.00  0.00    +0.000 C 
ATOM     25  C   UNL     1       2.342   3.245  18.721  0.00  0.00    +0.000 C 
ATOM     26  C   UNL     1       3.446   4.349  18.651  0.00  0.00    +0.000 C 
ATOM     27  C   UNL     1       3.573   4.874  20.109  0.00  0.00    +0.000 C 
BRANCH  26  28
ATOM     28  C   UNL     1       3.070   5.286  17.453  0.00  0.00    +0.000 C 
BRANCH  28  29
ATOM     29  O   UNL     1       3.308   6.670  17.655  0.00  0.00    +0.000 OA
ATOM     30  H   UNL     1       3.844   6.757  18.458  0.00  0.00    +0.000 HD
ENDBRANCH  28  29
ENDBRANCH  26  28
BRANCH  26  31
ATOM     31  O   UNL     1       4.706   3.693  18.310  0.00  0.00    +0.000 OA
BRANCH  31  32
ATOM     32  C   UNL     1       5.476   4.192  17.283  0.00  0.00    +0.000 A 
ATOM     33  C   UNL     1       5.535   3.701  15.972  0.00  0.00    +0.000 A 
ATOM     34  C   UNL     1       6.384   4.238  15.009  0.00  0.00    +0.000 A 
ATOM     35  C   UNL     1       7.189   5.317  15.347  0.00  0.00    +0.000 A 
ATOM     36  C   UNL     1       7.119   5.834  16.634  0.00  0.00    +0.000 A 
ATOM     37  F   UNL     1       7.890   6.891  16.945  0.00  0.00    +0.000 F 
ATOM     38  C   UNL     1       6.279   5.288  17.604  0.00  0.00    +0.000 A 
ENDBRANCH  31  32
ENDBRANCH  26  31
ENDBRANCH   3  22
TORSDOF 7
ENDMDL
MODEL 7
REMARK VINA RESULT:      -8.6      2.890      3.924
REMARK  Name = 
REMARK  8 active torsions:
REMARK  status: ('A' for Active; 'I' for Inactive)
REMARK    1  A    between atoms: C_1  and  C_2
REMARK    2  A    between atoms: C_4  and  C_5
REMARK    3  A    between atoms: C_11  and  C_12
REMARK    4  A    between atoms: N_14  and  C_15
REMARK    5  A    between atoms: C_19  and  C_20
REMARK    6  A    between atoms: C_19  and  O_22
REMARK    7  A    between atoms: C_20  and  O_21
REMARK    8  A    between atoms: O_22  and  C_23
REMARK                            x       y       z     vdW  Elec       q    Type
REMARK                         _______ _______ _______ _____ _____    ______ ____
ROOT
ATOM      1  C   UNL     1       1.323   9.855  18.290  0.00  0.00    +0.000 C 
ATOM      2  O   UNL     1       2.112  10.412  17.539  0.00  0.00    +0.000 OA
ATOM      3  N   UNL     1       0.084  10.370  18.593  0.00  0.00    +0.000 N 
ATOM      4  H   UNL     1      -0.522   9.848  19.221  0.00  0.00    +0.000 HD
ENDROOT
BRANCH   1  11
ATOM      5  C   UNL     1       4.158   5.626  18.683  0.00  0.00    +0.000 A 
ATOM      6  N   UNL     1       4.064   4.610  19.559  0.00  0.00    +0.000 NA
ATOM      7  N   UNL     1       3.079   4.975  20.392  0.00  0.00    +0.000 N 
ATOM      8  C   UNL     1       2.508   6.181  20.098  0.00  0.00    +0.000 A 
ATOM      9  C   UNL     1       1.471   6.890  20.713  0.00  0.00    +0.000 A 
ATOM     10  C   UNL     1       1.087   8.105  20.123  0.00  0.00    +0.000 A 
ATOM     11  C   UNL     1       1.718   8.586  18.974  0.00  0.00    +0.000 A 
ATOM     12  C   UNL     1       2.762   7.849  18.385  0.00  0.00    +0.000 A 
ATOM     13  C   UNL     1       3.174   6.630  18.964  0.00  0.00    +0.000 A 
ATOM     14  H   UNL     1       2.832   4.342  21.144  0.00  0.00    +0.000 HD
BRANCH   5  18
ATOM     15  C   UNL     1       5.726   4.127  14.169  0.00  0.00    +0.000 C 
ATOM     16  C   UNL     1       5.924   4.887  15.446  0.00  0.00    +0.000 A 
ATOM     17  C   UNL     1       4.936   4.900  16.425  0.00  0.00    +0.000 A 
ATOM     18  C   UNL     1       5.160   5.600  17.614  0.00  0.00    +0.000 A 
ATOM     19  C   UNL     1       6.362   6.294  17.760  0.00  0.00    +0.000 A 
ATOM     20  C   UNL     1       7.286   6.237  16.732  0.00  0.00    +0.000 A 
ATOM     21  N   UNL     1       7.098   5.546  15.588  0.00  0.00    +0.000 NA
ENDBRANCH   5  18
ENDBRANCH   1  11
BRANCH   3  22
ATOM     22  C   UNL     1      -0.406  11.633  18.059  0.00  0.00    +0.000 C 
ATOM     23  C   UNL     1      -1.925  11.774  18.093  0.00  0.00    +0.000 C 
ATOM     24  C   UNL     1      -2.496  12.159  19.459  0.00  0.00    +0.000 C 
ATOM     25  C   UNL     1      -1.706  13.250  20.209  0.00  0.00    +0.000 C 
ATOM     26  C   UNL     1      -0.156  13.054  20.238  0.00  0.00    +0.000 C 
ATOM     27  C   UNL     1       0.239  12.816  18.753  0.00  0.00    +0.000 C 
BRANCH  26  28
ATOM     28  C   UNL     1       0.144  12.005  21.363  0.00  0.00    +0.000 C 
BRANCH  28  29
ATOM     29  O   UNL     1       1.432  11.412  21.324  0.00  0.00    +0.000 OA
ATOM     30  H   UNL     1       1.999  11.986  20.788  0.00  0.00    +0.000 HD
ENDBRANCH  28  29
ENDBRANCH  26  28
BRANCH  26  31
ATOM     31  O   UNL     1       0.442  14.319  20.653  0.00  0.00    +0.000 OA
BRANCH  31  32
ATOM     32  C   UNL     1       1.519  14.823  19.958  0.00  0.00    +0.000 A 
ATOM     33  C   UNL     1       2.858  14.430  20.096  0.00  0.00    +0.000 A 
ATOM     34  C   UNL     1       3.892  15.032  19.386  0.00  0.00    +0.000 A 
ATOM     35  C   UNL     1       3.590  16.045  18.486  0.00  0.00    +0.000 A 
ATOM     36  C   UNL     1       2.266  16.424  18.316  0.00  0.00    +0.000 A 
ATOM     37  F   UNL     1       1.984  17.394  17.428  0.00  0.00    +0.000 F 
ATOM     38  C   UNL     1       1.230  15.831  19.037  0.00  0.00    +0.000 A 
ENDBRANCH  31  32
ENDBRANCH  26  31
ENDBRANCH   3  22
TORSDOF 7
ENDMDL
MODEL 8
REMARK VINA RESULT:      -8.6      2.908      3.502
REMARK  Name = 
REMARK  8 active torsions:
REMARK  status: ('A' for Active; 'I' for Inactive)
REMARK    1  A    between atoms: C_1  and  C_2
REMARK    2  A    between atoms: C_4  and  C_5
REMARK    3  A    between atoms: C_11  and  C_12
REMARK    4  A    between atoms: N_14  and  C_15
REMARK    5  A    between atoms: C_19  and  C_20
REMARK    6  A    between atoms: C_19  and  O_22
REMARK    7  A    between atoms: C_20  and  O_21
REMARK    8  A    between atoms: O_22  and  C_23
REMARK                            x       y       z     vdW  Elec       q    Type
REMARK                         _______ _______ _______ _____ _____    ______ ____
ROOT
ATOM      1  C   UNL     1       1.347   9.785  18.239  0.00  0.00    +0.000 C 
ATOM      2  O   UNL     1       2.098  10.302  17.423  0.00  0.00    +0.000 OA
ATOM      3  N   UNL     1       0.139  10.334  18.600  0.00  0.00    +0.000 N 
ATOM      4  H   UNL     1      -0.437   9.845  19.280  0.00  0.00    +0.000 HD
ENDROOT
BRANCH   1  11
ATOM      5  C   UNL     1       4.223   5.587  18.671  0.00  0.00    +0.000 A 
ATOM      6  N   UNL     1       4.146   4.584  19.564  0.00  0.00    +0.000 NA
ATOM      7  N   UNL     1       3.166   4.954  20.401  0.00  0.00    +0.000 N 
ATOM      8  C   UNL     1       2.582   6.150  20.093  0.00  0.00    +0.000 A 
ATOM      9  C   UNL     1       1.546   6.861  20.708  0.00  0.00    +0.000 A 
ATOM     10  C   UNL     1       1.145   8.062  20.102  0.00  0.00    +0.000 A 
ATOM     11  C   UNL     1       1.760   8.530  18.939  0.00  0.00    +0.000 A 
ATOM     12  C   UNL     1       2.804   7.793  18.352  0.00  0.00    +0.000 A 
ATOM     13  C   UNL     1       3.232   6.587  18.946  0.00  0.00    +0.000 A 
ATOM     14  H   UNL     1       2.933   4.331  21.166  0.00  0.00    +0.000 HD
BRANCH   5  18
ATOM     15  C   UNL     1       5.738   4.067  14.146  0.00  0.00    +0.000 C 
ATOM     16  C   UNL     1       5.953   4.829  15.419  0.00  0.00    +0.000 A 
ATOM     17  C   UNL     1       4.974   4.851  16.407  0.00  0.00    +0.000 A 
ATOM     18  C   UNL     1       5.214   5.552  17.592  0.00  0.00    +0.000 A 
ATOM     19  C   UNL     1       6.422   6.239  17.725  0.00  0.00    +0.000 A 
ATOM     20  C   UNL     1       7.335   6.174  16.688  0.00  0.00    +0.000 A 
ATOM     21  N   UNL     1       7.131   5.481  15.548  0.00  0.00    +0.000 NA
ENDBRANCH   5  18
ENDBRANCH   1  11
BRANCH   3  22
ATOM     22  C   UNL     1      -0.360  11.589  18.055  0.00  0.00    +0.000 C 
ATOM     23  C   UNL     1      -1.874  11.627  17.867  0.00  0.00    +0.000 C 
ATOM     24  C   UNL     1      -2.665  11.897  19.148  0.00  0.00    +0.000 C 
ATOM     25  C   UNL     1      -2.076  12.995  20.056  0.00  0.00    +0.000 C 
ATOM     26  C   UNL     1      -0.537  12.902  20.308  0.00  0.00    +0.000 C 
ATOM     27  C   UNL     1       0.088  12.772  18.890  0.00  0.00    +0.000 C 
BRANCH  26  28
ATOM     28  C   UNL     1      -0.328  11.815  21.417  0.00  0.00    +0.000 C 
BRANCH  28  29
ATOM     29  O   UNL     1       0.970  11.245  21.485  0.00  0.00    +0.000 OA
ATOM     30  H   UNL     1       1.226  11.001  20.583  0.00  0.00    +0.000 HD
ENDBRANCH  28  29
ENDBRANCH  26  28
BRANCH  26  31
ATOM     31  O   UNL     1      -0.101  14.179  20.864  0.00  0.00    +0.000 OA
BRANCH  31  32
ATOM     32  C   UNL     1       0.132  15.244  20.021  0.00  0.00    +0.000 A 
ATOM     33  C   UNL     1      -0.834  15.978  19.320  0.00  0.00    +0.000 A 
ATOM     34  C   UNL     1      -0.502  17.009  18.446  0.00  0.00    +0.000 A 
ATOM     35  C   UNL     1       0.835  17.344  18.278  0.00  0.00    +0.000 A 
ATOM     36  C   UNL     1       1.801  16.646  18.989  0.00  0.00    +0.000 A 
ATOM     37  F   UNL     1       3.091  16.991  18.830  0.00  0.00    +0.000 F 
ATOM     38  C   UNL     1       1.470  15.603  19.854  0.00  0.00    +0.000 A 
ENDBRANCH  31  32
ENDBRANCH  26  31
ENDBRANCH   3  22
TORSDOF 7
ENDMDL
MODEL 9
REMARK VINA RESULT:      -8.5      2.362      3.353
REMARK  Name = 
REMARK  8 active torsions:
REMARK  status: ('A' for Active; 'I' for Inactive)
REMARK    1  A    between atoms: C_1  and  C_2
REMARK    2  A    between atoms: C_4  and  C_5
REMARK    3  A    between atoms: C_11  and  C_12
REMARK    4  A    between atoms: N_14  and  C_15
REMARK    5  A    between atoms: C_19  and  C_20
REMARK    6  A    between atoms: C_19  and  O_22
REMARK    7  A    between atoms: C_20  and  O_21
REMARK    8  A    between atoms: O_22  and  C_23
REMARK                            x       y       z     vdW  Elec       q    Type
REMARK                         _______ _______ _______ _____ _____    ______ ____
ROOT
ATOM      1  C   UNL     1       1.830   9.072  18.319  0.00  0.00    +0.000 C 
ATOM      2  O   UNL     1       2.511   9.625  17.466  0.00  0.00    +0.000 OA
ATOM      3  N   UNL     1       0.723   9.655  18.890  0.00  0.00    +0.000 N 
ATOM      4  H   UNL     1       0.201   9.133  19.589  0.00  0.00    +0.000 HD
ENDROOT
BRANCH   1  11
ATOM      5  C   UNL     1       4.544   4.755  18.043  0.00  0.00    +0.000 A 
ATOM      6  N   UNL     1       4.476   3.650  18.806  0.00  0.00    +0.000 NA
ATOM      7  N   UNL     1       3.562   3.944  19.742  0.00  0.00    +0.000 N 
ATOM      8  C   UNL     1       3.013   5.190  19.623  0.00  0.00    +0.000 A 
ATOM      9  C   UNL     1       2.044   5.852  20.385  0.00  0.00    +0.000 A 
ATOM     10  C   UNL     1       1.661   7.134  19.961  0.00  0.00    +0.000 A 
ATOM     11  C   UNL     1       2.229   7.725  18.829  0.00  0.00    +0.000 A 
ATOM     12  C   UNL     1       3.205   7.032  18.091  0.00  0.00    +0.000 A 
ATOM     13  C   UNL     1       3.615   5.746  18.501  0.00  0.00    +0.000 A 
ATOM     14  H   UNL     1       3.346   3.237  20.436  0.00  0.00    +0.000 HD
BRANCH   5  18
ATOM     15  C   UNL     1       5.803   3.634  13.326  0.00  0.00    +0.000 C 
ATOM     16  C   UNL     1       6.086   4.292  14.643  0.00  0.00    +0.000 A 
ATOM     17  C   UNL     1       5.167   4.218  15.686  0.00  0.00    +0.000 A 
ATOM     18  C   UNL     1       5.470   4.824  16.909  0.00  0.00    +0.000 A 
ATOM     19  C   UNL     1       6.677   5.515  17.027  0.00  0.00    +0.000 A 
ATOM     20  C   UNL     1       7.527   5.549  15.937  0.00  0.00    +0.000 A 
ATOM     21  N   UNL     1       7.263   4.949  14.757  0.00  0.00    +0.000 NA
ENDBRANCH   5  18
ENDBRANCH   1  11
BRANCH   3  22
ATOM     22  C   UNL     1       0.259  10.992  18.544  0.00  0.00    +0.000 C 
ATOM     23  C   UNL     1      -1.259  11.129  18.497  0.00  0.00    +0.000 C 
ATOM     24  C   UNL     1      -1.925  11.280  19.866  0.00  0.00    +0.000 C 
ATOM     25  C   UNL     1      -1.197  12.227  20.842  0.00  0.00    +0.000 C 
ATOM     26  C   UNL     1       0.349  12.024  20.943  0.00  0.00    +0.000 C 
ATOM     27  C   UNL     1       0.846  12.039  19.470  0.00  0.00    +0.000 C 
BRANCH  26  28
ATOM     28  C   UNL     1       0.581  10.800  21.893  0.00  0.00    +0.000 C 
BRANCH  28  29
ATOM     29  O   UNL     1      -0.245  10.749  23.045  0.00  0.00    +0.000 OA
ATOM     30  H   UNL     1      -0.462   9.818  23.205  0.00  0.00    +0.000 HD
ENDBRANCH  28  29
ENDBRANCH  26  28
BRANCH  26  31
ATOM     31  O   UNL     1       0.907  13.200  21.605  0.00  0.00    +0.000 OA
BRANCH  31  32
ATOM     32  C   UNL     1       1.750  14.037  20.908  0.00  0.00    +0.000 A 
ATOM     33  C   UNL     1       3.151  14.001  20.914  0.00  0.00    +0.000 A 
ATOM     34  C   UNL     1       3.927  14.922  20.218  0.00  0.00    +0.000 A 
ATOM     35  C   UNL     1       3.294  15.903  19.466  0.00  0.00    +0.000 A 
ATOM     36  C   UNL     1       1.907  15.933  19.426  0.00  0.00    +0.000 A 
ATOM     37  F   UNL     1       1.306  16.877  18.680  0.00  0.00    +0.000 F 
ATOM     38  C   UNL     1       1.128  15.018  20.135  0.00  0.00    +0.000 A 
ENDBRANCH  31  32
ENDBRANCH  26  31
ENDBRANCH   3  22
TORSDOF 7
ENDMDL
