MODEL 1
REMARK VINA RESULT:      -7.7      0.000      0.000
REMARK  Name = 
REMARK  7 active torsions:
REMARK  status: ('A' for Active; 'I' for Inactive)
REMARK    1  A    between atoms: C_1  and  O_2
REMARK    2  A    between atoms: O_2  and  C_3
REMARK    3  A    between atoms: C_7  and  C_8
REMARK    4  A    between atoms: C_8  and  C_9
REMARK    5  A    between atoms: C_8  and  N_12
REMARK    6  A    between atoms: C_9  and  O_11
REMARK    7  A    between atoms: C_15  and  C_16
REMARK                            x       y       z     vdW  Elec       q    Type
REMARK                         _______ _______ _______ _____ _____    ______ ____
ROOT
ATOM      1  C   UNL     1       6.298   4.852  16.220  0.00  0.00    +0.000 C 
ENDROOT
BRANCH   1   6
ATOM      2  C   UNL     1       5.977   3.557  12.613  0.00  0.00    +0.000 A 
ATOM      3  C   UNL     1       7.060   4.204  12.016  0.00  0.00    +0.000 A 
ATOM      4  C   UNL     1       7.846   5.089  12.744  0.00  0.00    +0.000 A 
ATOM      5  C   UNL     1       7.572   5.305  14.094  0.00  0.00    +0.000 A 
ATOM      6  C   UNL     1       6.494   4.655  14.726  0.00  0.00    +0.000 A 
ATOM      7  C   UNL     1       5.671   3.820  13.951  0.00  0.00    +0.000 A 
BRANCH   2   9
ATOM      8  C   UNL     1       4.088   3.106  11.230  0.00  0.00    +0.000 C 
ATOM      9  O   UNL     1       5.321   2.682  11.791  0.00  0.00    +0.000 OA
ENDBRANCH   2   9
ENDBRANCH   1   6
BRANCH   1  10
ATOM     10  N   UNL     1       4.924   4.637  16.777  0.00  0.00    +0.000 NA
ATOM     11  C   UNL     1       4.591   5.512  17.901  0.00  0.00    +0.000 C 
ATOM     12  C   UNL     1       4.780   4.694  19.163  0.00  0.00    +0.000 C 
ATOM     13  C   UNL     1       4.506   3.246  18.747  0.00  0.00    +0.000 C 
ATOM     14  C   UNL     1       4.597   3.268  17.212  0.00  0.00    +0.000 C 
BRANCH  13  15
ATOM     15  C   UNL     1       3.168   2.668  19.299  0.00  0.00    +0.000 C 
ATOM     16  C   UNL     1       2.023   2.814  18.274  0.00  0.00    +0.000 C 
ATOM     17  C   UNL     1       0.665   2.464  18.868  0.00  0.00    +0.000 C 
ATOM     18  O   UNL     1       0.409   3.254  20.024  0.00  0.00    +0.000 OA
ATOM     19  C   UNL     1       1.346   2.981  21.060  0.00  0.00    +0.000 C 
ATOM     20  C   UNL     1       2.760   3.351  20.623  0.00  0.00    +0.000 C 
ENDBRANCH  13  15
ENDBRANCH   1  10
BRANCH   1  21
ATOM     21  C   UNL     1       6.878   6.165  16.797  0.00  0.00    +0.000 C 
ATOM     22  O   UNL     1       6.564   7.301  16.491  0.00  0.00    +0.000 OA
BRANCH  21  23
ATOM     23  O   UNL     1       7.879   5.904  17.691  0.00  0.00    +0.000 OA
ATOM     24  H   UNL     1       8.566   5.376  17.220  0.00  0.00    +0.000 HD
ENDBRANCH  21  23
ENDBRANCH   1  21
TORSDOF 6
ENDMDL
MODEL 2
REMARK VINA RESULT:      -7.7      3.502      5.259
REMARK  Name = 
REMARK  7 active torsions:
REMARK  status: ('A' for Active; 'I' for Inactive)
REMARK    1  A    between atoms: C_1  and  O_2
REMARK    2  A    between atoms: O_2  and  C_3
REMARK    3  A    between atoms: C_7  and  C_8
REMARK    4  A    between atoms: C_8  and  C_9
REMARK    5  A    between atoms: C_8  and  N_12
REMARK    6  A    between atoms: C_9  and  O_11
REMARK    7  A    between atoms: C_15  and  C_16
REMARK                            x       y       z     vdW  Elec       q    Type
REMARK                         _______ _______ _______ _____ _____    ______ ____
ROOT
ATOM      1  C   UNL     1       3.850   3.540  18.900  0.00  0.00    +0.000 C 
ENDROOT
BRANCH   1   6
ATOM      2  C   UNL     1       6.855   4.818  16.867  0.00  0.00    +0.000 A 
ATOM      3  C   UNL     1       7.537   5.537  17.850  0.00  0.00    +0.000 A 
ATOM      4  C   UNL     1       7.011   5.660  19.130  0.00  0.00    +0.000 A 
ATOM      5  C   UNL     1       5.808   5.029  19.447  0.00  0.00    +0.000 A 
ATOM      6  C   UNL     1       5.106   4.286  18.478  0.00  0.00    +0.000 A 
ATOM      7  C   UNL     1       5.622   4.235  17.172  0.00  0.00    +0.000 A 
BRANCH   2   9
ATOM      8  C   UNL     1       6.722   4.602  14.496  0.00  0.00    +0.000 C 
ATOM      9  O   UNL     1       7.510   4.742  15.669  0.00  0.00    +0.000 OA
ENDBRANCH   2   9
ENDBRANCH   1   6
BRANCH   1  10
ATOM     10  N   UNL     1       2.602   4.342  19.112  0.00  0.00    +0.000 NA
ATOM     11  C   UNL     1       2.001   4.848  17.877  0.00  0.00    +0.000 C 
ATOM     12  C   UNL     1       2.416   6.300  17.753  0.00  0.00    +0.000 C 
ATOM     13  C   UNL     1       2.608   6.788  19.192  0.00  0.00    +0.000 C 
ATOM     14  C   UNL     1       2.708   5.496  20.021  0.00  0.00    +0.000 C 
BRANCH  13  15
ATOM     15  C   UNL     1       1.506   7.776  19.680  0.00  0.00    +0.000 C 
ATOM     16  C   UNL     1       1.588   9.126  18.937  0.00  0.00    +0.000 C 
ATOM     17  C   UNL     1       0.673  10.180  19.546  0.00  0.00    +0.000 C 
ATOM     18  O   UNL     1       0.961  10.350  20.930  0.00  0.00    +0.000 OA
ATOM     19  C   UNL     1       0.698   9.161  21.667  0.00  0.00    +0.000 C 
ATOM     20  C   UNL     1       1.601   8.023  21.201  0.00  0.00    +0.000 C 
ENDBRANCH  13  15
ENDBRANCH   1  10
BRANCH   1  21
ATOM     21  C   UNL     1       4.028   2.558  20.081  0.00  0.00    +0.000 C 
ATOM     22  O   UNL     1       3.342   2.489  21.085  0.00  0.00    +0.000 OA
BRANCH  21  23
ATOM     23  O   UNL     1       5.132   1.773  19.900  0.00  0.00    +0.000 OA
ATOM     24  H   UNL     1       5.680   2.191  19.196  0.00  0.00    +0.000 HD
ENDBRANCH  21  23
ENDBRANCH   1  21
TORSDOF 6
ENDMDL
MODEL 3
REMARK VINA RESULT:      -7.5      3.461      4.743
REMARK  Name = 
REMARK  7 active torsions:
REMARK  status: ('A' for Active; 'I' for Inactive)
REMARK    1  A    between atoms: C_1  and  O_2
REMARK    2  A    between atoms: O_2  and  C_3
REMARK    3  A    between atoms: C_7  and  C_8
REMARK    4  A    between atoms: C_8  and  C_9
REMARK    5  A    between atoms: C_8  and  N_12
REMARK    6  A    between atoms: C_9  and  O_11
REMARK    7  A    between atoms: C_15  and  C_16
REMARK                            x       y       z     vdW  Elec       q    Type
REMARK                         _______ _______ _______ _____ _____    ______ ____
ROOT
ATOM      1  C   UNL     1       4.098   3.800  18.651  0.00  0.00    +0.000 C 
ENDROOT
BRANCH   1   6
ATOM      2  C   UNL     1       5.553   4.275  15.122  0.00  0.00    +0.000 A 
ATOM      3  C   UNL     1       6.883   4.559  15.435  0.00  0.00    +0.000 A 
ATOM      4  C   UNL     1       7.294   4.657  16.759  0.00  0.00    +0.000 A 
ATOM      5  C   UNL     1       6.378   4.433  17.785  0.00  0.00    +0.000 A 
ATOM      6  C   UNL     1       5.033   4.129  17.498  0.00  0.00    +0.000 A 
ATOM      7  C   UNL     1       4.625   4.106  16.154  0.00  0.00    +0.000 A 
BRANCH   2   9
ATOM      8  C   UNL     1       6.288   3.538  12.977  0.00  0.00    +0.000 C 
ATOM      9  O   UNL     1       5.301   4.164  13.783  0.00  0.00    +0.000 OA
ENDBRANCH   2   9
ENDBRANCH   1   6
BRANCH   1  10
ATOM     10  N   UNL     1       3.842   4.870  19.668  0.00  0.00    +0.000 NA
ATOM     11  C   UNL     1       2.733   4.577  20.577  0.00  0.00    +0.000 C 
ATOM     12  C   UNL     1       1.535   5.354  20.068  0.00  0.00    +0.000 C 
ATOM     13  C   UNL     1       2.121   6.584  19.371  0.00  0.00    +0.000 C 
ATOM     14  C   UNL     1       3.601   6.227  19.150  0.00  0.00    +0.000 C 
BRANCH  13  15
ATOM     15  C   UNL     1       1.895   7.920  20.141  0.00  0.00    +0.000 C 
ATOM     16  C   UNL     1       0.902   7.737  21.309  0.00  0.00    +0.000 C 
ATOM     17  C   UNL     1       0.494   9.064  21.935  0.00  0.00    +0.000 C 
ATOM     18  O   UNL     1      -0.046   9.936  20.948  0.00  0.00    +0.000 OA
ATOM     19  C   UNL     1       0.925  10.275  19.965  0.00  0.00    +0.000 C 
ATOM     20  C   UNL     1       1.382   9.035  19.203  0.00  0.00    +0.000 C 
ENDBRANCH  13  15
ENDBRANCH   1  10
BRANCH   1  21
ATOM     21  C   UNL     1       4.387   2.467  19.379  0.00  0.00    +0.000 C 
ATOM     22  O   UNL     1       5.011   2.319  20.415  0.00  0.00    +0.000 OA
BRANCH  21  23
ATOM     23  O   UNL     1       3.898   1.407  18.669  0.00  0.00    +0.000 OA
ATOM     24  H   UNL     1       3.081   1.710  18.209  0.00  0.00    +0.000 HD
ENDBRANCH  21  23
ENDBRANCH   1  21
TORSDOF 6
ENDMDL
MODEL 4
REMARK VINA RESULT:      -7.4      0.854      1.263
REMARK  Name = 
REMARK  7 active torsions:
REMARK  status: ('A' for Active; 'I' for Inactive)
REMARK    1  A    between atoms: C_1  and  O_2
REMARK    2  A    between atoms: O_2  and  C_3
REMARK    3  A    between atoms: C_7  and  C_8
REMARK    4  A    between atoms: C_8  and  C_9
REMARK    5  A    between atoms: C_8  and  N_12
REMARK    6  A    between atoms: C_9  and  O_11
REMARK    7  A    between atoms: C_15  and  C_16
REMARK                            x       y       z     vdW  Elec       q    Type
REMARK                         _______ _______ _______ _____ _____    ______ ____
ROOT
ATOM      1  C   UNL     1       6.303   4.250  16.042  0.00  0.00    +0.000 C 
ENDROOT
BRANCH   1   6
ATOM      2  C   UNL     1       5.750   3.391  12.335  0.00  0.00    +0.000 A 
ATOM      3  C   UNL     1       6.801   4.100  11.752  0.00  0.00    +0.000 A 
ATOM      4  C   UNL     1       7.639   4.891  12.530  0.00  0.00    +0.000 A 
ATOM      5  C   UNL     1       7.450   4.947  13.910  0.00  0.00    +0.000 A 
ATOM      6  C   UNL     1       6.406   4.230  14.526  0.00  0.00    +0.000 A 
ATOM      7  C   UNL     1       5.529   3.495  13.711  0.00  0.00    +0.000 A 
BRANCH   2   9
ATOM      8  C   UNL     1       3.801   3.139  10.983  0.00  0.00    +0.000 C 
ATOM      9  O   UNL     1       5.036   2.621  11.458  0.00  0.00    +0.000 OA
ENDBRANCH   2   9
ENDBRANCH   1   6
BRANCH   1  10
ATOM     10  N   UNL     1       4.945   4.438  16.646  0.00  0.00    +0.000 NA
ATOM     11  C   UNL     1       4.707   5.782  17.174  0.00  0.00    +0.000 C 
ATOM     12  C   UNL     1       4.907   5.703  18.674  0.00  0.00    +0.000 C 
ATOM     13  C   UNL     1       4.541   4.266  19.054  0.00  0.00    +0.000 C 
ATOM     14  C   UNL     1       4.566   3.502  17.719  0.00  0.00    +0.000 C 
BRANCH  13  15
ATOM     15  C   UNL     1       3.200   4.138  19.837  0.00  0.00    +0.000 C 
ATOM     16  C   UNL     1       3.236   2.958  20.831  0.00  0.00    +0.000 C 
ATOM     17  C   UNL     1       1.871   2.674  21.444  0.00  0.00    +0.000 C 
ATOM     18  O   UNL     1       0.905   2.442  20.424  0.00  0.00    +0.000 OA
ATOM     19  C   UNL     1       0.714   3.598  19.616  0.00  0.00    +0.000 C 
ATOM     20  C   UNL     1       2.000   3.965  18.881  0.00  0.00    +0.000 C 
ENDBRANCH  13  15
ENDBRANCH   1  10
BRANCH   1  21
ATOM     21  C   UNL     1       7.310   5.177  16.763  0.00  0.00    +0.000 C 
ATOM     22  O   UNL     1       7.525   6.352  16.522  0.00  0.00    +0.000 OA
BRANCH  21  23
ATOM     23  O   UNL     1       8.018   4.488  17.707  0.00  0.00    +0.000 OA
ATOM     24  H   UNL     1       7.587   4.654  18.579  0.00  0.00    +0.000 HD
ENDBRANCH  21  23
ENDBRANCH   1  21
TORSDOF 6
ENDMDL
MODEL 5
REMARK VINA RESULT:      -7.4      3.171      5.124
REMARK  Name = 
REMARK  7 active torsions:
REMARK  status: ('A' for Active; 'I' for Inactive)
REMARK    1  A    between atoms: C_1  and  O_2
REMARK    2  A    between atoms: O_2  and  C_3
REMARK    3  A    between atoms: C_7  and  C_8
REMARK    4  A    between atoms: C_8  and  C_9
REMARK    5  A    between atoms: C_8  and  N_12
REMARK    6  A    between atoms: C_9  and  O_11
REMARK    7  A    between atoms: C_15  and  C_16
REMARK                            x       y       z     vdW  Elec       q    Type
REMARK                         _______ _______ _______ _____ _____    ______ ____
ROOT
ATOM      1  C   UNL     1       3.843   3.269  18.322  0.00  0.00    +0.000 C 
ENDROOT
BRANCH   1   6
ATOM      2  C   UNL     1       6.879   5.268  17.066  0.00  0.00    +0.000 A 
ATOM      3  C   UNL     1       6.705   5.150  15.687  0.00  0.00    +0.000 A 
ATOM      4  C   UNL     1       5.664   4.391  15.166  0.00  0.00    +0.000 A 
ATOM      5  C   UNL     1       4.763   3.770  16.030  0.00  0.00    +0.000 A 
ATOM      6  C   UNL     1       4.906   3.885  17.427  0.00  0.00    +0.000 A 
ATOM      7  C   UNL     1       6.007   4.598  17.929  0.00  0.00    +0.000 A 
BRANCH   2   9
ATOM      8  C   UNL     1       7.634   7.460  17.625  0.00  0.00    +0.000 C 
ATOM      9  O   UNL     1       7.916   6.081  17.436  0.00  0.00    +0.000 OA
ENDBRANCH   2   9
ENDBRANCH   1   6
BRANCH   1  10
ATOM     10  N   UNL     1       2.983   4.197  19.124  0.00  0.00    +0.000 NA
ATOM     11  C   UNL     1       1.716   4.544  18.479  0.00  0.00    +0.000 C 
ATOM     12  C   UNL     1       1.901   5.915  17.861  0.00  0.00    +0.000 C 
ATOM     13  C   UNL     1       2.944   6.614  18.739  0.00  0.00    +0.000 C 
ATOM     14  C   UNL     1       3.597   5.472  19.535  0.00  0.00    +0.000 C 
BRANCH  13  15
ATOM     15  C   UNL     1       2.365   7.759  19.623  0.00  0.00    +0.000 C 
ATOM     16  C   UNL     1       1.444   7.207  20.732  0.00  0.00    +0.000 C 
ATOM     17  C   UNL     1       0.693   8.311  21.465  0.00  0.00    +0.000 C 
ATOM     18  O   UNL     1      -0.048   9.106  20.546  0.00  0.00    +0.000 OA
ATOM     19  C   UNL     1       0.810   9.785  19.635  0.00  0.00    +0.000 C 
ATOM     20  C   UNL     1       1.586   8.790  18.777  0.00  0.00    +0.000 C 
ENDBRANCH  13  15
ENDBRANCH   1  10
BRANCH   1  21
ATOM     21  C   UNL     1       4.329   2.116  19.232  0.00  0.00    +0.000 C 
ATOM     22  O   UNL     1       4.819   2.217  20.342  0.00  0.00    +0.000 OA
BRANCH  21  23
ATOM     23  O   UNL     1       4.203   0.910  18.601  0.00  0.00    +0.000 OA
ATOM     24  H   UNL     1       3.867   1.087  17.691  0.00  0.00    +0.000 HD
ENDBRANCH  21  23
ENDBRANCH   1  21
TORSDOF 6
ENDMDL
MODEL 6
REMARK VINA RESULT:      -7.4      3.583      5.367
REMARK  Name = 
REMARK  7 active torsions:
REMARK  status: ('A' for Active; 'I' for Inactive)
REMARK    1  A    between atoms: C_1  and  O_2
REMARK    2  A    between atoms: O_2  and  C_3
REMARK    3  A    between atoms: C_7  and  C_8
REMARK    4  A    between atoms: C_8  and  C_9
REMARK    5  A    between atoms: C_8  and  N_12
REMARK    6  A    between atoms: C_9  and  O_11
REMARK    7  A    between atoms: C_15  and  C_16
REMARK                            x       y       z     vdW  Elec       q    Type
REMARK                         _______ _______ _______ _____ _____    ______ ____
ROOT
ATOM      1  C   UNL     1       3.861   4.207  18.565  0.00  0.00    +0.000 C 
ENDROOT
BRANCH   1   6
ATOM      2  C   UNL     1       6.772   5.763  16.590  0.00  0.00    +0.000 A 
ATOM      3  C   UNL     1       6.620   5.113  15.364  0.00  0.00    +0.000 A 
ATOM      4  C   UNL     1       5.636   4.147  15.192  0.00  0.00    +0.000 A 
ATOM      5  C   UNL     1       4.769   3.849  16.242  0.00  0.00    +0.000 A 
ATOM      6  C   UNL     1       4.890   4.500  17.485  0.00  0.00    +0.000 A 
ATOM      7  C   UNL     1       5.937   5.421  17.658  0.00  0.00    +0.000 A 
BRANCH   2   9
ATOM      8  C   UNL     1       7.638   7.759  17.565  0.00  0.00    +0.000 C 
ATOM      9  O   UNL     1       7.748   6.721  16.603  0.00  0.00    +0.000 OA
ENDBRANCH   2   9
ENDBRANCH   1   6
BRANCH   1  10
ATOM     10  N   UNL     1       3.676   5.227  19.646  0.00  0.00    +0.000 NA
ATOM     11  C   UNL     1       2.751   4.816  20.704  0.00  0.00    +0.000 C 
ATOM     12  C   UNL     1       1.426   5.491  20.411  0.00  0.00    +0.000 C 
ATOM     13  C   UNL     1       1.787   6.784  19.675  0.00  0.00    +0.000 C 
ATOM     14  C   UNL     1       3.239   6.568  19.218  0.00  0.00    +0.000 C 
BRANCH  13  15
ATOM     15  C   UNL     1       1.568   8.077  20.517  0.00  0.00    +0.000 C 
ATOM     16  C   UNL     1       0.456   7.885  21.569  0.00  0.00    +0.000 C 
ATOM     17  C   UNL     1       0.070   9.191  22.250  0.00  0.00    +0.000 C 
ATOM     18  O   UNL     1      -0.315  10.162  21.283  0.00  0.00    +0.000 OA
ATOM     19  C   UNL     1       0.768  10.500  20.424  0.00  0.00    +0.000 C 
ATOM     20  C   UNL     1       1.220   9.285  19.620  0.00  0.00    +0.000 C 
ENDBRANCH  13  15
ENDBRANCH   1  10
BRANCH   1  21
ATOM     21  C   UNL     1       3.953   2.802  19.205  0.00  0.00    +0.000 C 
ATOM     22  O   UNL     1       3.065   1.972  19.281  0.00  0.00    +0.000 OA
BRANCH  21  23
ATOM     23  O   UNL     1       5.184   2.601  19.765  0.00  0.00    +0.000 OA
ATOM     24  H   UNL     1       5.644   1.914  19.229  0.00  0.00    +0.000 HD
ENDBRANCH  21  23
ENDBRANCH   1  21
TORSDOF 6
ENDMDL
MODEL 7
REMARK VINA RESULT:      -7.4      2.012      4.592
REMARK  Name = 
REMARK  7 active torsions:
REMARK  status: ('A' for Active; 'I' for Inactive)
REMARK    1  A    between atoms: C_1  and  O_2
REMARK    2  A    between atoms: O_2  and  C_3
REMARK    3  A    between atoms: C_7  and  C_8
REMARK    4  A    between atoms: C_8  and  C_9
REMARK    5  A    between atoms: C_8  and  N_12
REMARK    6  A    between atoms: C_9  and  O_11
REMARK    7  A    between atoms: C_15  and  C_16
REMARK                            x       y       z     vdW  Elec       q    Type
REMARK                         _______ _______ _______ _____ _____    ______ ____
ROOT
ATOM      1  C   UNL     1       5.828   5.815  16.114  0.00  0.00    +0.000 C 
ENDROOT
BRANCH   1   6
ATOM      2  C   UNL     1       7.979   8.369  18.023  0.00  0.00    +0.000 A 
ATOM      3  C   UNL     1       8.561   7.540  18.983  0.00  0.00    +0.000 A 
ATOM      4  C   UNL     1       8.224   6.194  19.055  0.00  0.00    +0.000 A 
ATOM      5  C   UNL     1       7.321   5.658  18.137  0.00  0.00    +0.000 A 
ATOM      6  C   UNL     1       6.730   6.468  17.149  0.00  0.00    +0.000 A 
ATOM      7  C   UNL     1       7.032   7.840  17.140  0.00  0.00    +0.000 A 
BRANCH   2   9
ATOM      8  C   UNL     1       9.135  10.093  19.196  0.00  0.00    +0.000 C 
ATOM      9  O   UNL     1       8.437   9.658  18.038  0.00  0.00    +0.000 OA
ENDBRANCH   2   9
ENDBRANCH   1   6
BRANCH   1  10
ATOM     10  N   UNL     1       4.545   5.207  16.593  0.00  0.00    +0.000 NA
ATOM     11  C   UNL     1       3.754   6.085  17.457  0.00  0.00    +0.000 C 
ATOM     12  C   UNL     1       4.014   5.643  18.883  0.00  0.00    +0.000 C 
ATOM     13  C   UNL     1       4.330   4.148  18.789  0.00  0.00    +0.000 C 
ATOM     14  C   UNL     1       4.650   3.920  17.302  0.00  0.00    +0.000 C 
BRANCH  13  15
ATOM     15  C   UNL     1       3.207   3.224  19.349  0.00  0.00    +0.000 C 
ATOM     16  C   UNL     1       2.122   2.945  18.288  0.00  0.00    +0.000 C 
ATOM     17  C   UNL     1       0.909   2.234  18.872  0.00  0.00    +0.000 C 
ATOM     18  O   UNL     1       0.369   2.979  19.958  0.00  0.00    +0.000 OA
ATOM     19  C   UNL     1       1.295   3.074  21.035  0.00  0.00    +0.000 C 
ATOM     20  C   UNL     1       2.548   3.832  20.607  0.00  0.00    +0.000 C 
ENDBRANCH  13  15
ENDBRANCH   1  10
BRANCH   1  21
ATOM     21  C   UNL     1       6.528   4.826  15.154  0.00  0.00    +0.000 C 
ATOM     22  O   UNL     1       6.167   3.697  14.874  0.00  0.00    +0.000 OA
BRANCH  21  23
ATOM     23  O   UNL     1       7.692   5.356  14.672  0.00  0.00    +0.000 OA
ATOM     24  H   UNL     1       8.159   5.782  15.429  0.00  0.00    +0.000 HD
ENDBRANCH  21  23
ENDBRANCH   1  21
TORSDOF 6
ENDMDL
MODEL 8
REMARK VINA RESULT:      -7.3      3.283      4.752
REMARK  Name = 
REMARK  7 active torsions:
REMARK  status: ('A' for Active; 'I' for Inactive)
REMARK    1  A    between atoms: C_1  and  O_2
REMARK    2  A    between atoms: O_2  and  C_3
REMARK    3  A    between atoms: C_7  and  C_8
REMARK    4  A    between atoms: C_8  and  C_9
REMARK    5  A    between atoms: C_8  and  N_12
REMARK    6  A    between atoms: C_9  and  O_11
REMARK    7  A    between atoms: C_15  and  C_16
REMARK                            x       y       z     vdW  Elec       q    Type
REMARK                         _______ _______ _______ _____ _____    ______ ____
ROOT
ATOM      1  C   UNL     1       3.789   3.439  18.319  0.00  0.00    +0.000 C 
ENDROOT
BRANCH   1   6
ATOM      2  C   UNL     1       6.213   4.586  15.562  0.00  0.00    +0.000 A 
ATOM      3  C   UNL     1       7.346   4.869  16.325  0.00  0.00    +0.000 A 
ATOM      4  C   UNL     1       7.316   4.752  17.710  0.00  0.00    +0.000 A 
ATOM      5  C   UNL     1       6.152   4.312  18.340  0.00  0.00    +0.000 A 
ATOM      6  C   UNL     1       4.998   4.005  17.593  0.00  0.00    +0.000 A 
ATOM      7  C   UNL     1       5.032   4.200  16.202  0.00  0.00    +0.000 A 
BRANCH   2   9
ATOM      8  C   UNL     1       5.843   3.692  13.383  0.00  0.00    +0.000 C 
ATOM      9  O   UNL     1       6.400   4.701  14.212  0.00  0.00    +0.000 OA
ENDBRANCH   2   9
ENDBRANCH   1   6
BRANCH   1  10
ATOM     10  N   UNL     1       2.910   4.399  19.061  0.00  0.00    +0.000 NA
ATOM     11  C   UNL     1       1.684   4.760  18.347  0.00  0.00    +0.000 C 
ATOM     12  C   UNL     1       1.929   6.117  17.718  0.00  0.00    +0.000 C 
ATOM     13  C   UNL     1       2.940   6.809  18.635  0.00  0.00    +0.000 C 
ATOM     14  C   UNL     1       3.528   5.668  19.482  0.00  0.00    +0.000 C 
BRANCH  13  15
ATOM     15  C   UNL     1       2.342   7.981  19.471  0.00  0.00    +0.000 C 
ATOM     16  C   UNL     1       1.516   7.459  20.666  0.00  0.00    +0.000 C 
ATOM     17  C   UNL     1       0.741   8.569  21.363  0.00  0.00    +0.000 C 
ATOM     18  O   UNL     1      -0.094   9.253  20.435  0.00  0.00    +0.000 OA
ATOM     19  C   UNL     1       0.671   9.911  19.432  0.00  0.00    +0.000 C 
ATOM     20  C   UNL     1       1.458   8.902  18.602  0.00  0.00    +0.000 C 
ENDBRANCH  13  15
ENDBRANCH   1  10
BRANCH   1  21
ATOM     21  C   UNL     1       4.069   2.211  19.217  0.00  0.00    +0.000 C 
ATOM     22  O   UNL     1       4.268   2.213  20.418  0.00  0.00    +0.000 OA
BRANCH  21  23
ATOM     23  O   UNL     1       4.136   1.068  18.472  0.00  0.00    +0.000 OA
ATOM     24  H   UNL     1       3.247   0.643  18.501  0.00  0.00    +0.000 HD
ENDBRANCH  21  23
ENDBRANCH   1  21
TORSDOF 6
ENDMDL
MODEL 9
REMARK VINA RESULT:      -7.2      3.446      5.549
REMARK  Name = 
REMARK  7 active torsions:
REMARK  status: ('A' for Active; 'I' for Inactive)
REMARK    1  A    between atoms: C_1  and  O_2
REMARK    2  A    between atoms: O_2  and  C_3
REMARK    3  A    between atoms: C_7  and  C_8
REMARK    4  A    between atoms: C_8  and  C_9
REMARK    5  A    between atoms: C_8  and  N_12
REMARK    6  A    between atoms: C_9  and  O_11
REMARK    7  A    between atoms: C_15  and  C_16
REMARK                            x       y       z     vdW  Elec       q    Type
REMARK                         _______ _______ _______ _____ _____    ______ ____
ROOT
ATOM      1  C   UNL     1       3.659   3.380  18.828  0.00  0.00    +0.000 C 
ENDROOT
BRANCH   1   6
ATOM      2  C   UNL     1       6.759   5.551  18.144  0.00  0.00    +0.000 A 
ATOM      3  C   UNL     1       6.922   5.333  16.776  0.00  0.00    +0.000 A 
ATOM      4  C   UNL     1       6.087   4.457  16.093  0.00  0.00    +0.000 A 
ATOM      5  C   UNL     1       5.054   3.815  16.775  0.00  0.00    +0.000 A 
ATOM      6  C   UNL     1       4.857   4.028  18.153  0.00  0.00    +0.000 A 
ATOM      7  C   UNL     1       5.757   4.863  18.836  0.00  0.00    +0.000 A 
BRANCH   2   9
ATOM      8  C   UNL     1       7.867   7.651  17.924  0.00  0.00    +0.000 C 
ATOM      9  O   UNL     1       7.621   6.471  18.675  0.00  0.00    +0.000 OA
ENDBRANCH   2   9
ENDBRANCH   1   6
BRANCH   1  10
ATOM     10  N   UNL     1       2.451   4.232  19.072  0.00  0.00    +0.000 NA
ATOM     11  C   UNL     1       1.880   4.821  17.860  0.00  0.00    +0.000 C 
ATOM     12  C   UNL     1       2.368   6.255  17.801  0.00  0.00    +0.000 C 
ATOM     13  C   UNL     1       2.577   6.669  19.260  0.00  0.00    +0.000 C 
ATOM     14  C   UNL     1       2.610   5.339  20.031  0.00  0.00    +0.000 C 
BRANCH  13  15
ATOM     15  C   UNL     1       1.524   7.688  19.789  0.00  0.00    +0.000 C 
ATOM     16  C   UNL     1       1.575   9.014  19.002  0.00  0.00    +0.000 C 
ATOM     17  C   UNL     1       0.717  10.100  19.638  0.00  0.00    +0.000 C 
ATOM     18  O   UNL     1       1.097  10.305  20.994  0.00  0.00    +0.000 OA
ATOM     19  C   UNL     1       0.866   9.142  21.782  0.00  0.00    +0.000 C 
ATOM     20  C   UNL     1       1.721   7.978  21.293  0.00  0.00    +0.000 C 
ENDBRANCH  13  15
ENDBRANCH   1  10
BRANCH   1  21
ATOM     21  C   UNL     1       3.975   2.571  20.107  0.00  0.00    +0.000 C 
ATOM     22  O   UNL     1       3.340   2.566  21.146  0.00  0.00    +0.000 OA
BRANCH  21  23
ATOM     23  O   UNL     1       5.141   1.872  19.966  0.00  0.00    +0.000 OA
ATOM     24  H   UNL     1       5.683   2.334  19.284  0.00  0.00    +0.000 HD
ENDBRANCH  21  23
ENDBRANCH   1  21
TORSDOF 6
ENDMDL
