MODEL 1
REMARK VINA RESULT:      -7.6      0.000      0.000
REMARK  Name = 
REMARK  4 active torsions:
REMARK  status: ('A' for Active; 'I' for Inactive)
REMARK    1  A    between atoms: N_12  and  N_13
REMARK    2  A    between atoms: N_13  and  C_14
REMARK    3  A    between atoms: C_14  and  N_16
REMARK    4  A    between atoms: N_16  and  C_17
REMARK                            x       y       z     vdW  Elec       q    Type
REMARK                         _______ _______ _______ _____ _____    ______ ____
ROOT
ATOM      1  O   UNL     1       3.224   4.286  20.163  0.00  0.00    +0.000 OA
ATOM      2  C   UNL     1       2.833   5.393  19.842  0.00  0.00    +0.000 C 
ATOM      3  N   UNL     1       2.212   6.364  20.596  0.00  0.00    +0.000 N 
ATOM      4  C   UNL     1       1.979   7.523  19.839  0.00  0.00    +0.000 A 
ATOM      5  C   UNL     1       1.420   8.735  20.195  0.00  0.00    +0.000 A 
ATOM      6  I   UNL     1       0.697   9.102  22.099  0.00  0.00    +0.000 I 
ATOM      7  C   UNL     1       1.354   9.744  19.216  0.00  0.00    +0.000 A 
ATOM      8  C   UNL     1       1.841   9.534  17.910  0.00  0.00    +0.000 A 
ATOM      9  C   UNL     1       2.390   8.309  17.555  0.00  0.00    +0.000 A 
ATOM     10  C   UNL     1       2.432   7.338  18.537  0.00  0.00    +0.000 A 
ATOM     11  C   UNL     1       2.973   5.998  18.450  0.00  0.00    +0.000 C 
ATOM     12  N   UNL     1       3.455   5.534  17.346  0.00  0.00    +0.000 NA
ATOM     13  H   UNL     1       1.983   6.263  21.578  0.00  0.00    +0.000 HD
ENDROOT
BRANCH  12  14
ATOM     14  N   UNL     1       4.030   4.315  17.331  0.00  0.00    +0.000 N 
ATOM     15  H   UNL     1       3.572   3.531  17.798  0.00  0.00    +0.000 HD
BRANCH  14  16
ATOM     16  C   UNL     1       5.308   4.172  16.826  0.00  0.00    +0.000 C 
ATOM     17  S   UNL     1       5.695   3.718  15.260  0.00  0.00    +0.000 S 
BRANCH  16  18
ATOM     18  N   UNL     1       6.327   4.389  17.716  0.00  0.00    +0.000 N 
ATOM     19  H   UNL     1       6.793   3.548  18.041  0.00  0.00    +0.000 HD
BRANCH  18  20
ATOM     20  C   UNL     1       7.002   5.601  17.943  0.00  0.00    +0.000 A 
ATOM     21  C   UNL     1       6.749   6.663  17.075  0.00  0.00    +0.000 A 
ATOM     22  C   UNL     1       7.380   7.893  17.276  0.00  0.00    +0.000 A 
ATOM     23  C   UNL     1       8.224   8.071  18.372  0.00  0.00    +0.000 A 
ATOM     24 CL   UNL     1       8.968   9.597  18.639  0.00  0.00    +0.000 Cl
ATOM     25  C   UNL     1       8.454   7.026  19.262  0.00  0.00    +0.000 A 
ATOM     26  C   UNL     1       7.849   5.789  19.043  0.00  0.00    +0.000 A 
ENDBRANCH  18  20
ENDBRANCH  16  18
ENDBRANCH  14  16
ENDBRANCH  12  14
TORSDOF 4
ENDMDL
MODEL 2
REMARK VINA RESULT:      -7.5      1.509      1.865
REMARK  Name = 
REMARK  4 active torsions:
REMARK  status: ('A' for Active; 'I' for Inactive)
REMARK    1  A    between atoms: N_12  and  N_13
REMARK    2  A    between atoms: N_13  and  C_14
REMARK    3  A    between atoms: C_14  and  N_16
REMARK    4  A    between atoms: N_16  and  C_17
REMARK                            x       y       z     vdW  Elec       q    Type
REMARK                         _______ _______ _______ _____ _____    ______ ____
ROOT
ATOM      1  O   UNL     1       2.010   4.219  21.042  0.00  0.00    +0.000 OA
ATOM      2  C   UNL     1       1.914   5.313  20.515  0.00  0.00    +0.000 C 
ATOM      3  N   UNL     1       1.509   6.517  21.048  0.00  0.00    +0.000 N 
ATOM      4  C   UNL     1       1.601   7.547  20.098  0.00  0.00    +0.000 A 
ATOM      5  C   UNL     1       1.334   8.898  20.207  0.00  0.00    +0.000 A 
ATOM      6  I   UNL     1       0.628   9.749  21.956  0.00  0.00    +0.000 I 
ATOM      7  C   UNL     1       1.562   9.709  19.079  0.00  0.00    +0.000 A 
ATOM      8  C   UNL     1       2.048   9.167  17.871  0.00  0.00    +0.000 A 
ATOM      9  C   UNL     1       2.302   7.806  17.765  0.00  0.00    +0.000 A 
ATOM     10  C   UNL     1       2.059   7.039  18.888  0.00  0.00    +0.000 A 
ATOM     11  C   UNL     1       2.265   5.616  19.063  0.00  0.00    +0.000 C 
ATOM     12  N   UNL     1       2.674   4.868  18.094  0.00  0.00    +0.000 NA
ATOM     13  H   UNL     1       1.214   6.645  22.009  0.00  0.00    +0.000 HD
ENDROOT
BRANCH  12  14
ATOM     14  N   UNL     1       2.939   3.566  18.324  0.00  0.00    +0.000 N 
ATOM     15  H   UNL     1       2.172   2.893  18.378  0.00  0.00    +0.000 HD
BRANCH  14  16
ATOM     16  C   UNL     1       4.225   3.179  18.646  0.00  0.00    +0.000 C 
ATOM     17  S   UNL     1       4.670   2.301  20.003  0.00  0.00    +0.000 S 
BRANCH  16  18
ATOM     18  N   UNL     1       5.205   3.597  17.786  0.00  0.00    +0.000 N 
ATOM     19  H   UNL     1       5.255   3.078  16.915  0.00  0.00    +0.000 HD
BRANCH  18  20
ATOM     20  C   UNL     1       5.882   4.829  17.815  0.00  0.00    +0.000 A 
ATOM     21  C   UNL     1       7.004   4.939  18.636  0.00  0.00    +0.000 A 
ATOM     22  C   UNL     1       7.722   6.137  18.678  0.00  0.00    +0.000 A 
ATOM     23  C   UNL     1       7.343   7.204  17.865  0.00  0.00    +0.000 A 
ATOM     24 CL   UNL     1       8.250   8.664  17.891  0.00  0.00    +0.000 Cl
ATOM     25  C   UNL     1       6.244   7.090  17.018  0.00  0.00    +0.000 A 
ATOM     26  C   UNL     1       5.510   5.904  16.998  0.00  0.00    +0.000 A 
ENDBRANCH  18  20
ENDBRANCH  16  18
ENDBRANCH  14  16
ENDBRANCH  12  14
TORSDOF 4
ENDMDL
MODEL 3
REMARK VINA RESULT:      -7.5      1.475      1.575
REMARK  Name = 
REMARK  4 active torsions:
REMARK  status: ('A' for Active; 'I' for Inactive)
REMARK    1  A    between atoms: N_12  and  N_13
REMARK    2  A    between atoms: N_13  and  C_14
REMARK    3  A    between atoms: C_14  and  N_16
REMARK    4  A    between atoms: N_16  and  C_17
REMARK                            x       y       z     vdW  Elec       q    Type
REMARK                         _______ _______ _______ _____ _____    ______ ____
ROOT
ATOM      1  O   UNL     1       2.026   4.108  20.892  0.00  0.00    +0.000 OA
ATOM      2  C   UNL     1       1.929   5.219  20.405  0.00  0.00    +0.000 C 
ATOM      3  N   UNL     1       1.545   6.408  20.985  0.00  0.00    +0.000 N 
ATOM      4  C   UNL     1       1.627   7.469  20.069  0.00  0.00    +0.000 A 
ATOM      5  C   UNL     1       1.374   8.818  20.229  0.00  0.00    +0.000 A 
ATOM      6  I   UNL     1       0.708   9.615  22.018  0.00  0.00    +0.000 I 
ATOM      7  C   UNL     1       1.587   9.664  19.124  0.00  0.00    +0.000 A 
ATOM      8  C   UNL     1       2.046   9.160  17.889  0.00  0.00    +0.000 A 
ATOM      9  C   UNL     1       2.287   7.801  17.733  0.00  0.00    +0.000 A 
ATOM     10  C   UNL     1       2.059   6.998  18.834  0.00  0.00    +0.000 A 
ATOM     11  C   UNL     1       2.255   5.569  18.957  0.00  0.00    +0.000 C 
ATOM     12  N   UNL     1       2.640   4.850  17.956  0.00  0.00    +0.000 NA
ATOM     13  H   UNL     1       1.269   6.505  21.955  0.00  0.00    +0.000 HD
ENDROOT
BRANCH  12  14
ATOM     14  N   UNL     1       2.898   3.540  18.137  0.00  0.00    +0.000 N 
ATOM     15  H   UNL     1       2.129   2.867  18.147  0.00  0.00    +0.000 HD
BRANCH  14  16
ATOM     16  C   UNL     1       4.177   3.137  18.469  0.00  0.00    +0.000 C 
ATOM     17  S   UNL     1       4.605   2.286  19.848  0.00  0.00    +0.000 S 
BRANCH  16  18
ATOM     18  N   UNL     1       5.165   3.513  17.599  0.00  0.00    +0.000 N 
ATOM     19  H   UNL     1       5.172   3.007  16.719  0.00  0.00    +0.000 HD
BRANCH  18  20
ATOM     20  C   UNL     1       5.910   4.706  17.636  0.00  0.00    +0.000 A 
ATOM     21  C   UNL     1       5.497   5.760  16.822  0.00  0.00    +0.000 A 
ATOM     22  C   UNL     1       6.194   6.971  16.844  0.00  0.00    +0.000 A 
ATOM     23  C   UNL     1       7.270   7.139  17.713  0.00  0.00    +0.000 A 
ATOM     24 CL   UNL     1       8.102   8.642  17.766  0.00  0.00    +0.000 Cl
ATOM     25  C   UNL     1       7.667   6.102  18.554  0.00  0.00    +0.000 A 
ATOM     26  C   UNL     1       6.991   4.883  18.510  0.00  0.00    +0.000 A 
ENDBRANCH  18  20
ENDBRANCH  16  18
ENDBRANCH  14  16
ENDBRANCH  12  14
TORSDOF 4
ENDMDL
MODEL 4
REMARK VINA RESULT:      -7.4      3.561      4.908
REMARK  Name = 
REMARK  4 active torsions:
REMARK  status: ('A' for Active; 'I' for Inactive)
REMARK    1  A    between atoms: N_12  and  N_13
REMARK    2  A    between atoms: N_13  and  C_14
REMARK    3  A    between atoms: C_14  and  N_16
REMARK    4  A    between atoms: N_16  and  C_17
REMARK                            x       y       z     vdW  Elec       q    Type
REMARK                         _______ _______ _______ _____ _____    ______ ____
ROOT
ATOM      1  O   UNL     1       1.638   9.666  18.009  0.00  0.00    +0.000 OA
ATOM      2  C   UNL     1       1.089   9.976  19.050  0.00  0.00    +0.000 C 
ATOM      3  N   UNL     1       0.373  11.108  19.368  0.00  0.00    +0.000 N 
ATOM      4  C   UNL     1      -0.138  11.035  20.674  0.00  0.00    +0.000 A 
ATOM      5  C   UNL     1      -0.930  11.918  21.382  0.00  0.00    +0.000 A 
ATOM      6  I   UNL     1      -1.542  13.732  20.596  0.00  0.00    +0.000 I 
ATOM      7  C   UNL     1      -1.329  11.550  22.682  0.00  0.00    +0.000 A 
ATOM      8  C   UNL     1      -0.938  10.321  23.251  0.00  0.00    +0.000 A 
ATOM      9  C   UNL     1      -0.132   9.444  22.537  0.00  0.00    +0.000 A 
ATOM     10  C   UNL     1       0.248   9.839  21.269  0.00  0.00    +0.000 A 
ATOM     11  C   UNL     1       1.051   9.114  20.306  0.00  0.00    +0.000 C 
ATOM     12  N   UNL     1       1.570   7.965  20.587  0.00  0.00    +0.000 NA
ATOM     13  H   UNL     1       0.211  11.879  18.730  0.00  0.00    +0.000 HD
ENDROOT
BRANCH  12  14
ATOM     14  N   UNL     1       2.234   7.283  19.633  0.00  0.00    +0.000 N 
ATOM     15  H   UNL     1       2.317   7.674  18.693  0.00  0.00    +0.000 HD
BRANCH  14  16
ATOM     16  C   UNL     1       2.655   5.993  19.888  0.00  0.00    +0.000 C 
ATOM     17  S   UNL     1       1.734   4.788  20.602  0.00  0.00    +0.000 S 
BRANCH  16  18
ATOM     18  N   UNL     1       3.954   5.713  19.553  0.00  0.00    +0.000 N 
ATOM     19  H   UNL     1       4.550   5.464  20.335  0.00  0.00    +0.000 HD
BRANCH  18  20
ATOM     20  C   UNL     1       4.444   5.397  18.273  0.00  0.00    +0.000 A 
ATOM     21  C   UNL     1       4.405   4.063  17.870  0.00  0.00    +0.000 A 
ATOM     22  C   UNL     1       4.860   3.707  16.597  0.00  0.00    +0.000 A 
ATOM     23  C   UNL     1       5.306   4.692  15.717  0.00  0.00    +0.000 A 
ATOM     24 CL   UNL     1       5.829   4.256  14.139  0.00  0.00    +0.000 Cl
ATOM     25  C   UNL     1       5.315   6.030  16.101  0.00  0.00    +0.000 A 
ATOM     26  C   UNL     1       4.890   6.382  17.382  0.00  0.00    +0.000 A 
ENDBRANCH  18  20
ENDBRANCH  16  18
ENDBRANCH  14  16
ENDBRANCH  12  14
TORSDOF 4
ENDMDL
MODEL 5
REMARK VINA RESULT:      -7.4      0.387      1.071
REMARK  Name = 
REMARK  4 active torsions:
REMARK  status: ('A' for Active; 'I' for Inactive)
REMARK    1  A    between atoms: N_12  and  N_13
REMARK    2  A    between atoms: N_13  and  C_14
REMARK    3  A    between atoms: C_14  and  N_16
REMARK    4  A    between atoms: N_16  and  C_17
REMARK                            x       y       z     vdW  Elec       q    Type
REMARK                         _______ _______ _______ _____ _____    ______ ____
ROOT
ATOM      1  O   UNL     1       2.944   4.446  20.321  0.00  0.00    +0.000 OA
ATOM      2  C   UNL     1       2.572   5.556  19.988  0.00  0.00    +0.000 C 
ATOM      3  N   UNL     1       1.936   6.532  20.723  0.00  0.00    +0.000 N 
ATOM      4  C   UNL     1       1.736   7.693  19.960  0.00  0.00    +0.000 A 
ATOM      5  C   UNL     1       1.177   8.909  20.299  0.00  0.00    +0.000 A 
ATOM      6  I   UNL     1       0.397   9.283  22.180  0.00  0.00    +0.000 I 
ATOM      7  C   UNL     1       1.150   9.920  19.319  0.00  0.00    +0.000 A 
ATOM      8  C   UNL     1       1.675   9.706  18.028  0.00  0.00    +0.000 A 
ATOM      9  C   UNL     1       2.225   8.477  17.691  0.00  0.00    +0.000 A 
ATOM     10  C   UNL     1       2.228   7.505  18.673  0.00  0.00    +0.000 A 
ATOM     11  C   UNL     1       2.761   6.161  18.602  0.00  0.00    +0.000 C 
ATOM     12  N   UNL     1       3.273   5.693  17.513  0.00  0.00    +0.000 NA
ATOM     13  H   UNL     1       1.675   6.433  21.698  0.00  0.00    +0.000 HD
ENDROOT
BRANCH  12  14
ATOM     14  N   UNL     1       3.839   4.469  17.515  0.00  0.00    +0.000 N 
ATOM     15  H   UNL     1       3.329   3.674  17.906  0.00  0.00    +0.000 HD
BRANCH  14  16
ATOM     16  C   UNL     1       5.161   4.330  17.142  0.00  0.00    +0.000 C 
ATOM     17  S   UNL     1       5.704   3.667  15.701  0.00  0.00    +0.000 S 
BRANCH  16  18
ATOM     18  N   UNL     1       6.087   4.742  18.063  0.00  0.00    +0.000 N 
ATOM     19  H   UNL     1       6.519   3.994  18.595  0.00  0.00    +0.000 HD
BRANCH  18  20
ATOM     20  C   UNL     1       6.736   5.989  18.104  0.00  0.00    +0.000 A 
ATOM     21  C   UNL     1       7.833   6.127  18.953  0.00  0.00    +0.000 A 
ATOM     22  C   UNL     1       8.523   7.342  19.009  0.00  0.00    +0.000 A 
ATOM     23  C   UNL     1       8.142   8.396  18.181  0.00  0.00    +0.000 A 
ATOM     24 CL   UNL     1       9.016   9.876  18.224  0.00  0.00    +0.000 Cl
ATOM     25  C   UNL     1       7.068   8.254  17.306  0.00  0.00    +0.000 A 
ATOM     26  C   UNL     1       6.361   7.053  17.273  0.00  0.00    +0.000 A 
ENDBRANCH  18  20
ENDBRANCH  16  18
ENDBRANCH  14  16
ENDBRANCH  12  14
TORSDOF 4
ENDMDL
MODEL 6
REMARK VINA RESULT:      -7.4      3.230      4.535
REMARK  Name = 
REMARK  4 active torsions:
REMARK  status: ('A' for Active; 'I' for Inactive)
REMARK    1  A    between atoms: N_12  and  N_13
REMARK    2  A    between atoms: N_13  and  C_14
REMARK    3  A    between atoms: C_14  and  N_16
REMARK    4  A    between atoms: N_16  and  C_17
REMARK                            x       y       z     vdW  Elec       q    Type
REMARK                         _______ _______ _______ _____ _____    ______ ____
ROOT
ATOM      1  O   UNL     1       1.821   8.981  18.005  0.00  0.00    +0.000 OA
ATOM      2  C   UNL     1       1.281   9.375  19.022  0.00  0.00    +0.000 C 
ATOM      3  N   UNL     1       0.550  10.521  19.247  0.00  0.00    +0.000 N 
ATOM      4  C   UNL     1       0.057  10.558  20.561  0.00  0.00    +0.000 A 
ATOM      5  C   UNL     1      -0.740  11.489  21.198  0.00  0.00    +0.000 A 
ATOM      6  I   UNL     1      -1.391  13.215  20.261  0.00  0.00    +0.000 I 
ATOM      7  C   UNL     1      -1.117  11.234  22.531  0.00  0.00    +0.000 A 
ATOM      8  C   UNL     1      -0.698  10.066  23.202  0.00  0.00    +0.000 A 
ATOM      9  C   UNL     1       0.113   9.141  22.559  0.00  0.00    +0.000 A 
ATOM     10  C   UNL     1       0.470   9.426  21.255  0.00  0.00    +0.000 A 
ATOM     11  C   UNL     1       1.272   8.629  20.351  0.00  0.00    +0.000 C 
ATOM     12  N   UNL     1       1.813   7.518  20.726  0.00  0.00    +0.000 NA
ATOM     13  H   UNL     1       0.368  11.228  18.544  0.00  0.00    +0.000 HD
ENDROOT
BRANCH  12  14
ATOM     14  N   UNL     1       2.476   6.763  19.828  0.00  0.00    +0.000 N 
ATOM     15  H   UNL     1       2.816   7.185  18.962  0.00  0.00    +0.000 HD
BRANCH  14  16
ATOM     16  C   UNL     1       2.548   5.396  20.009  0.00  0.00    +0.000 C 
ATOM     17  S   UNL     1       1.280   4.406  20.482  0.00  0.00    +0.000 S 
BRANCH  16  18
ATOM     18  N   UNL     1       3.781   4.833  19.817  0.00  0.00    +0.000 N 
ATOM     19  H   UNL     1       4.049   4.147  20.515  0.00  0.00    +0.000 HD
BRANCH  18  20
ATOM     20  C   UNL     1       4.530   4.834  18.627  0.00  0.00    +0.000 A 
ATOM     21  C   UNL     1       5.815   5.375  18.664  0.00  0.00    +0.000 A 
ATOM     22  C   UNL     1       6.604   5.376  17.510  0.00  0.00    +0.000 A 
ATOM     23  C   UNL     1       6.124   4.793  16.338  0.00  0.00    +0.000 A 
ATOM     24 CL   UNL     1       7.111   4.761  14.932  0.00  0.00    +0.000 Cl
ATOM     25  C   UNL     1       4.855   4.221  16.304  0.00  0.00    +0.000 A 
ATOM     26  C   UNL     1       4.056   4.247  17.446  0.00  0.00    +0.000 A 
ENDBRANCH  18  20
ENDBRANCH  16  18
ENDBRANCH  14  16
ENDBRANCH  12  14
TORSDOF 4
ENDMDL
MODEL 7
REMARK VINA RESULT:      -7.2      3.048      4.205
REMARK  Name = 
REMARK  4 active torsions:
REMARK  status: ('A' for Active; 'I' for Inactive)
REMARK    1  A    between atoms: N_12  and  N_13
REMARK    2  A    between atoms: N_13  and  C_14
REMARK    3  A    between atoms: C_14  and  N_16
REMARK    4  A    between atoms: N_16  and  C_17
REMARK                            x       y       z     vdW  Elec       q    Type
REMARK                         _______ _______ _______ _____ _____    ______ ____
ROOT
ATOM      1  O   UNL     1       2.370   8.302  17.722  0.00  0.00    +0.000 OA
ATOM      2  C   UNL     1       1.780   8.812  18.656  0.00  0.00    +0.000 C 
ATOM      3  N   UNL     1       1.077   9.995  18.717  0.00  0.00    +0.000 N 
ATOM      4  C   UNL     1       0.502  10.180  19.984  0.00  0.00    +0.000 A 
ATOM      5  C   UNL     1      -0.301  11.193  20.470  0.00  0.00    +0.000 A 
ATOM      6  I   UNL     1      -0.829  12.833  19.323  0.00  0.00    +0.000 I 
ATOM      7  C   UNL     1      -0.772  11.086  21.793  0.00  0.00    +0.000 A 
ATOM      8  C   UNL     1      -0.439   9.981  22.604  0.00  0.00    +0.000 A 
ATOM      9  C   UNL     1       0.379   8.972  22.112  0.00  0.00    +0.000 A 
ATOM     10  C   UNL     1       0.829   9.113  20.814  0.00  0.00    +0.000 A 
ATOM     11  C   UNL     1       1.659   8.206  20.050  0.00  0.00    +0.000 C 
ATOM     12  N   UNL     1       2.136   7.124  20.570  0.00  0.00    +0.000 NA
ATOM     13  H   UNL     1       0.966  10.632  17.936  0.00  0.00    +0.000 HD
ENDROOT
BRANCH  12  14
ATOM     14  N   UNL     1       2.828   6.263  19.798  0.00  0.00    +0.000 N 
ATOM     15  H   UNL     1       3.414   6.618  19.040  0.00  0.00    +0.000 HD
BRANCH  14  16
ATOM     16  C   UNL     1       2.614   4.905  19.932  0.00  0.00    +0.000 C 
ATOM     17  S   UNL     1       1.196   4.189  20.468  0.00  0.00    +0.000 S 
BRANCH  16  18
ATOM     18  N   UNL     1       3.681   4.101  19.632  0.00  0.00    +0.000 N 
ATOM     19  H   UNL     1       3.676   3.198  20.094  0.00  0.00    +0.000 HD
BRANCH  18  20
ATOM     20  C   UNL     1       4.552   4.233  18.535  0.00  0.00    +0.000 A 
ATOM     21  C   UNL     1       4.042   3.985  17.262  0.00  0.00    +0.000 A 
ATOM     22  C   UNL     1       4.865   4.127  16.141  0.00  0.00    +0.000 A 
ATOM     23  C   UNL     1       6.180   4.562  16.295  0.00  0.00    +0.000 A 
ATOM     24 CL   UNL     1       7.179   4.773  14.913  0.00  0.00    +0.000 Cl
ATOM     25  C   UNL     1       6.686   4.845  17.562  0.00  0.00    +0.000 A 
ATOM     26  C   UNL     1       5.874   4.674  18.682  0.00  0.00    +0.000 A 
ENDBRANCH  18  20
ENDBRANCH  16  18
ENDBRANCH  14  16
ENDBRANCH  12  14
TORSDOF 4
ENDMDL
MODEL 8
REMARK VINA RESULT:      -7.2      3.207      4.215
REMARK  Name = 
REMARK  4 active torsions:
REMARK  status: ('A' for Active; 'I' for Inactive)
REMARK    1  A    between atoms: N_12  and  N_13
REMARK    2  A    between atoms: N_13  and  C_14
REMARK    3  A    between atoms: C_14  and  N_16
REMARK    4  A    between atoms: N_16  and  C_17
REMARK                            x       y       z     vdW  Elec       q    Type
REMARK                         _______ _______ _______ _____ _____    ______ ____
ROOT
ATOM      1  O   UNL     1       1.927   9.277  17.583  0.00  0.00    +0.000 OA
ATOM      2  C   UNL     1       1.412   9.573  18.645  0.00  0.00    +0.000 C 
ATOM      3  N   UNL     1       0.684  10.689  18.994  0.00  0.00    +0.000 N 
ATOM      4  C   UNL     1       0.224  10.602  20.318  0.00  0.00    +0.000 A 
ATOM      5  C   UNL     1      -0.559  11.466  21.058  0.00  0.00    +0.000 A 
ATOM      6  I   UNL     1      -1.239  13.268  20.300  0.00  0.00    +0.000 I 
ATOM      7  C   UNL     1      -0.900  11.088  22.370  0.00  0.00    +0.000 A 
ATOM      8  C   UNL     1      -0.461   9.866  22.921  0.00  0.00    +0.000 A 
ATOM      9  C   UNL     1       0.336   9.008  22.174  0.00  0.00    +0.000 A 
ATOM     10  C   UNL     1       0.659   9.414  20.894  0.00  0.00    +0.000 A 
ATOM     11  C   UNL     1       1.440   8.707  19.900  0.00  0.00    +0.000 C 
ATOM     12  N   UNL     1       1.994   7.570  20.158  0.00  0.00    +0.000 NA
ATOM     13  H   UNL     1       0.481  11.457  18.364  0.00  0.00    +0.000 HD
ENDROOT
BRANCH  12  14
ATOM     14  N   UNL     1       2.636   6.904  19.178  0.00  0.00    +0.000 N 
ATOM     15  H   UNL     1       2.581   7.240  18.215  0.00  0.00    +0.000 HD
BRANCH  14  16
ATOM     16  C   UNL     1       3.226   5.687  19.456  0.00  0.00    +0.000 C 
ATOM     17  S   UNL     1       2.438   4.333  20.052  0.00  0.00    +0.000 S 
BRANCH  16  18
ATOM     18  N   UNL     1       4.579   5.621  19.254  0.00  0.00    +0.000 N 
ATOM     19  H   UNL     1       5.126   5.458  20.093  0.00  0.00    +0.000 HD
BRANCH  18  20
ATOM     20  C   UNL     1       5.238   5.406  18.031  0.00  0.00    +0.000 A 
ATOM     21  C   UNL     1       4.685   5.971  16.882  0.00  0.00    +0.000 A 
ATOM     22  C   UNL     1       5.319   5.803  15.648  0.00  0.00    +0.000 A 
ATOM     23  C   UNL     1       6.527   5.111  15.575  0.00  0.00    +0.000 A 
ATOM     24 CL   UNL     1       7.324   4.938  14.062  0.00  0.00    +0.000 Cl
ATOM     25  C   UNL     1       7.102   4.573  16.724  0.00  0.00    +0.000 A 
ATOM     26  C   UNL     1       6.454   4.714  17.950  0.00  0.00    +0.000 A 
ENDBRANCH  18  20
ENDBRANCH  16  18
ENDBRANCH  14  16
ENDBRANCH  12  14
TORSDOF 4
ENDMDL
MODEL 9
REMARK VINA RESULT:      -7.1      2.628      3.099
REMARK  Name = 
REMARK  4 active torsions:
REMARK  status: ('A' for Active; 'I' for Inactive)
REMARK    1  A    between atoms: N_12  and  N_13
REMARK    2  A    between atoms: N_13  and  C_14
REMARK    3  A    between atoms: C_14  and  N_16
REMARK    4  A    between atoms: N_16  and  C_17
REMARK                            x       y       z     vdW  Elec       q    Type
REMARK                         _______ _______ _______ _____ _____    ______ ____
ROOT
ATOM      1  O   UNL     1       2.428   4.867  20.906  0.00  0.00    +0.000 OA
ATOM      2  C   UNL     1       2.149   5.966  20.466  0.00  0.00    +0.000 C 
ATOM      3  N   UNL     1       1.499   7.020  21.069  0.00  0.00    +0.000 N 
ATOM      4  C   UNL     1       1.433   8.132  20.214  0.00  0.00    +0.000 A 
ATOM      5  C   UNL     1       0.909   9.394  20.416  0.00  0.00    +0.000 A 
ATOM      6  I   UNL     1      -0.021   9.936  22.183  0.00  0.00    +0.000 I 
ATOM      7  C   UNL     1       1.027  10.333  19.373  0.00  0.00    +0.000 A 
ATOM      8  C   UNL     1       1.659  10.003  18.156  0.00  0.00    +0.000 A 
ATOM      9  C   UNL     1       2.173   8.728  17.956  0.00  0.00    +0.000 A 
ATOM     10  C   UNL     1       2.032   7.830  18.996  0.00  0.00    +0.000 A 
ATOM     11  C   UNL     1       2.498   6.461  19.067  0.00  0.00    +0.000 C 
ATOM     12  N   UNL     1       3.084   5.893  18.066  0.00  0.00    +0.000 NA
ATOM     13  H   UNL     1       1.144   7.003  22.018  0.00  0.00    +0.000 HD
ENDROOT
BRANCH  12  14
ATOM     14  N   UNL     1       3.581   4.648  18.205  0.00  0.00    +0.000 N 
ATOM     15  H   UNL     1       2.954   3.871  18.418  0.00  0.00    +0.000 HD
BRANCH  14  16
ATOM     16  C   UNL     1       4.950   4.460  18.219  0.00  0.00    +0.000 C 
ATOM     17  S   UNL     1       6.025   5.192  19.277  0.00  0.00    +0.000 S 
BRANCH  16  18
ATOM     18  N   UNL     1       5.447   3.629  17.251  0.00  0.00    +0.000 N 
ATOM     19  H   UNL     1       5.122   2.669  17.307  0.00  0.00    +0.000 HD
BRANCH  18  20
ATOM     20  C   UNL     1       6.043   4.013  16.037  0.00  0.00    +0.000 A 
ATOM     21  C   UNL     1       5.503   3.510  14.855  0.00  0.00    +0.000 A 
ATOM     22  C   UNL     1       6.049   3.884  13.624  0.00  0.00    +0.000 A 
ATOM     23  C   UNL     1       7.102   4.796  13.578  0.00  0.00    +0.000 A 
ATOM     24 CL   UNL     1       7.746   5.284  12.062  0.00  0.00    +0.000 Cl
ATOM     25  C   UNL     1       7.624   5.329  14.754  0.00  0.00    +0.000 A 
ATOM     26  C   UNL     1       7.099   4.933  15.983  0.00  0.00    +0.000 A 
ENDBRANCH  18  20
ENDBRANCH  16  18
ENDBRANCH  14  16
ENDBRANCH  12  14
TORSDOF 4
ENDMDL
