MODEL 1
REMARK VINA RESULT:      -6.6      0.000      0.000
REMARK  Name = 
REMARK  8 active torsions:
REMARK  status: ('A' for Active; 'I' for Inactive)
REMARK    1  A    between atoms: C_1  and  C_2
REMARK    2  A    between atoms: C_3  and  C_4
REMARK    3  A    between atoms: C_14  and  C_15
REMARK    4  A    between atoms: C_15  and  C_16
REMARK    5  A    between atoms: C_15  and  C_17
REMARK    6  A    between atoms: C_18  and  C_19
REMARK    7  A    between atoms: N_20  and  C_21
REMARK    8  A    between atoms: C_22  and  C_23
REMARK                            x       y       z     vdW  Elec       q    Type
REMARK                         _______ _______ _______ _____ _____    ______ ____
ROOT
ATOM      1  C   UNL     1       1.092   7.026  21.392  0.00  0.00    +0.000 C 
ATOM      2  C   UNL     1       1.463   7.718  20.109  0.00  0.00    +0.000 A 
ATOM      3  C   UNL     1       1.180   9.125  19.778  0.00  0.00    +0.000 A 
ATOM      4  C   UNL     1       1.909   9.369  18.622  0.00  0.00    +0.000 A 
ATOM      5  C   UNL     1       2.246  10.666  17.970  0.00  0.00    +0.000 C 
ATOM      6  N   UNL     1       2.473   8.171  18.187  0.00  0.00    +0.000 N 
ATOM      7  C   UNL     1       3.322   8.046  17.021  0.00  0.00    +0.000 C 
ATOM      8  C   UNL     1       2.204   7.141  19.068  0.00  0.00    +0.000 A 
ENDROOT
BRANCH   3   9
ATOM      9  C   UNL     1       0.596  10.094  20.726  0.00  0.00    +0.000 C 
ATOM     10  O   UNL     1       1.024  10.039  21.887  0.00  0.00    +0.000 OA
ATOM     11  N   UNL     1      -0.454  11.017  20.489  0.00  0.00    +0.000 N 
ATOM     12  C   UNL     1      -0.945  11.643  21.794  0.00  0.00    +0.000 C 
ATOM     13  C   UNL     1      -2.312  12.371  21.702  0.00  0.00    +0.000 C 
ATOM     14  N   UNL     1      -2.177  13.387  20.677  0.00  0.00    +0.000 N 
ATOM     15  C   UNL     1      -2.292  14.732  20.824  0.00  0.00    +0.000 A 
ATOM     16  C   UNL     1      -1.177  15.206  20.168  0.00  0.00    +0.000 A 
ATOM     17  N   UNL     1      -0.584  14.212  19.406  0.00  0.00    +0.000 NA
ATOM     18  C   UNL     1      -1.291  13.125  19.654  0.00  0.00    +0.000 A 
ATOM     19  C   UNL     1      -1.111  11.643  19.281  0.00  0.00    +0.000 C 
BRANCH  19  20
ATOM     20  C   UNL     1      -2.059  11.310  18.038  0.00  0.00    +0.000 C 
ATOM     21  C   UNL     1      -3.546  11.504  18.266  0.00  0.00    +0.000 C 
ATOM     22  C   UNL     1      -1.782  10.006  17.253  0.00  0.00    +0.000 C 
ENDBRANCH  19  20
ENDBRANCH   3   9
BRANCH   8  23
ATOM     23  C   UNL     1       2.678   5.710  18.949  0.00  0.00    +0.000 A 
ATOM     24  C   UNL     1       3.884   5.240  19.488  0.00  0.00    +0.000 A 
ATOM     25  C   UNL     1       4.317   3.902  19.320  0.00  0.00    +0.000 A 
ATOM     26  C   UNL     1       3.506   2.993  18.646  0.00  0.00    +0.000 A 
ATOM     27  C   UNL     1       2.281   3.416  18.151  0.00  0.00    +0.000 A 
ATOM     28  C   UNL     1       1.894   4.758  18.278  0.00  0.00    +0.000 A 
ENDBRANCH   8  23
TORSDOF 3
ENDMDL
MODEL 2
REMARK VINA RESULT:      -6.6      2.265      3.818
REMARK  Name = 
REMARK  8 active torsions:
REMARK  status: ('A' for Active; 'I' for Inactive)
REMARK    1  A    between atoms: C_1  and  C_2
REMARK    2  A    between atoms: C_3  and  C_4
REMARK    3  A    between atoms: C_14  and  C_15
REMARK    4  A    between atoms: C_15  and  C_16
REMARK    5  A    between atoms: C_15  and  C_17
REMARK    6  A    between atoms: C_18  and  C_19
REMARK    7  A    between atoms: N_20  and  C_21
REMARK    8  A    between atoms: C_22  and  C_23
REMARK                            x       y       z     vdW  Elec       q    Type
REMARK                         _______ _______ _______ _____ _____    ______ ____
ROOT
ATOM      1  C   UNL     1      -0.549   8.896  21.920  0.00  0.00    +0.000 C 
ATOM      2  C   UNL     1      -0.224  10.092  21.067  0.00  0.00    +0.000 A 
ATOM      3  C   UNL     1      -0.745  11.455  21.263  0.00  0.00    +0.000 A 
ATOM      4  C   UNL     1       0.007  12.247  20.406  0.00  0.00    +0.000 A 
ATOM      5  C   UNL     1       0.136  13.731  20.356  0.00  0.00    +0.000 C 
ATOM      6  N   UNL     1       0.819  11.421  19.631  0.00  0.00    +0.000 N 
ATOM      7  C   UNL     1       1.760  11.901  18.641  0.00  0.00    +0.000 C 
ATOM      8  C   UNL     1       0.688  10.097  20.003  0.00  0.00    +0.000 A 
ENDROOT
BRANCH   3   9
ATOM      9  C   UNL     1      -1.572  11.864  22.416  0.00  0.00    +0.000 C 
ATOM     10  O   UNL     1      -1.070  11.677  23.534  0.00  0.00    +0.000 OA
ATOM     11  N   UNL     1      -2.899  12.362  22.401  0.00  0.00    +0.000 N 
ATOM     12  C   UNL     1      -3.489  12.408  23.810  0.00  0.00    +0.000 C 
ATOM     13  C   UNL     1      -5.029  12.577  23.874  0.00  0.00    +0.000 C 
ATOM     14  N   UNL     1      -5.347  13.796  23.157  0.00  0.00    +0.000 N 
ATOM     15  C   UNL     1      -5.931  14.919  23.649  0.00  0.00    +0.000 A 
ATOM     16  C   UNL     1      -5.114  15.921  23.172  0.00  0.00    +0.000 A 
ATOM     17  N   UNL     1      -4.257  15.446  22.193  0.00  0.00    +0.000 NA
ATOM     18  C   UNL     1      -4.502  14.150  22.127  0.00  0.00    +0.000 A 
ATOM     19  C   UNL     1      -3.823  12.986  21.382  0.00  0.00    +0.000 C 
BRANCH  19  20
ATOM     20  C   UNL     1      -4.673  12.655  20.069  0.00  0.00    +0.000 C 
ATOM     21  C   UNL     1      -6.047  12.056  20.300  0.00  0.00    +0.000 C 
ATOM     22  C   UNL     1      -3.944  11.944  18.904  0.00  0.00    +0.000 C 
ENDBRANCH  19  20
ENDBRANCH   3   9
BRANCH   8  23
ATOM     23  C   UNL     1       1.434   8.920  19.413  0.00  0.00    +0.000 A 
ATOM     24  C   UNL     1       1.825   8.838  18.069  0.00  0.00    +0.000 A 
ATOM     25  C   UNL     1       2.484   7.701  17.542  0.00  0.00    +0.000 A 
ATOM     26  C   UNL     1       2.813   6.642  18.382  0.00  0.00    +0.000 A 
ATOM     27  C   UNL     1       2.489   6.719  19.729  0.00  0.00    +0.000 A 
ATOM     28  C   UNL     1       1.786   7.828  20.223  0.00  0.00    +0.000 A 
ENDBRANCH   8  23
TORSDOF 3
ENDMDL
MODEL 3
REMARK VINA RESULT:      -6.4      0.654      1.301
REMARK  Name = 
REMARK  8 active torsions:
REMARK  status: ('A' for Active; 'I' for Inactive)
REMARK    1  A    between atoms: C_1  and  C_2
REMARK    2  A    between atoms: C_3  and  C_4
REMARK    3  A    between atoms: C_14  and  C_15
REMARK    4  A    between atoms: C_15  and  C_16
REMARK    5  A    between atoms: C_15  and  C_17
REMARK    6  A    between atoms: C_18  and  C_19
REMARK    7  A    between atoms: N_20  and  C_21
REMARK    8  A    between atoms: C_22  and  C_23
REMARK                            x       y       z     vdW  Elec       q    Type
REMARK                         _______ _______ _______ _____ _____    ______ ____
ROOT
ATOM      1  C   UNL     1       1.386   6.440  21.223  0.00  0.00    +0.000 C 
ATOM      2  C   UNL     1       1.703   7.192  19.959  0.00  0.00    +0.000 A 
ATOM      3  C   UNL     1       1.432   8.618  19.716  0.00  0.00    +0.000 A 
ATOM      4  C   UNL     1       2.104   8.909  18.536  0.00  0.00    +0.000 A 
ATOM      5  C   UNL     1       2.432  10.233  17.935  0.00  0.00    +0.000 C 
ATOM      6  N   UNL     1       2.619   7.726  18.012  0.00  0.00    +0.000 N 
ATOM      7  C   UNL     1       3.403   7.647  16.797  0.00  0.00    +0.000 C 
ATOM      8  C   UNL     1       2.377   6.656  18.852  0.00  0.00    +0.000 A 
ENDROOT
BRANCH   3   9
ATOM      9  C   UNL     1       0.918   9.547  20.743  0.00  0.00    +0.000 C 
ATOM     10  O   UNL     1       1.502   9.521  21.835  0.00  0.00    +0.000 OA
ATOM     11  N   UNL     1      -0.213  10.398  20.657  0.00  0.00    +0.000 N 
ATOM     12  C   UNL     1      -0.564  10.990  22.022  0.00  0.00    +0.000 C 
ATOM     13  C   UNL     1      -1.976  11.625  22.121  0.00  0.00    +0.000 C 
ATOM     14  N   UNL     1      -2.048  12.647  21.096  0.00  0.00    +0.000 N 
ATOM     15  C   UNL     1      -2.231  13.982  21.268  0.00  0.00    +0.000 A 
ATOM     16  C   UNL     1      -1.247  14.529  20.472  0.00  0.00    +0.000 A 
ATOM     17  N   UNL     1      -0.698  13.577  19.629  0.00  0.00    +0.000 NA
ATOM     18  C   UNL     1      -1.292  12.445  19.961  0.00  0.00    +0.000 A 
ATOM     19  C   UNL     1      -1.067  10.978  19.554  0.00  0.00    +0.000 C 
BRANCH  19  20
ATOM     20  C   UNL     1      -2.150  10.582  18.447  0.00  0.00    +0.000 C 
ATOM     21  C   UNL     1      -1.610   9.901  17.203  0.00  0.00    +0.000 C 
ATOM     22  C   UNL     1      -3.222  11.636  18.083  0.00  0.00    +0.000 C 
ENDBRANCH  19  20
ENDBRANCH   3   9
BRANCH   8  23
ATOM     23  C   UNL     1       2.815   5.225  18.635  0.00  0.00    +0.000 A 
ATOM     24  C   UNL     1       2.103   4.302  17.855  0.00  0.00    +0.000 A 
ATOM     25  C   UNL     1       2.521   2.957  17.709  0.00  0.00    +0.000 A 
ATOM     26  C   UNL     1       3.703   2.531  18.307  0.00  0.00    +0.000 A 
ATOM     27  C   UNL     1       4.457   3.437  19.037  0.00  0.00    +0.000 A 
ATOM     28  C   UNL     1       4.000   4.751  19.219  0.00  0.00    +0.000 A 
ENDBRANCH   8  23
TORSDOF 3
ENDMDL
MODEL 4
REMARK VINA RESULT:      -6.4      6.758      8.381
REMARK  Name = 
REMARK  8 active torsions:
REMARK  status: ('A' for Active; 'I' for Inactive)
REMARK    1  A    between atoms: C_1  and  C_2
REMARK    2  A    between atoms: C_3  and  C_4
REMARK    3  A    between atoms: C_14  and  C_15
REMARK    4  A    between atoms: C_15  and  C_16
REMARK    5  A    between atoms: C_15  and  C_17
REMARK    6  A    between atoms: C_18  and  C_19
REMARK    7  A    between atoms: N_20  and  C_21
REMARK    8  A    between atoms: C_22  and  C_23
REMARK                            x       y       z     vdW  Elec       q    Type
REMARK                         _______ _______ _______ _____ _____    ______ ____
ROOT
ATOM      1  C   UNL     1       8.197  15.618  18.854  0.00  0.00    +0.000 C 
ATOM      2  C   UNL     1       7.887  14.925  20.152  0.00  0.00    +0.000 A 
ATOM      3  C   UNL     1       6.853  15.332  21.119  0.00  0.00    +0.000 A 
ATOM      4  C   UNL     1       6.775  14.275  22.018  0.00  0.00    +0.000 A 
ATOM      5  C   UNL     1       5.735  13.979  23.043  0.00  0.00    +0.000 C 
ATOM      6  N   UNL     1       7.784  13.361  21.721  0.00  0.00    +0.000 N 
ATOM      7  C   UNL     1       7.993  12.119  22.436  0.00  0.00    +0.000 C 
ATOM      8  C   UNL     1       8.489  13.739  20.595  0.00  0.00    +0.000 A 
ENDROOT
BRANCH   3   9
ATOM      9  C   UNL     1       5.883  16.419  20.882  0.00  0.00    +0.000 C 
ATOM     10  O   UNL     1       6.229  17.545  21.268  0.00  0.00    +0.000 OA
ATOM     11  N   UNL     1       4.575  16.316  20.346  0.00  0.00    +0.000 N 
ATOM     12  C   UNL     1       3.802  17.623  20.517  0.00  0.00    +0.000 C 
ATOM     13  C   UNL     1       2.268  17.513  20.311  0.00  0.00    +0.000 C 
ATOM     14  N   UNL     1       2.062  16.978  18.981  0.00  0.00    +0.000 N 
ATOM     15  C   UNL     1       1.427  17.572  17.938  0.00  0.00    +0.000 A 
ATOM     16  C   UNL     1       2.310  17.384  16.896  0.00  0.00    +0.000 A 
ATOM     17  N   UNL     1       3.286  16.458  17.229  0.00  0.00    +0.000 NA
ATOM     18  C   UNL     1       3.040  16.142  18.487  0.00  0.00    +0.000 A 
ATOM     19  C   UNL     1       3.801  15.306  19.531  0.00  0.00    +0.000 C 
BRANCH  19  20
ATOM     20  C   UNL     1       3.133  13.855  19.611  0.00  0.00    +0.000 C 
ATOM     21  C   UNL     1       2.617  13.289  18.302  0.00  0.00    +0.000 C 
ATOM     22  C   UNL     1       2.137  13.588  20.764  0.00  0.00    +0.000 C 
ENDBRANCH  19  20
ENDBRANCH   3   9
BRANCH   8  23
ATOM     23  C   UNL     1       9.629  12.980  19.951  0.00  0.00    +0.000 A 
ATOM     24  C   UNL     1      10.961  13.061  20.382  0.00  0.00    +0.000 A 
ATOM     25  C   UNL     1      12.009  12.370  19.729  0.00  0.00    +0.000 A 
ATOM     26  C   UNL     1      11.722  11.534  18.653  0.00  0.00    +0.000 A 
ATOM     27  C   UNL     1      10.405  11.391  18.240  0.00  0.00    +0.000 A 
ATOM     28  C   UNL     1       9.386  12.127  18.863  0.00  0.00    +0.000 A 
ENDBRANCH   8  23
TORSDOF 3
ENDMDL
MODEL 5
REMARK VINA RESULT:      -6.3      1.368      1.744
REMARK  Name = 
REMARK  8 active torsions:
REMARK  status: ('A' for Active; 'I' for Inactive)
REMARK    1  A    between atoms: C_1  and  C_2
REMARK    2  A    between atoms: C_3  and  C_4
REMARK    3  A    between atoms: C_14  and  C_15
REMARK    4  A    between atoms: C_15  and  C_16
REMARK    5  A    between atoms: C_15  and  C_17
REMARK    6  A    between atoms: C_18  and  C_19
REMARK    7  A    between atoms: N_20  and  C_21
REMARK    8  A    between atoms: C_22  and  C_23
REMARK                            x       y       z     vdW  Elec       q    Type
REMARK                         _______ _______ _______ _____ _____    ______ ____
ROOT
ATOM      1  C   UNL     1       1.655   5.973  21.170  0.00  0.00    +0.000 C 
ATOM      2  C   UNL     1       1.811   6.932  20.022  0.00  0.00    +0.000 A 
ATOM      3  C   UNL     1       1.445   8.358  20.037  0.00  0.00    +0.000 A 
ATOM      4  C   UNL     1       1.985   8.874  18.866  0.00  0.00    +0.000 A 
ATOM      5  C   UNL     1       2.185  10.294  18.461  0.00  0.00    +0.000 C 
ATOM      6  N   UNL     1       2.509   7.823  18.115  0.00  0.00    +0.000 N 
ATOM      7  C   UNL     1       3.176   7.988  16.841  0.00  0.00    +0.000 C 
ATOM      8  C   UNL     1       2.403   6.622  18.789  0.00  0.00    +0.000 A 
ENDROOT
BRANCH   3   9
ATOM      9  C   UNL     1       0.983   9.079  21.240  0.00  0.00    +0.000 C 
ATOM     10  O   UNL     1       1.369   8.620  22.325  0.00  0.00    +0.000 OA
ATOM     11  N   UNL     1       0.086  10.175  21.307  0.00  0.00    +0.000 N 
ATOM     12  C   UNL     1      -0.342  10.452  22.747  0.00  0.00    +0.000 C 
ATOM     13  C   UNL     1      -1.585  11.367  22.901  0.00  0.00    +0.000 C 
ATOM     14  N   UNL     1      -1.277  12.609  22.220  0.00  0.00    +0.000 N 
ATOM     15  C   UNL     1      -1.198  13.853  22.760  0.00  0.00    +0.000 A 
ATOM     16  C   UNL     1      -0.009  14.330  22.253  0.00  0.00    +0.000 A 
ATOM     17  N   UNL     1       0.452  13.530  21.221  0.00  0.00    +0.000 NA
ATOM     18  C   UNL     1      -0.412  12.534  21.149  0.00  0.00    +0.000 A 
ATOM     19  C   UNL     1      -0.441  11.219  20.351  0.00  0.00    +0.000 C 
BRANCH  19  20
ATOM     20  C   UNL     1      -1.395  11.411  19.082  0.00  0.00    +0.000 C 
ATOM     21  C   UNL     1      -1.694  10.160  18.280  0.00  0.00    +0.000 C 
ATOM     22  C   UNL     1      -1.117  12.616  18.152  0.00  0.00    +0.000 C 
ENDBRANCH  19  20
ENDBRANCH   3   9
BRANCH   8  23
ATOM     23  C   UNL     1       2.891   5.274  18.307  0.00  0.00    +0.000 A 
ATOM     24  C   UNL     1       2.047   4.272  17.807  0.00  0.00    +0.000 A 
ATOM     25  C   UNL     1       2.534   3.006  17.404  0.00  0.00    +0.000 A 
ATOM     26  C   UNL     1       3.901   2.745  17.447  0.00  0.00    +0.000 A 
ATOM     27  C   UNL     1       4.766   3.738  17.883  0.00  0.00    +0.000 A 
ATOM     28  C   UNL     1       4.261   4.967  18.332  0.00  0.00    +0.000 A 
ENDBRANCH   8  23
TORSDOF 3
ENDMDL
MODEL 6
REMARK VINA RESULT:      -6.2      4.719      7.975
REMARK  Name = 
REMARK  8 active torsions:
REMARK  status: ('A' for Active; 'I' for Inactive)
REMARK    1  A    between atoms: C_1  and  C_2
REMARK    2  A    between atoms: C_3  and  C_4
REMARK    3  A    between atoms: C_14  and  C_15
REMARK    4  A    between atoms: C_15  and  C_16
REMARK    5  A    between atoms: C_15  and  C_17
REMARK    6  A    between atoms: C_18  and  C_19
REMARK    7  A    between atoms: N_20  and  C_21
REMARK    8  A    between atoms: C_22  and  C_23
REMARK                            x       y       z     vdW  Elec       q    Type
REMARK                         _______ _______ _______ _____ _____    ______ ____
ROOT
ATOM      1  C   UNL     1      -2.543  13.509  21.620  0.00  0.00    +0.000 C 
ATOM      2  C   UNL     1      -2.711  12.830  20.288  0.00  0.00    +0.000 A 
ATOM      3  C   UNL     1      -1.624  12.296  19.451  0.00  0.00    +0.000 A 
ATOM      4  C   UNL     1      -2.266  11.564  18.462  0.00  0.00    +0.000 A 
ATOM      5  C   UNL     1      -1.704  10.576  17.498  0.00  0.00    +0.000 C 
ATOM      6  N   UNL     1      -3.641  11.756  18.586  0.00  0.00    +0.000 N 
ATOM      7  C   UNL     1      -4.630  11.126  17.737  0.00  0.00    +0.000 C 
ATOM      8  C   UNL     1      -3.942  12.538  19.684  0.00  0.00    +0.000 A 
ENDROOT
BRANCH   3   9
ATOM      9  C   UNL     1      -0.209  12.243  19.871  0.00  0.00    +0.000 C 
ATOM     10  O   UNL     1       0.192  11.143  20.277  0.00  0.00    +0.000 OA
ATOM     11  N   UNL     1       0.716  13.315  19.949  0.00  0.00    +0.000 N 
ATOM     12  C   UNL     1       1.988  12.895  20.685  0.00  0.00    +0.000 C 
ATOM     13  C   UNL     1       2.896  14.064  21.150  0.00  0.00    +0.000 C 
ATOM     14  N   UNL     1       3.230  14.830  19.966  0.00  0.00    +0.000 N 
ATOM     15  C   UNL     1       4.462  15.044  19.437  0.00  0.00    +0.000 A 
ATOM     16  C   UNL     1       4.273  14.764  18.101  0.00  0.00    +0.000 A 
ATOM     17  N   UNL     1       2.925  14.682  17.793  0.00  0.00    +0.000 NA
ATOM     18  C   UNL     1       2.302  14.838  18.946  0.00  0.00    +0.000 A 
ATOM     19  C   UNL     1       0.829  14.707  19.375  0.00  0.00    +0.000 C 
BRANCH  19  20
ATOM     20  C   UNL     1       0.190  16.171  19.459  0.00  0.00    +0.000 C 
ATOM     21  C   UNL     1      -0.676  16.448  20.673  0.00  0.00    +0.000 C 
ATOM     22  C   UNL     1      -0.451  16.748  18.175  0.00  0.00    +0.000 C 
ENDBRANCH  19  20
ENDBRANCH   3   9
BRANCH   8  23
ATOM     23  C   UNL     1      -5.324  12.930  20.156  0.00  0.00    +0.000 A 
ATOM     24  C   UNL     1      -6.074  13.973  19.595  0.00  0.00    +0.000 A 
ATOM     25  C   UNL     1      -7.348  14.341  20.091  0.00  0.00    +0.000 A 
ATOM     26  C   UNL     1      -7.917  13.620  21.137  0.00  0.00    +0.000 A 
ATOM     27  C   UNL     1      -7.223  12.546  21.675  0.00  0.00    +0.000 A 
ATOM     28  C   UNL     1      -5.937  12.231  21.209  0.00  0.00    +0.000 A 
ENDBRANCH   8  23
TORSDOF 3
ENDMDL
MODEL 7
REMARK VINA RESULT:      -6.1      5.385      8.276
REMARK  Name = 
REMARK  8 active torsions:
REMARK  status: ('A' for Active; 'I' for Inactive)
REMARK    1  A    between atoms: C_1  and  C_2
REMARK    2  A    between atoms: C_3  and  C_4
REMARK    3  A    between atoms: C_14  and  C_15
REMARK    4  A    between atoms: C_15  and  C_16
REMARK    5  A    between atoms: C_15  and  C_17
REMARK    6  A    between atoms: C_18  and  C_19
REMARK    7  A    between atoms: N_20  and  C_21
REMARK    8  A    between atoms: C_22  and  C_23
REMARK                            x       y       z     vdW  Elec       q    Type
REMARK                         _______ _______ _______ _____ _____    ______ ____
ROOT
ATOM      1  C   UNL     1      -1.526  16.699  21.621  0.00  0.00    +0.000 C 
ATOM      2  C   UNL     1      -1.230  15.373  20.975  0.00  0.00    +0.000 A 
ATOM      3  C   UNL     1      -1.595  14.053  21.516  0.00  0.00    +0.000 A 
ATOM      4  C   UNL     1      -1.338  13.164  20.480  0.00  0.00    +0.000 A 
ATOM      5  C   UNL     1      -1.760  11.744  20.325  0.00  0.00    +0.000 C 
ATOM      6  N   UNL     1      -0.721  13.856  19.440  0.00  0.00    +0.000 N 
ATOM      7  C   UNL     1      -0.328  13.255  18.183  0.00  0.00    +0.000 C 
ATOM      8  C   UNL     1      -0.627  15.206  19.720  0.00  0.00    +0.000 A 
ENDROOT
BRANCH   3   9
ATOM      9  C   UNL     1      -2.424  13.856  22.722  0.00  0.00    +0.000 C 
ATOM     10  O   UNL     1      -1.827  13.936  23.805  0.00  0.00    +0.000 OA
ATOM     11  N   UNL     1      -3.795  13.501  22.786  0.00  0.00    +0.000 N 
ATOM     12  C   UNL     1      -4.204  13.130  24.211  0.00  0.00    +0.000 C 
ATOM     13  C   UNL     1      -5.557  12.382  24.333  0.00  0.00    +0.000 C 
ATOM     14  N   UNL     1      -6.562  13.231  23.727  0.00  0.00    +0.000 N 
ATOM     15  C   UNL     1      -7.647  13.789  24.325  0.00  0.00    +0.000 A 
ATOM     16  C   UNL     1      -7.584  15.101  23.908  0.00  0.00    +0.000 A 
ATOM     17  N   UNL     1      -6.680  15.253  22.869  0.00  0.00    +0.000 NA
ATOM     18  C   UNL     1      -6.146  14.057  22.704  0.00  0.00    +0.000 A 
ATOM     19  C   UNL     1      -4.979  13.532  21.849  0.00  0.00    +0.000 C 
BRANCH  19  20
ATOM     20  C   UNL     1      -5.578  12.839  20.538  0.00  0.00    +0.000 C 
ATOM     21  C   UNL     1      -6.033  13.780  19.438  0.00  0.00    +0.000 C 
ATOM     22  C   UNL     1      -6.587  11.684  20.735  0.00  0.00    +0.000 C 
ENDBRANCH  19  20
ENDBRANCH   3   9
BRANCH   8  23
ATOM     23  C   UNL     1      -0.050  16.273  18.818  0.00  0.00    +0.000 A 
ATOM     24  C   UNL     1      -0.829  17.190  18.097  0.00  0.00    +0.000 A 
ATOM     25  C   UNL     1      -0.256  18.149  17.228  0.00  0.00    +0.000 A 
ATOM     26  C   UNL     1       1.128  18.237  17.111  0.00  0.00    +0.000 A 
ATOM     27  C   UNL     1       1.926  17.380  17.855  0.00  0.00    +0.000 A 
ATOM     28  C   UNL     1       1.341  16.399  18.669  0.00  0.00    +0.000 A 
ENDBRANCH   8  23
TORSDOF 3
ENDMDL
MODEL 8
REMARK VINA RESULT:      -6.0      2.375      4.872
REMARK  Name = 
REMARK  8 active torsions:
REMARK  status: ('A' for Active; 'I' for Inactive)
REMARK    1  A    between atoms: C_1  and  C_2
REMARK    2  A    between atoms: C_3  and  C_4
REMARK    3  A    between atoms: C_14  and  C_15
REMARK    4  A    between atoms: C_15  and  C_16
REMARK    5  A    between atoms: C_15  and  C_17
REMARK    6  A    between atoms: C_18  and  C_19
REMARK    7  A    between atoms: N_20  and  C_21
REMARK    8  A    between atoms: C_22  and  C_23
REMARK                            x       y       z     vdW  Elec       q    Type
REMARK                         _______ _______ _______ _____ _____    ______ ____
ROOT
ATOM      1  C   UNL     1       1.384  12.283  20.439  0.00  0.00    +0.000 C 
ATOM      2  C   UNL     1       0.095  11.799  19.834  0.00  0.00    +0.000 A 
ATOM      3  C   UNL     1      -1.167  12.556  19.779  0.00  0.00    +0.000 A 
ATOM      4  C   UNL     1      -1.985  11.818  18.933  0.00  0.00    +0.000 A 
ATOM      5  C   UNL     1      -3.264  12.207  18.276  0.00  0.00    +0.000 C 
ATOM      6  N   UNL     1      -1.338  10.626  18.613  0.00  0.00    +0.000 N 
ATOM      7  C   UNL     1      -1.882   9.616  17.730  0.00  0.00    +0.000 C 
ATOM      8  C   UNL     1      -0.071  10.579  19.163  0.00  0.00    +0.000 A 
ENDROOT
BRANCH   3   9
ATOM      9  C   UNL     1      -1.305  13.963  20.206  0.00  0.00    +0.000 C 
ATOM     10  O   UNL     1      -0.783  14.805  19.462  0.00  0.00    +0.000 OA
ATOM     11  N   UNL     1      -1.883  14.456  21.403  0.00  0.00    +0.000 N 
ATOM     12  C   UNL     1      -1.584  15.942  21.589  0.00  0.00    +0.000 C 
ATOM     13  C   UNL     1      -1.842  16.492  23.017  0.00  0.00    +0.000 C 
ATOM     14  N   UNL     1      -3.230  16.215  23.328  0.00  0.00    +0.000 N 
ATOM     15  C   UNL     1      -4.215  17.112  23.592  0.00  0.00    +0.000 A 
ATOM     16  C   UNL     1      -5.248  16.675  22.790  0.00  0.00    +0.000 A 
ATOM     17  N   UNL     1      -4.997  15.405  22.298  0.00  0.00    +0.000 NA
ATOM     18  C   UNL     1      -3.790  15.101  22.740  0.00  0.00    +0.000 A 
ATOM     19  C   UNL     1      -2.828  13.933  22.459  0.00  0.00    +0.000 C 
BRANCH  19  20
ATOM     20  C   UNL     1      -2.932  12.884  23.662  0.00  0.00    +0.000 C 
ATOM     21  C   UNL     1      -2.240  11.552  23.443  0.00  0.00    +0.000 C 
ATOM     22  C   UNL     1      -4.315  12.691  24.327  0.00  0.00    +0.000 C 
ENDBRANCH  19  20
ENDBRANCH   3   9
BRANCH   8  23
ATOM     23  C   UNL     1       0.937   9.462  19.004  0.00  0.00    +0.000 A 
ATOM     24  C   UNL     1       1.702   9.260  17.847  0.00  0.00    +0.000 A 
ATOM     25  C   UNL     1       2.605   8.178  17.718  0.00  0.00    +0.000 A 
ATOM     26  C   UNL     1       2.794   7.304  18.784  0.00  0.00    +0.000 A 
ATOM     27  C   UNL     1       2.092   7.512  19.963  0.00  0.00    +0.000 A 
ATOM     28  C   UNL     1       1.159   8.556  20.053  0.00  0.00    +0.000 A 
ENDBRANCH   8  23
TORSDOF 3
ENDMDL
MODEL 9
REMARK VINA RESULT:      -6.0      2.350      8.428
REMARK  Name = 
REMARK  8 active torsions:
REMARK  status: ('A' for Active; 'I' for Inactive)
REMARK    1  A    between atoms: C_1  and  C_2
REMARK    2  A    between atoms: C_3  and  C_4
REMARK    3  A    between atoms: C_14  and  C_15
REMARK    4  A    between atoms: C_15  and  C_16
REMARK    5  A    between atoms: C_15  and  C_17
REMARK    6  A    between atoms: C_18  and  C_19
REMARK    7  A    between atoms: N_20  and  C_21
REMARK    8  A    between atoms: C_22  and  C_23
REMARK                            x       y       z     vdW  Elec       q    Type
REMARK                         _______ _______ _______ _____ _____    ______ ____
ROOT
ATOM      1  C   UNL     1       0.508   8.905  22.258  0.00  0.00    +0.000 C 
ATOM      2  C   UNL     1       1.118   9.110  20.898  0.00  0.00    +0.000 A 
ATOM      3  C   UNL     1       1.702   8.057  20.051  0.00  0.00    +0.000 A 
ATOM      4  C   UNL     1       1.907   8.668  18.821  0.00  0.00    +0.000 A 
ATOM      5  C   UNL     1       2.210   8.054  17.497  0.00  0.00    +0.000 C 
ATOM      6  N   UNL     1       1.619  10.026  18.942  0.00  0.00    +0.000 N 
ATOM      7  C   UNL     1       1.698  10.975  17.852  0.00  0.00    +0.000 C 
ATOM      8  C   UNL     1       1.148  10.328  20.205  0.00  0.00    +0.000 A 
ENDROOT
BRANCH   3   9
ATOM      9  C   UNL     1       1.654   6.617  20.373  0.00  0.00    +0.000 C 
ATOM     10  O   UNL     1       0.765   6.270  21.164  0.00  0.00    +0.000 OA
ATOM     11  N   UNL     1       2.553   5.602  19.957  0.00  0.00    +0.000 N 
ATOM     12  C   UNL     1       2.313   4.303  20.724  0.00  0.00    +0.000 C 
ATOM     13  C   UNL     1       3.455   3.258  20.622  0.00  0.00    +0.000 C 
ATOM     14  N   UNL     1       3.646   2.981  19.213  0.00  0.00    +0.000 N 
ATOM     15  C   UNL     1       3.487   1.795  18.572  0.00  0.00    +0.000 A 
ATOM     16  C   UNL     1       2.725   2.140  17.476  0.00  0.00    +0.000 A 
ATOM     17  N   UNL     1       2.685   3.514  17.307  0.00  0.00    +0.000 NA
ATOM     18  C   UNL     1       3.358   4.003  18.333  0.00  0.00    +0.000 A 
ATOM     19  C   UNL     1       3.581   5.431  18.863  0.00  0.00    +0.000 C 
BRANCH  19  20
ATOM     20  C   UNL     1       5.021   5.934  18.386  0.00  0.00    +0.000 C 
ATOM     21  C   UNL     1       5.248   5.973  16.886  0.00  0.00    +0.000 C 
ATOM     22  C   UNL     1       6.259   5.368  19.121  0.00  0.00    +0.000 C 
ENDBRANCH  19  20
ENDBRANCH   3   9
BRANCH   8  23
ATOM     23  C   UNL     1       0.702  11.687  20.697  0.00  0.00    +0.000 A 
ATOM     24  C   UNL     1      -0.627  12.005  21.014  0.00  0.00    +0.000 A 
ATOM     25  C   UNL     1      -1.015  13.301  21.430  0.00  0.00    +0.000 A 
ATOM     26  C   UNL     1      -0.053  14.293  21.588  0.00  0.00    +0.000 A 
ATOM     27  C   UNL     1       1.278  13.993  21.336  0.00  0.00    +0.000 A 
ATOM     28  C   UNL     1       1.638  12.720  20.870  0.00  0.00    +0.000 A 
ENDBRANCH   8  23
TORSDOF 3
ENDMDL
