MODEL 1
REMARK VINA RESULT:      -7.3      0.000      0.000
REMARK  Name = 
REMARK  5 active torsions:
REMARK  status: ('A' for Active; 'I' for Inactive)
REMARK    1  A    between atoms: N_1  and  N_2
REMARK    2  A    between atoms: C_3  and  S_4
REMARK    3  A    between atoms: S_4  and  S_5
REMARK    4  A    between atoms: S_5  and  C_6
REMARK    5  A    between atoms: C_14  and  C_15
REMARK                            x       y       z     vdW  Elec       q    Type
REMARK                         _______ _______ _______ _____ _____    ______ ____
ROOT
ATOM      1  N   UNL     1       5.929   4.316  16.078  0.00  0.00    +0.000 N 
ATOM      2  C   UNL     1       6.457   5.248  16.942  0.00  0.00    +0.000 A 
ATOM      3  N   UNL     1       7.341   5.987  16.308  0.00  0.00    +0.000 NA
ATOM      4  N   UNL     1       7.368   5.571  14.997  0.00  0.00    +0.000 NA
ATOM      5  C   UNL     1       6.476   4.606  14.834  0.00  0.00    +0.000 A 
ENDROOT
BRANCH   5   6
ATOM      6  C   UNL     1       6.169   3.947  13.559  0.00  0.00    +0.000 A 
ATOM      7  C   UNL     1       7.219   3.509  12.737  0.00  0.00    +0.000 A 
ATOM      8  C   UNL     1       6.962   2.878  11.515  0.00  0.00    +0.000 A 
ATOM      9  C   UNL     1       5.647   2.685  11.097  0.00  0.00    +0.000 A 
ATOM     10  C   UNL     1       4.594   3.136  11.887  0.00  0.00    +0.000 A 
ATOM     11  C   UNL     1       4.853   3.769  13.106  0.00  0.00    +0.000 A 
ENDBRANCH   5   6
BRANCH   1  12
ATOM     12  N   UNL     1       5.071   3.203  16.413  0.00  0.00    +0.000 N 
ATOM     13  H   UNL     1       4.572   3.398  17.284  0.00  0.00    +0.000 HD
ATOM     14  H   UNL     1       5.632   2.374  16.614  0.00  0.00    +0.000 HD
ENDBRANCH   1  12
BRANCH   2  15
ATOM     15  S   UNL     1       6.017   5.449  18.604  0.00  0.00    +0.000 S 
BRANCH  15  16
ATOM     16  S   UNL     1       4.094   6.189  18.475  0.00  0.00    +0.000 S 
BRANCH  16  17
ATOM     17  C   UNL     1       3.053   4.815  19.082  0.00  0.00    +0.000 C 
ATOM     18  C   UNL     1       1.987   4.434  18.045  0.00  0.00    +0.000 C 
ATOM     19  C   UNL     1       1.370   3.091  18.445  0.00  0.00    +0.000 C 
ATOM     20  C   UNL     1       0.822   3.097  19.875  0.00  0.00    +0.000 C 
ATOM     21  C   UNL     1       1.781   3.708  20.898  0.00  0.00    +0.000 C 
ATOM     22  C   UNL     1       2.361   5.041  20.427  0.00  0.00    +0.000 C 
ENDBRANCH  16  17
ENDBRANCH  15  16
ENDBRANCH   2  15
TORSDOF 5
ENDMDL
MODEL 2
REMARK VINA RESULT:      -7.2      0.969      1.633
REMARK  Name = 
REMARK  5 active torsions:
REMARK  status: ('A' for Active; 'I' for Inactive)
REMARK    1  A    between atoms: N_1  and  N_2
REMARK    2  A    between atoms: C_3  and  S_4
REMARK    3  A    between atoms: S_4  and  S_5
REMARK    4  A    between atoms: S_5  and  C_6
REMARK    5  A    between atoms: C_14  and  C_15
REMARK                            x       y       z     vdW  Elec       q    Type
REMARK                         _______ _______ _______ _____ _____    ______ ____
ROOT
ATOM      1  N   UNL     1       5.903   4.652  16.701  0.00  0.00    +0.000 N 
ATOM      2  C   UNL     1       6.094   5.483  17.781  0.00  0.00    +0.000 A 
ATOM      3  N   UNL     1       6.982   6.404  17.479  0.00  0.00    +0.000 NA
ATOM      4  N   UNL     1       7.353   6.211  16.169  0.00  0.00    +0.000 NA
ATOM      5  C   UNL     1       6.662   5.196  15.671  0.00  0.00    +0.000 A 
ENDROOT
BRANCH   5   6
ATOM      6  C   UNL     1       6.737   4.724  14.284  0.00  0.00    +0.000 A 
ATOM      7  C   UNL     1       7.689   5.280  13.415  0.00  0.00    +0.000 A 
ATOM      8  C   UNL     1       7.787   4.853  12.086  0.00  0.00    +0.000 A 
ATOM      9  C   UNL     1       6.925   3.867  11.609  0.00  0.00    +0.000 A 
ATOM     10  C   UNL     1       5.958   3.323  12.449  0.00  0.00    +0.000 A 
ATOM     11  C   UNL     1       5.860   3.754  13.775  0.00  0.00    +0.000 A 
ENDBRANCH   5   6
BRANCH   1  12
ATOM     12  N   UNL     1       5.156   3.415  16.671  0.00  0.00    +0.000 N 
ATOM     13  H   UNL     1       5.799   2.621  16.708  0.00  0.00    +0.000 HD
ATOM     14  H   UNL     1       4.672   3.319  15.777  0.00  0.00    +0.000 HD
ENDBRANCH   1  12
BRANCH   2  15
ATOM     15  S   UNL     1       5.277   5.364  19.303  0.00  0.00    +0.000 S 
BRANCH  15  16
ATOM     16  S   UNL     1       3.437   6.209  18.895  0.00  0.00    +0.000 S 
BRANCH  16  17
ATOM     17  C   UNL     1       2.245   4.889  19.317  0.00  0.00    +0.000 C 
ATOM     18  C   UNL     1       2.637   4.193  20.628  0.00  0.00    +0.000 C 
ATOM     19  C   UNL     1       1.456   3.344  21.106  0.00  0.00    +0.000 C 
ATOM     20  C   UNL     1       0.971   2.357  20.040  0.00  0.00    +0.000 C 
ATOM     21  C   UNL     1       0.810   2.981  18.653  0.00  0.00    +0.000 C 
ATOM     22  C   UNL     1       2.023   3.818  18.248  0.00  0.00    +0.000 C 
ENDBRANCH  16  17
ENDBRANCH  15  16
ENDBRANCH   2  15
TORSDOF 5
ENDMDL
MODEL 3
REMARK VINA RESULT:      -7.1      1.295      1.481
REMARK  Name = 
REMARK  5 active torsions:
REMARK  status: ('A' for Active; 'I' for Inactive)
REMARK    1  A    between atoms: N_1  and  N_2
REMARK    2  A    between atoms: C_3  and  S_4
REMARK    3  A    between atoms: S_4  and  S_5
REMARK    4  A    between atoms: S_5  and  C_6
REMARK    5  A    between atoms: C_14  and  C_15
REMARK                            x       y       z     vdW  Elec       q    Type
REMARK                         _______ _______ _______ _____ _____    ______ ____
ROOT
ATOM      1  N   UNL     1       6.022   4.992  16.632  0.00  0.00    +0.000 N 
ATOM      2  C   UNL     1       5.407   5.893  17.471  0.00  0.00    +0.000 A 
ATOM      3  N   UNL     1       4.909   6.885  16.767  0.00  0.00    +0.000 NA
ATOM      4  N   UNL     1       5.157   6.619  15.440  0.00  0.00    +0.000 NA
ATOM      5  C   UNL     1       5.772   5.450  15.344  0.00  0.00    +0.000 A 
ENDROOT
BRANCH   5   6
ATOM      6  C   UNL     1       6.149   4.796  14.086  0.00  0.00    +0.000 A 
ATOM      7  C   UNL     1       7.332   5.180  13.434  0.00  0.00    +0.000 A 
ATOM      8  C   UNL     1       7.721   4.578  12.232  0.00  0.00    +0.000 A 
ATOM      9  C   UNL     1       6.924   3.587  11.664  0.00  0.00    +0.000 A 
ATOM     10  C   UNL     1       5.735   3.211  12.282  0.00  0.00    +0.000 A 
ATOM     11  C   UNL     1       5.347   3.817  13.480  0.00  0.00    +0.000 A 
ENDBRANCH   5   6
BRANCH   1  12
ATOM     12  N   UNL     1       6.845   3.867  17.011  0.00  0.00    +0.000 N 
ATOM     13  H   UNL     1       7.071   3.921  18.007  0.00  0.00    +0.000 HD
ATOM     14  H   UNL     1       7.747   3.915  16.535  0.00  0.00    +0.000 HD
ENDBRANCH   1  12
BRANCH   2  15
ATOM     15  S   UNL     1       5.276   5.743  19.191  0.00  0.00    +0.000 S 
BRANCH  15  16
ATOM     16  S   UNL     1       3.274   6.122  19.525  0.00  0.00    +0.000 S 
BRANCH  16  17
ATOM     17  C   UNL     1       2.497   4.469  19.459  0.00  0.00    +0.000 C 
ATOM     18  C   UNL     1       2.221   4.049  18.009  0.00  0.00    +0.000 C 
ATOM     19  C   UNL     1       1.888   2.554  17.985  0.00  0.00    +0.000 C 
ATOM     20  C   UNL     1       0.739   2.192  18.929  0.00  0.00    +0.000 C 
ATOM     21  C   UNL     1       0.869   2.811  20.321  0.00  0.00    +0.000 C 
ATOM     22  C   UNL     1       1.208   4.301  20.265  0.00  0.00    +0.000 C 
ENDBRANCH  16  17
ENDBRANCH  15  16
ENDBRANCH   2  15
TORSDOF 5
ENDMDL
MODEL 4
REMARK VINA RESULT:      -7.1      1.335      1.802
REMARK  Name = 
REMARK  5 active torsions:
REMARK  status: ('A' for Active; 'I' for Inactive)
REMARK    1  A    between atoms: N_1  and  N_2
REMARK    2  A    between atoms: C_3  and  S_4
REMARK    3  A    between atoms: S_4  and  S_5
REMARK    4  A    between atoms: S_5  and  C_6
REMARK    5  A    between atoms: C_14  and  C_15
REMARK                            x       y       z     vdW  Elec       q    Type
REMARK                         _______ _______ _______ _____ _____    ______ ____
ROOT
ATOM      1  N   UNL     1       6.009   5.078  16.683  0.00  0.00    +0.000 N 
ATOM      2  C   UNL     1       5.350   5.953  17.516  0.00  0.00    +0.000 A 
ATOM      3  N   UNL     1       4.823   6.927  16.807  0.00  0.00    +0.000 NA
ATOM      4  N   UNL     1       5.096   6.673  15.483  0.00  0.00    +0.000 NA
ATOM      5  C   UNL     1       5.757   5.528  15.393  0.00  0.00    +0.000 A 
ENDROOT
BRANCH   5   6
ATOM      6  C   UNL     1       6.174   4.891  14.139  0.00  0.00    +0.000 A 
ATOM      7  C   UNL     1       5.365   3.897  13.565  0.00  0.00    +0.000 A 
ATOM      8  C   UNL     1       5.734   3.269  12.370  0.00  0.00    +0.000 A 
ATOM      9  C   UNL     1       6.923   3.625  11.738  0.00  0.00    +0.000 A 
ATOM     10  C   UNL     1       7.751   4.590  12.305  0.00  0.00    +0.000 A 
ATOM     11  C   UNL     1       7.382   5.213  13.501  0.00  0.00    +0.000 A 
ENDBRANCH   5   6
BRANCH   1  12
ATOM     12  N   UNL     1       6.870   3.985  17.071  0.00  0.00    +0.000 N 
ATOM     13  H   UNL     1       6.763   3.795  18.070  0.00  0.00    +0.000 HD
ATOM     14  H   UNL     1       7.849   4.252  16.959  0.00  0.00    +0.000 HD
ENDBRANCH   1  12
BRANCH   2  15
ATOM     15  S   UNL     1       5.204   5.797  19.235  0.00  0.00    +0.000 S 
BRANCH  15  16
ATOM     16  S   UNL     1       3.193   6.147  19.550  0.00  0.00    +0.000 S 
BRANCH  16  17
ATOM     17  C   UNL     1       2.440   4.483  19.470  0.00  0.00    +0.000 C 
ATOM     18  C   UNL     1       2.103   4.101  18.022  0.00  0.00    +0.000 C 
ATOM     19  C   UNL     1       1.793   2.603  17.968  0.00  0.00    +0.000 C 
ATOM     20  C   UNL     1       0.694   2.194  18.954  0.00  0.00    +0.000 C 
ATOM     21  C   UNL     1       0.880   2.774  20.357  0.00  0.00    +0.000 C 
ATOM     22  C   UNL     1       1.193   4.270  20.330  0.00  0.00    +0.000 C 
ENDBRANCH  16  17
ENDBRANCH  15  16
ENDBRANCH   2  15
TORSDOF 5
ENDMDL
MODEL 5
REMARK VINA RESULT:      -7.1      0.987      1.884
REMARK  Name = 
REMARK  5 active torsions:
REMARK  status: ('A' for Active; 'I' for Inactive)
REMARK    1  A    between atoms: N_1  and  N_2
REMARK    2  A    between atoms: C_3  and  S_4
REMARK    3  A    between atoms: S_4  and  S_5
REMARK    4  A    between atoms: S_5  and  C_6
REMARK    5  A    between atoms: C_14  and  C_15
REMARK                            x       y       z     vdW  Elec       q    Type
REMARK                         _______ _______ _______ _____ _____    ______ ____
ROOT
ATOM      1  N   UNL     1       5.888   4.712  16.715  0.00  0.00    +0.000 N 
ATOM      2  C   UNL     1       6.051   5.548  17.796  0.00  0.00    +0.000 A 
ATOM      3  N   UNL     1       6.928   6.483  17.504  0.00  0.00    +0.000 NA
ATOM      4  N   UNL     1       7.320   6.293  16.199  0.00  0.00    +0.000 NA
ATOM      5  C   UNL     1       6.652   5.266  15.695  0.00  0.00    +0.000 A 
ENDROOT
BRANCH   5   6
ATOM      6  C   UNL     1       6.754   4.792  14.310  0.00  0.00    +0.000 A 
ATOM      7  C   UNL     1       5.902   3.768  13.865  0.00  0.00    +0.000 A 
ATOM      8  C   UNL     1       5.972   3.292  12.551  0.00  0.00    +0.000 A 
ATOM      9  C   UNL     1       6.904   3.832  11.667  0.00  0.00    +0.000 A 
ATOM     10  C   UNL     1       7.774   4.830  12.098  0.00  0.00    +0.000 A 
ATOM     11  C   UNL     1       7.704   5.301  13.412  0.00  0.00    +0.000 A 
ENDBRANCH   5   6
BRANCH   1  12
ATOM     12  N   UNL     1       5.163   3.463  16.678  0.00  0.00    +0.000 N 
ATOM     13  H   UNL     1       4.892   3.247  15.716  0.00  0.00    +0.000 HD
ATOM     14  H   UNL     1       4.281   3.554  17.184  0.00  0.00    +0.000 HD
ENDBRANCH   1  12
BRANCH   2  15
ATOM     15  S   UNL     1       5.215   5.419  19.307  0.00  0.00    +0.000 S 
BRANCH  15  16
ATOM     16  S   UNL     1       3.360   6.209  18.866  0.00  0.00    +0.000 S 
BRANCH  16  17
ATOM     17  C   UNL     1       2.198   4.862  19.285  0.00  0.00    +0.000 C 
ATOM     18  C   UNL     1       2.605   4.171  20.593  0.00  0.00    +0.000 C 
ATOM     19  C   UNL     1       1.444   3.294  21.068  0.00  0.00    +0.000 C 
ATOM     20  C   UNL     1       0.982   2.300  19.999  0.00  0.00    +0.000 C 
ATOM     21  C   UNL     1       0.806   2.924  18.614  0.00  0.00    +0.000 C 
ATOM     22  C   UNL     1       2.000   3.790  18.212  0.00  0.00    +0.000 C 
ENDBRANCH  16  17
ENDBRANCH  15  16
ENDBRANCH   2  15
TORSDOF 5
ENDMDL
MODEL 6
REMARK VINA RESULT:      -7.1      1.168      1.659
REMARK  Name = 
REMARK  5 active torsions:
REMARK  status: ('A' for Active; 'I' for Inactive)
REMARK    1  A    between atoms: N_1  and  N_2
REMARK    2  A    between atoms: C_3  and  S_4
REMARK    3  A    between atoms: S_4  and  S_5
REMARK    4  A    between atoms: S_5  and  C_6
REMARK    5  A    between atoms: C_14  and  C_15
REMARK                            x       y       z     vdW  Elec       q    Type
REMARK                         _______ _______ _______ _____ _____    ______ ____
ROOT
ATOM      1  N   UNL     1       6.315   3.977  15.424  0.00  0.00    +0.000 N 
ATOM      2  C   UNL     1       6.944   4.963  16.150  0.00  0.00    +0.000 A 
ATOM      3  N   UNL     1       7.608   5.754  15.337  0.00  0.00    +0.000 NA
ATOM      4  N   UNL     1       7.383   5.316  14.053  0.00  0.00    +0.000 NA
ATOM      5  C   UNL     1       6.555   4.283  14.090  0.00  0.00    +0.000 A 
ENDROOT
BRANCH   5   6
ATOM      6  C   UNL     1       6.031   3.578  12.915  0.00  0.00    +0.000 A 
ATOM      7  C   UNL     1       4.722   3.838  12.478  0.00  0.00    +0.000 A 
ATOM      8  C   UNL     1       4.192   3.182  11.362  0.00  0.00    +0.000 A 
ATOM      9  C   UNL     1       4.965   2.251  10.672  0.00  0.00    +0.000 A 
ATOM     10  C   UNL     1       6.256   1.962  11.105  0.00  0.00    +0.000 A 
ATOM     11  C   UNL     1       6.782   2.615  12.223  0.00  0.00    +0.000 A 
ENDBRANCH   5   6
BRANCH   1  12
ATOM     12  N   UNL     1       5.639   2.809  15.941  0.00  0.00    +0.000 N 
ATOM     13  H   UNL     1       6.326   2.103  16.215  0.00  0.00    +0.000 HD
ATOM     14  H   UNL     1       5.089   2.367  15.204  0.00  0.00    +0.000 HD
ENDBRANCH   1  12
BRANCH   2  15
ATOM     15  S   UNL     1       6.860   5.163  17.868  0.00  0.00    +0.000 S 
BRANCH  15  16
ATOM     16  S   UNL     1       5.040   6.104  18.124  0.00  0.00    +0.000 S 
BRANCH  16  17
ATOM     17  C   UNL     1       3.825   4.742  18.031  0.00  0.00    +0.000 C 
ATOM     18  C   UNL     1       2.389   5.279  18.106  0.00  0.00    +0.000 C 
ATOM     19  C   UNL     1       1.424   4.164  17.696  0.00  0.00    +0.000 C 
ATOM     20  C   UNL     1       1.616   2.887  18.520  0.00  0.00    +0.000 C 
ATOM     21  C   UNL     1       3.079   2.466  18.668  0.00  0.00    +0.000 C 
ATOM     22  C   UNL     1       3.981   3.632  19.072  0.00  0.00    +0.000 C 
ENDBRANCH  16  17
ENDBRANCH  15  16
ENDBRANCH   2  15
TORSDOF 5
ENDMDL
MODEL 7
REMARK VINA RESULT:      -7.0      0.920      1.073
REMARK  Name = 
REMARK  5 active torsions:
REMARK  status: ('A' for Active; 'I' for Inactive)
REMARK    1  A    between atoms: N_1  and  N_2
REMARK    2  A    between atoms: C_3  and  S_4
REMARK    3  A    between atoms: S_4  and  S_5
REMARK    4  A    between atoms: S_5  and  C_6
REMARK    5  A    between atoms: C_14  and  C_15
REMARK                            x       y       z     vdW  Elec       q    Type
REMARK                         _______ _______ _______ _____ _____    ______ ____
ROOT
ATOM      1  N   UNL     1       6.262   4.130  15.681  0.00  0.00    +0.000 N 
ATOM      2  C   UNL     1       6.840   5.121  16.440  0.00  0.00    +0.000 A 
ATOM      3  N   UNL     1       7.562   5.904  15.669  0.00  0.00    +0.000 NA
ATOM      4  N   UNL     1       7.426   5.456  14.376  0.00  0.00    +0.000 NA
ATOM      5  C   UNL     1       6.594   4.424  14.364  0.00  0.00    +0.000 A 
ENDROOT
BRANCH   5   6
ATOM      6  C   UNL     1       6.153   3.710  13.161  0.00  0.00    +0.000 A 
ATOM      7  C   UNL     1       7.073   2.929  12.443  0.00  0.00    +0.000 A 
ATOM      8  C   UNL     1       6.685   2.236  11.291  0.00  0.00    +0.000 A 
ATOM      9  C   UNL     1       5.371   2.323  10.839  0.00  0.00    +0.000 A 
ATOM     10  C   UNL     1       4.451   3.113  11.523  0.00  0.00    +0.000 A 
ATOM     11  C   UNL     1       4.842   3.808  12.671  0.00  0.00    +0.000 A 
ENDBRANCH   5   6
BRANCH   1  12
ATOM     12  N   UNL     1       5.549   2.968  16.159  0.00  0.00    +0.000 N 
ATOM     13  H   UNL     1       4.667   3.254  16.592  0.00  0.00    +0.000 HD
ATOM     14  H   UNL     1       6.074   2.517  16.910  0.00  0.00    +0.000 HD
ENDBRANCH   1  12
BRANCH   2  15
ATOM     15  S   UNL     1       6.637   5.336  18.146  0.00  0.00    +0.000 S 
BRANCH  15  16
ATOM     16  S   UNL     1       4.699   6.034  18.286  0.00  0.00    +0.000 S 
BRANCH  16  17
ATOM     17  C   UNL     1       3.690   4.513  18.376  0.00  0.00    +0.000 C 
ATOM     18  C   UNL     1       2.207   4.849  18.588  0.00  0.00    +0.000 C 
ATOM     19  C   UNL     1       1.376   3.590  18.328  0.00  0.00    +0.000 C 
ATOM     20  C   UNL     1       1.833   2.397  19.172  0.00  0.00    +0.000 C 
ATOM     21  C   UNL     1       3.349   2.192  19.175  0.00  0.00    +0.000 C 
ATOM     22  C   UNL     1       4.111   3.491  19.435  0.00  0.00    +0.000 C 
ENDBRANCH  16  17
ENDBRANCH  15  16
ENDBRANCH   2  15
TORSDOF 5
ENDMDL
MODEL 8
REMARK VINA RESULT:      -7.0      0.975      1.745
REMARK  Name = 
REMARK  5 active torsions:
REMARK  status: ('A' for Active; 'I' for Inactive)
REMARK    1  A    between atoms: N_1  and  N_2
REMARK    2  A    between atoms: C_3  and  S_4
REMARK    3  A    between atoms: S_4  and  S_5
REMARK    4  A    between atoms: S_5  and  C_6
REMARK    5  A    between atoms: C_14  and  C_15
REMARK                            x       y       z     vdW  Elec       q    Type
REMARK                         _______ _______ _______ _____ _____    ______ ____
ROOT
ATOM      1  N   UNL     1       6.216   4.091  15.637  0.00  0.00    +0.000 N 
ATOM      2  C   UNL     1       6.815   5.069  16.397  0.00  0.00    +0.000 A 
ATOM      3  N   UNL     1       7.563   5.830  15.628  0.00  0.00    +0.000 NA
ATOM      4  N   UNL     1       7.425   5.379  14.336  0.00  0.00    +0.000 NA
ATOM      5  C   UNL     1       6.566   4.370  14.322  0.00  0.00    +0.000 A 
ENDROOT
BRANCH   5   6
ATOM      6  C   UNL     1       6.115   3.663  13.118  0.00  0.00    +0.000 A 
ATOM      7  C   UNL     1       4.790   3.818  12.681  0.00  0.00    +0.000 A 
ATOM      8  C   UNL     1       4.327   3.157  11.538  0.00  0.00    +0.000 A 
ATOM      9  C   UNL     1       5.185   2.327  10.821  0.00  0.00    +0.000 A 
ATOM     10  C   UNL     1       6.495   2.141  11.253  0.00  0.00    +0.000 A 
ATOM     11  C   UNL     1       6.954   2.800  12.398  0.00  0.00    +0.000 A 
ENDBRANCH   5   6
BRANCH   1  12
ATOM     12  N   UNL     1       5.468   2.950  16.114  0.00  0.00    +0.000 N 
ATOM     13  H   UNL     1       6.052   2.111  16.075  0.00  0.00    +0.000 HD
ATOM     14  H   UNL     1       4.687   2.754  15.487  0.00  0.00    +0.000 HD
ENDBRANCH   1  12
BRANCH   2  15
ATOM     15  S   UNL     1       6.604   5.296  18.101  0.00  0.00    +0.000 S 
BRANCH  15  16
ATOM     16  S   UNL     1       4.727   6.149  18.213  0.00  0.00    +0.000 S 
BRANCH  16  17
ATOM     17  C   UNL     1       3.663   4.791  18.816  0.00  0.00    +0.000 C 
ATOM     18  C   UNL     1       4.505   3.582  19.245  0.00  0.00    +0.000 C 
ATOM     19  C   UNL     1       3.615   2.620  20.038  0.00  0.00    +0.000 C 
ATOM     20  C   UNL     1       2.355   2.214  19.268  0.00  0.00    +0.000 C 
ATOM     21  C   UNL     1       1.628   3.390  18.615  0.00  0.00    +0.000 C 
ATOM     22  C   UNL     1       2.580   4.309  17.849  0.00  0.00    +0.000 C 
ENDBRANCH  16  17
ENDBRANCH  15  16
ENDBRANCH   2  15
TORSDOF 5
ENDMDL
MODEL 9
REMARK VINA RESULT:      -6.9      0.961      1.395
REMARK  Name = 
REMARK  5 active torsions:
REMARK  status: ('A' for Active; 'I' for Inactive)
REMARK    1  A    between atoms: N_1  and  N_2
REMARK    2  A    between atoms: C_3  and  S_4
REMARK    3  A    between atoms: S_4  and  S_5
REMARK    4  A    between atoms: S_5  and  C_6
REMARK    5  A    between atoms: C_14  and  C_15
REMARK                            x       y       z     vdW  Elec       q    Type
REMARK                         _______ _______ _______ _____ _____    ______ ____
ROOT
ATOM      1  N   UNL     1       6.219   4.104  15.659  0.00  0.00    +0.000 N 
ATOM      2  C   UNL     1       6.808   5.088  16.420  0.00  0.00    +0.000 A 
ATOM      3  N   UNL     1       7.548   5.857  15.653  0.00  0.00    +0.000 NA
ATOM      4  N   UNL     1       7.415   5.407  14.360  0.00  0.00    +0.000 NA
ATOM      5  C   UNL     1       6.567   4.389  14.344  0.00  0.00    +0.000 A 
ENDROOT
BRANCH   5   6
ATOM      6  C   UNL     1       6.123   3.680  13.139  0.00  0.00    +0.000 A 
ATOM      7  C   UNL     1       7.046   2.915  12.407  0.00  0.00    +0.000 A 
ATOM      8  C   UNL     1       6.656   2.227  11.253  0.00  0.00    +0.000 A 
ATOM      9  C   UNL     1       5.336   2.302  10.813  0.00  0.00    +0.000 A 
ATOM     10  C   UNL     1       4.414   3.076  11.511  0.00  0.00    +0.000 A 
ATOM     11  C   UNL     1       4.806   3.765  12.662  0.00  0.00    +0.000 A 
ENDBRANCH   5   6
BRANCH   1  12
ATOM     12  N   UNL     1       5.483   2.955  16.134  0.00  0.00    +0.000 N 
ATOM     13  H   UNL     1       4.489   3.187  16.212  0.00  0.00    +0.000 HD
ATOM     14  H   UNL     1       5.772   2.722  17.085  0.00  0.00    +0.000 HD
ENDBRANCH   1  12
BRANCH   2  15
ATOM     15  S   UNL     1       6.595   5.310  18.124  0.00  0.00    +0.000 S 
BRANCH  15  16
ATOM     16  S   UNL     1       4.724   6.177  18.236  0.00  0.00    +0.000 S 
BRANCH  16  17
ATOM     17  C   UNL     1       3.640   4.812  18.785  0.00  0.00    +0.000 C 
ATOM     18  C   UNL     1       4.467   3.623  19.294  0.00  0.00    +0.000 C 
ATOM     19  C   UNL     1       3.538   2.660  20.039  0.00  0.00    +0.000 C 
ATOM     20  C   UNL     1       2.342   2.221  19.190  0.00  0.00    +0.000 C 
ATOM     21  C   UNL     1       1.645   3.375  18.466  0.00  0.00    +0.000 C 
ATOM     22  C   UNL     1       2.635   4.296  17.753  0.00  0.00    +0.000 C 
ENDBRANCH  16  17
ENDBRANCH  15  16
ENDBRANCH   2  15
TORSDOF 5
ENDMDL
