MODEL 1
REMARK VINA RESULT:      -8.3      0.000      0.000
REMARK  Name = 
REMARK  5 active torsions:
REMARK  status: ('A' for Active; 'I' for Inactive)
REMARK    1  A    between atoms: C_1  and  O_2
REMARK    2  A    between atoms: O_2  and  N_3
REMARK    3  A    between atoms: C_4  and  C_5
REMARK    4  A    between atoms: C_11  and  N_12
REMARK    5  A    between atoms: N_12  and  C_13
REMARK                            x       y       z     vdW  Elec       q    Type
REMARK                         _______ _______ _______ _____ _____    ______ ____
ROOT
ATOM      1  C   UNL     1       6.335   4.359  15.476  0.00  0.00    +0.000 A 
ATOM      2  C   UNL     1       7.289   5.369  15.366  0.00  0.00    +0.000 A 
ATOM      3  N   UNL     1       8.021   5.610  14.200  0.00  0.00    +0.000 N 
ATOM      4  N   UNL     1       7.574   6.215  16.366  0.00  0.00    +0.000 NA
ATOM      5  C   UNL     1       6.908   6.021  17.508  0.00  0.00    +0.000 A 
ATOM      6  N   UNL     1       6.013   5.056  17.740  0.00  0.00    +0.000 NA
ATOM      7  C   UNL     1       5.709   4.230  16.716  0.00  0.00    +0.000 A 
ATOM      8  H   UNL     1       8.540   4.795  13.889  0.00  0.00    +0.000 HD
ATOM      9  H   UNL     1       8.654   6.382  14.400  0.00  0.00    +0.000 HD
ENDROOT
BRANCH   1  11
ATOM     10  N   UNL     1       5.507   3.963  13.213  0.00  0.00    +0.000 NA
ATOM     11  C   UNL     1       6.036   3.513  14.310  0.00  0.00    +0.000 C 
BRANCH  10  13
ATOM     12  C   UNL     1       4.325   3.179  11.400  0.00  0.00    +0.000 C 
ATOM     13  O   UNL     1       5.363   2.884  12.325  0.00  0.00    +0.000 OA
ENDBRANCH  10  13
ENDBRANCH   1  11
BRANCH   7  14
ATOM     14  N   UNL     1       4.767   3.213  16.953  0.00  0.00    +0.000 N 
ATOM     15  H   UNL     1       5.038   2.312  16.563  0.00  0.00    +0.000 HD
BRANCH  14  16
ATOM     16  C   UNL     1       3.681   3.166  17.848  0.00  0.00    +0.000 A 
ATOM     17  C   UNL     1       2.364   3.445  17.457  0.00  0.00    +0.000 A 
ATOM     18  C   UNL     1       1.296   3.449  18.366  0.00  0.00    +0.000 A 
ATOM     19  C   UNL     1       1.594   3.127  19.690  0.00  0.00    +0.000 A 
ATOM     20  N   UNL     1       0.814   3.073  20.816  0.00  0.00    +0.000 N 
ATOM     21  N   UNL     1       1.473   2.680  21.922  0.00  0.00    +0.000 NA
ATOM     22  C   UNL     1       2.722   2.493  21.487  0.00  0.00    +0.000 A 
ATOM     23  C   UNL     1       2.870   2.778  20.111  0.00  0.00    +0.000 A 
ATOM     24  C   UNL     1       3.925   2.784  19.180  0.00  0.00    +0.000 A 
ATOM     25  H   UNL     1      -0.171   3.296  20.896  0.00  0.00    +0.000 HD
ENDBRANCH  14  16
ENDBRANCH   7  14
TORSDOF 4
ENDMDL
MODEL 2
REMARK VINA RESULT:      -8.0      4.523      6.514
REMARK  Name = 
REMARK  5 active torsions:
REMARK  status: ('A' for Active; 'I' for Inactive)
REMARK    1  A    between atoms: C_1  and  O_2
REMARK    2  A    between atoms: O_2  and  N_3
REMARK    3  A    between atoms: C_4  and  C_5
REMARK    4  A    between atoms: C_11  and  N_12
REMARK    5  A    between atoms: N_12  and  C_13
REMARK                            x       y       z     vdW  Elec       q    Type
REMARK                         _______ _______ _______ _____ _____    ______ ____
ROOT
ATOM      1  C   UNL     1       3.387   3.902  19.314  0.00  0.00    +0.000 A 
ATOM      2  C   UNL     1       2.979   2.588  19.097  0.00  0.00    +0.000 A 
ATOM      3  N   UNL     1       3.724   1.665  18.356  0.00  0.00    +0.000 N 
ATOM      4  N   UNL     1       1.843   2.084  19.598  0.00  0.00    +0.000 NA
ATOM      5  C   UNL     1       1.087   2.929  20.306  0.00  0.00    +0.000 A 
ATOM      6  N   UNL     1       1.355   4.218  20.533  0.00  0.00    +0.000 NA
ATOM      7  C   UNL     1       2.518   4.707  20.052  0.00  0.00    +0.000 A 
ATOM      8  H   UNL     1       3.916   1.985  17.413  0.00  0.00    +0.000 HD
ATOM      9  H   UNL     1       3.191   0.797  18.338  0.00  0.00    +0.000 HD
ENDROOT
BRANCH   1  11
ATOM     10  N   UNL     1       5.827   3.925  19.210  0.00  0.00    +0.000 NA
ATOM     11  C   UNL     1       4.680   4.359  18.782  0.00  0.00    +0.000 C 
BRANCH  10  13
ATOM     12  C   UNL     1       7.288   5.704  19.220  0.00  0.00    +0.000 C 
ATOM     13  O   UNL     1       6.837   4.575  18.483  0.00  0.00    +0.000 OA
ENDBRANCH  10  13
ENDBRANCH   1  11
BRANCH   7  14
ATOM     14  N   UNL     1       2.806   6.063  20.289  0.00  0.00    +0.000 N 
ATOM     15  H   UNL     1       3.647   6.205  20.847  0.00  0.00    +0.000 HD
BRANCH  14  16
ATOM     16  C   UNL     1       2.302   7.224  19.674  0.00  0.00    +0.000 A 
ATOM     17  C   UNL     1       2.515   7.516  18.319  0.00  0.00    +0.000 A 
ATOM     18  C   UNL     1       2.055   8.702  17.727  0.00  0.00    +0.000 A 
ATOM     19  C   UNL     1       1.338   9.577  18.542  0.00  0.00    +0.000 A 
ATOM     20  N   UNL     1       0.789  10.810  18.300  0.00  0.00    +0.000 N 
ATOM     21  N   UNL     1       0.132  11.334  19.351  0.00  0.00    +0.000 NA
ATOM     22  C   UNL     1       0.282  10.408  20.302  0.00  0.00    +0.000 A 
ATOM     23  C   UNL     1       1.043   9.300  19.870  0.00  0.00    +0.000 A 
ATOM     24  C   UNL     1       1.518   8.104  20.442  0.00  0.00    +0.000 A 
ATOM     25  H   UNL     1       0.832  11.348  17.443  0.00  0.00    +0.000 HD
ENDBRANCH  14  16
ENDBRANCH   7  14
TORSDOF 4
ENDMDL
MODEL 3
REMARK VINA RESULT:      -7.9      4.485      6.062
REMARK  Name = 
REMARK  5 active torsions:
REMARK  status: ('A' for Active; 'I' for Inactive)
REMARK    1  A    between atoms: C_1  and  O_2
REMARK    2  A    between atoms: O_2  and  N_3
REMARK    3  A    between atoms: C_4  and  C_5
REMARK    4  A    between atoms: C_11  and  N_12
REMARK    5  A    between atoms: N_12  and  C_13
REMARK                            x       y       z     vdW  Elec       q    Type
REMARK                         _______ _______ _______ _____ _____    ______ ____
ROOT
ATOM      1  C   UNL     1       3.971   4.172  19.038  0.00  0.00    +0.000 A 
ATOM      2  C   UNL     1       3.826   2.811  19.300  0.00  0.00    +0.000 A 
ATOM      3  N   UNL     1       4.780   2.056  19.989  0.00  0.00    +0.000 N 
ATOM      4  N   UNL     1       2.746   2.108  18.931  0.00  0.00    +0.000 NA
ATOM      5  C   UNL     1       1.808   2.782  18.259  0.00  0.00    +0.000 A 
ATOM      6  N   UNL     1       1.865   4.070  17.911  0.00  0.00    +0.000 NA
ATOM      7  C   UNL     1       2.942   4.777  18.315  0.00  0.00    +0.000 A 
ATOM      8  H   UNL     1       5.695   2.091  19.552  0.00  0.00    +0.000 HD
ATOM      9  H   UNL     1       4.435   1.098  20.021  0.00  0.00    +0.000 HD
ENDROOT
BRANCH   1  11
ATOM     10  N   UNL     1       6.360   4.676  19.084  0.00  0.00    +0.000 NA
ATOM     11  C   UNL     1       5.159   4.884  19.533  0.00  0.00    +0.000 C 
BRANCH  10  13
ATOM     12  C   UNL     1       8.011   6.263  18.846  0.00  0.00    +0.000 C 
ATOM     13  O   UNL     1       7.237   5.523  19.781  0.00  0.00    +0.000 OA
ENDBRANCH  10  13
ENDBRANCH   1  11
BRANCH   7  14
ATOM     14  N   UNL     1       3.008   6.134  17.953  0.00  0.00    +0.000 N 
ATOM     15  H   UNL     1       3.378   6.284  17.016  0.00  0.00    +0.000 HD
BRANCH  14  16
ATOM     16  C   UNL     1       2.410   7.265  18.539  0.00  0.00    +0.000 A 
ATOM     17  C   UNL     1       2.070   8.410  17.804  0.00  0.00    +0.000 A 
ATOM     18  C   UNL     1       1.524   9.553  18.406  0.00  0.00    +0.000 A 
ATOM     19  C   UNL     1       1.297   9.495  19.782  0.00  0.00    +0.000 A 
ATOM     20  N   UNL     1       0.820  10.423  20.670  0.00  0.00    +0.000 N 
ATOM     21  N   UNL     1       0.712   9.969  21.932  0.00  0.00    +0.000 NA
ATOM     22  C   UNL     1       1.151   8.711  21.847  0.00  0.00    +0.000 A 
ATOM     23  C   UNL     1       1.554   8.360  20.539  0.00  0.00    +0.000 A 
ATOM     24  C   UNL     1       2.104   7.227  19.912  0.00  0.00    +0.000 A 
ATOM     25  H   UNL     1       0.557  11.383  20.479  0.00  0.00    +0.000 HD
ENDBRANCH  14  16
ENDBRANCH   7  14
TORSDOF 4
ENDMDL
MODEL 4
REMARK VINA RESULT:      -7.9      4.530      6.245
REMARK  Name = 
REMARK  5 active torsions:
REMARK  status: ('A' for Active; 'I' for Inactive)
REMARK    1  A    between atoms: C_1  and  O_2
REMARK    2  A    between atoms: O_2  and  N_3
REMARK    3  A    between atoms: C_4  and  C_5
REMARK    4  A    between atoms: C_11  and  N_12
REMARK    5  A    between atoms: N_12  and  C_13
REMARK                            x       y       z     vdW  Elec       q    Type
REMARK                         _______ _______ _______ _____ _____    ______ ____
ROOT
ATOM      1  C   UNL     1       4.013   3.931  18.865  0.00  0.00    +0.000 A 
ATOM      2  C   UNL     1       3.973   2.551  19.049  0.00  0.00    +0.000 A 
ATOM      3  N   UNL     1       4.971   1.836  19.718  0.00  0.00    +0.000 N 
ATOM      4  N   UNL     1       2.959   1.787  18.619  0.00  0.00    +0.000 NA
ATOM      5  C   UNL     1       1.982   2.421  17.964  0.00  0.00    +0.000 A 
ATOM      6  N   UNL     1       1.943   3.727  17.686  0.00  0.00    +0.000 NA
ATOM      7  C   UNL     1       2.952   4.493  18.153  0.00  0.00    +0.000 A 
ATOM      8  H   UNL     1       5.888   1.967  19.305  0.00  0.00    +0.000 HD
ATOM      9  H   UNL     1       4.703   0.854  19.691  0.00  0.00    +0.000 HD
ENDROOT
BRANCH   1  11
ATOM     10  N   UNL     1       6.377   4.477  19.140  0.00  0.00    +0.000 NA
ATOM     11  C   UNL     1       5.131   4.707  19.424  0.00  0.00    +0.000 C 
BRANCH  10  13
ATOM     12  C   UNL     1       7.892   6.198  18.927  0.00  0.00    +0.000 C 
ATOM     13  O   UNL     1       7.162   5.400  19.851  0.00  0.00    +0.000 OA
ENDBRANCH  10  13
ENDBRANCH   1  11
BRANCH   7  14
ATOM     14  N   UNL     1       2.916   5.869  17.866  0.00  0.00    +0.000 N 
ATOM     15  H   UNL     1       3.129   6.084  16.893  0.00  0.00    +0.000 HD
BRANCH  14  16
ATOM     16  C   UNL     1       2.382   6.942  18.604  0.00  0.00    +0.000 A 
ATOM     17  C   UNL     1       2.107   6.854  19.976  0.00  0.00    +0.000 A 
ATOM     18  C   UNL     1       1.524   7.909  20.693  0.00  0.00    +0.000 A 
ATOM     19  C   UNL     1       1.254   9.080  19.984  0.00  0.00    +0.000 A 
ATOM     20  N   UNL     1       0.669  10.262  20.358  0.00  0.00    +0.000 N 
ATOM     21  N   UNL     1       0.616  11.183  19.379  0.00  0.00    +0.000 NA
ATOM     22  C   UNL     1       1.174  10.559  18.338  0.00  0.00    +0.000 A 
ATOM     23  C   UNL     1       1.570   9.238  18.642  0.00  0.00    +0.000 A 
ATOM     24  C   UNL     1       2.153   8.163  17.944  0.00  0.00    +0.000 A 
ATOM     25  H   UNL     1       0.281  10.499  21.264  0.00  0.00    +0.000 HD
ENDBRANCH  14  16
ENDBRANCH   7  14
TORSDOF 4
ENDMDL
MODEL 5
REMARK VINA RESULT:      -7.8      2.778      7.048
REMARK  Name = 
REMARK  5 active torsions:
REMARK  status: ('A' for Active; 'I' for Inactive)
REMARK    1  A    between atoms: C_1  and  O_2
REMARK    2  A    between atoms: O_2  and  N_3
REMARK    3  A    between atoms: C_4  and  C_5
REMARK    4  A    between atoms: C_11  and  N_12
REMARK    5  A    between atoms: N_12  and  C_13
REMARK                            x       y       z     vdW  Elec       q    Type
REMARK                         _______ _______ _______ _____ _____    ______ ____
ROOT
ATOM      1  C   UNL     1       3.124   2.557  19.838  0.00  0.00    +0.000 A 
ATOM      2  C   UNL     1       1.948   2.668  20.578  0.00  0.00    +0.000 A 
ATOM      3  N   UNL     1       1.889   2.469  21.960  0.00  0.00    +0.000 N 
ATOM      4  N   UNL     1       0.770   2.997  20.030  0.00  0.00    +0.000 NA
ATOM      5  C   UNL     1       0.770   3.188  18.707  0.00  0.00    +0.000 A 
ATOM      6  N   UNL     1       1.823   3.059  17.896  0.00  0.00    +0.000 NA
ATOM      7  C   UNL     1       3.012   2.760  18.462  0.00  0.00    +0.000 A 
ATOM      8  H   UNL     1       2.227   1.553  22.238  0.00  0.00    +0.000 HD
ATOM      9  H   UNL     1       0.916   2.590  22.237  0.00  0.00    +0.000 HD
ENDROOT
BRANCH   1  11
ATOM     10  N   UNL     1       4.529   1.282  21.376  0.00  0.00    +0.000 NA
ATOM     11  C   UNL     1       4.389   2.254  20.527  0.00  0.00    +0.000 C 
BRANCH  10  13
ATOM     12  C   UNL     1       6.228  -0.026  22.214  0.00  0.00    +0.000 C 
ATOM     13  O   UNL     1       5.858   1.292  21.832  0.00  0.00    +0.000 OA
ENDBRANCH  10  13
ENDBRANCH   1  11
BRANCH   7  14
ATOM     14  N   UNL     1       4.126   2.624  17.614  0.00  0.00    +0.000 N 
ATOM     15  H   UNL     1       4.161   1.725  17.135  0.00  0.00    +0.000 HD
BRANCH  14  16
ATOM     16  C   UNL     1       5.019   3.592  17.119  0.00  0.00    +0.000 A 
ATOM     17  C   UNL     1       5.659   3.469  15.878  0.00  0.00    +0.000 A 
ATOM     18  C   UNL     1       6.589   4.412  15.417  0.00  0.00    +0.000 A 
ATOM     19  C   UNL     1       6.832   5.513  16.239  0.00  0.00    +0.000 A 
ATOM     20  N   UNL     1       7.686   6.577  16.113  0.00  0.00    +0.000 N 
ATOM     21  N   UNL     1       7.606   7.467  17.119  0.00  0.00    +0.000 NA
ATOM     22  C   UNL     1       6.678   6.942  17.923  0.00  0.00    +0.000 A 
ATOM     23  C   UNL     1       6.173   5.712  17.444  0.00  0.00    +0.000 A 
ATOM     24  C   UNL     1       5.246   4.750  17.886  0.00  0.00    +0.000 A 
ATOM     25  H   UNL     1       8.352   6.751  15.369  0.00  0.00    +0.000 HD
ENDBRANCH  14  16
ENDBRANCH   7  14
TORSDOF 4
ENDMDL
MODEL 6
REMARK VINA RESULT:      -7.8      2.439      3.439
REMARK  Name = 
REMARK  5 active torsions:
REMARK  status: ('A' for Active; 'I' for Inactive)
REMARK    1  A    between atoms: C_1  and  O_2
REMARK    2  A    between atoms: O_2  and  N_3
REMARK    3  A    between atoms: C_4  and  C_5
REMARK    4  A    between atoms: C_11  and  N_12
REMARK    5  A    between atoms: N_12  and  C_13
REMARK                            x       y       z     vdW  Elec       q    Type
REMARK                         _______ _______ _______ _____ _____    ______ ____
ROOT
ATOM      1  C   UNL     1       5.180   5.763  17.007  0.00  0.00    +0.000 A 
ATOM      2  C   UNL     1       6.423   6.355  16.792  0.00  0.00    +0.000 A 
ATOM      3  N   UNL     1       6.753   7.634  17.249  0.00  0.00    +0.000 N 
ATOM      4  N   UNL     1       7.421   5.739  16.145  0.00  0.00    +0.000 NA
ATOM      5  C   UNL     1       7.153   4.517  15.677  0.00  0.00    +0.000 A 
ATOM      6  N   UNL     1       5.986   3.876  15.781  0.00  0.00    +0.000 NA
ATOM      7  C   UNL     1       4.996   4.491  16.464  0.00  0.00    +0.000 A 
ATOM      8  H   UNL     1       6.118   8.348  16.908  0.00  0.00    +0.000 HD
ATOM      9  H   UNL     1       7.705   7.824  16.940  0.00  0.00    +0.000 HD
ENDROOT
BRANCH   1  11
ATOM     10  N   UNL     1       3.513   7.517  17.339  0.00  0.00    +0.000 NA
ATOM     11  C   UNL     1       4.158   6.482  17.785  0.00  0.00    +0.000 C 
BRANCH  10  13
ATOM     12  C   UNL     1       2.516   6.922  19.327  0.00  0.00    +0.000 C 
ATOM     13  O   UNL     1       2.626   7.941  18.342  0.00  0.00    +0.000 OA
ENDBRANCH  10  13
ENDBRANCH   1  11
BRANCH   7  14
ATOM     14  N   UNL     1       3.765   3.821  16.579  0.00  0.00    +0.000 N 
ATOM     15  H   UNL     1       3.529   3.268  15.756  0.00  0.00    +0.000 HD
BRANCH  14  16
ATOM     16  C   UNL     1       2.963   3.572  17.708  0.00  0.00    +0.000 A 
ATOM     17  C   UNL     1       1.571   3.729  17.698  0.00  0.00    +0.000 A 
ATOM     18  C   UNL     1       0.785   3.531  18.844  0.00  0.00    +0.000 A 
ATOM     19  C   UNL     1       1.451   3.133  20.004  0.00  0.00    +0.000 A 
ATOM     20  N   UNL     1       1.004   2.892  21.277  0.00  0.00    +0.000 N 
ATOM     21  N   UNL     1       1.964   2.486  22.128  0.00  0.00    +0.000 NA
ATOM     22  C   UNL     1       3.065   2.482  21.371  0.00  0.00    +0.000 A 
ATOM     23  C   UNL     1       2.818   2.899  20.044  0.00  0.00    +0.000 A 
ATOM     24  C   UNL     1       3.584   3.108  18.882  0.00  0.00    +0.000 A 
ATOM     25  H   UNL     1       0.059   2.993  21.630  0.00  0.00    +0.000 HD
ENDBRANCH  14  16
ENDBRANCH   7  14
TORSDOF 4
ENDMDL
MODEL 7
REMARK VINA RESULT:      -7.8      2.673      7.245
REMARK  Name = 
REMARK  5 active torsions:
REMARK  status: ('A' for Active; 'I' for Inactive)
REMARK    1  A    between atoms: C_1  and  O_2
REMARK    2  A    between atoms: O_2  and  N_3
REMARK    3  A    between atoms: C_4  and  C_5
REMARK    4  A    between atoms: C_11  and  N_12
REMARK    5  A    between atoms: N_12  and  C_13
REMARK                            x       y       z     vdW  Elec       q    Type
REMARK                         _______ _______ _______ _____ _____    ______ ____
ROOT
ATOM      1  C   UNL     1       2.885   2.552  20.096  0.00  0.00    +0.000 A 
ATOM      2  C   UNL     1       1.638   2.748  20.687  0.00  0.00    +0.000 A 
ATOM      3  N   UNL     1       1.414   2.635  22.062  0.00  0.00    +0.000 N 
ATOM      4  N   UNL     1       0.545   3.086  19.989  0.00  0.00    +0.000 NA
ATOM      5  C   UNL     1       0.703   3.198  18.667  0.00  0.00    +0.000 A 
ATOM      6  N   UNL     1       1.836   2.983  17.991  0.00  0.00    +0.000 NA
ATOM      7  C   UNL     1       2.939   2.676  18.707  0.00  0.00    +0.000 A 
ATOM      8  H   UNL     1       1.679   1.726  22.428  0.00  0.00    +0.000 HD
ATOM      9  H   UNL     1       0.422   2.807  22.218  0.00  0.00    +0.000 HD
ENDROOT
BRANCH   1  11
ATOM     10  N   UNL     1       4.946   1.358  20.635  0.00  0.00    +0.000 NA
ATOM     11  C   UNL     1       4.049   2.246  20.942  0.00  0.00    +0.000 C 
BRANCH  10  13
ATOM     12  C   UNL     1       6.075  -0.009  22.104  0.00  0.00    +0.000 C 
ATOM     13  O   UNL     1       5.901   1.332  21.665  0.00  0.00    +0.000 OA
ENDBRANCH  10  13
ENDBRANCH   1  11
BRANCH   7  14
ATOM     14  N   UNL     1       4.135   2.449  18.003  0.00  0.00    +0.000 N 
ATOM     15  H   UNL     1       4.226   1.494  17.660  0.00  0.00    +0.000 HD
BRANCH  14  16
ATOM     16  C   UNL     1       5.066   3.360  17.470  0.00  0.00    +0.000 A 
ATOM     17  C   UNL     1       5.699   4.339  18.250  0.00  0.00    +0.000 A 
ATOM     18  C   UNL     1       6.585   5.278  17.700  0.00  0.00    +0.000 A 
ATOM     19  C   UNL     1       6.842   5.178  16.333  0.00  0.00    +0.000 A 
ATOM     20  N   UNL     1       7.611   5.936  15.489  0.00  0.00    +0.000 N 
ATOM     21  N   UNL     1       7.633   5.492  14.219  0.00  0.00    +0.000 NA
ATOM     22  C   UNL     1       6.837   4.420  14.253  0.00  0.00    +0.000 A 
ATOM     23  C   UNL     1       6.293   4.184  15.534  0.00  0.00    +0.000 A 
ATOM     24  C   UNL     1       5.405   3.255  16.109  0.00  0.00    +0.000 A 
ATOM     25  H   UNL     1       8.139   6.771  15.717  0.00  0.00    +0.000 HD
ENDBRANCH  14  16
ENDBRANCH   7  14
TORSDOF 4
ENDMDL
MODEL 8
REMARK VINA RESULT:      -7.6      4.486      6.309
REMARK  Name = 
REMARK  5 active torsions:
REMARK  status: ('A' for Active; 'I' for Inactive)
REMARK    1  A    between atoms: C_1  and  O_2
REMARK    2  A    between atoms: O_2  and  N_3
REMARK    3  A    between atoms: C_4  and  C_5
REMARK    4  A    between atoms: C_11  and  N_12
REMARK    5  A    between atoms: N_12  and  C_13
REMARK                            x       y       z     vdW  Elec       q    Type
REMARK                         _______ _______ _______ _____ _____    ______ ____
ROOT
ATOM      1  C   UNL     1       2.973   3.931  19.032  0.00  0.00    +0.000 A 
ATOM      2  C   UNL     1       2.445   2.642  19.063  0.00  0.00    +0.000 A 
ATOM      3  N   UNL     1       2.771   1.656  18.126  0.00  0.00    +0.000 N 
ATOM      4  N   UNL     1       1.593   2.226  20.009  0.00  0.00    +0.000 NA
ATOM      5  C   UNL     1       1.241   3.134  20.924  0.00  0.00    +0.000 A 
ATOM      6  N   UNL     1       1.643   4.407  20.961  0.00  0.00    +0.000 NA
ATOM      7  C   UNL     1       2.528   4.807  20.022  0.00  0.00    +0.000 A 
ATOM      8  H   UNL     1       2.573   1.942  17.173  0.00  0.00    +0.000 HD
ATOM      9  H   UNL     1       2.234   0.825  18.370  0.00  0.00    +0.000 HD
ENDROOT
BRANCH   1  11
ATOM     10  N   UNL     1       5.060   4.923  18.240  0.00  0.00    +0.000 NA
ATOM     11  C   UNL     1       3.953   4.290  17.994  0.00  0.00    +0.000 C 
BRANCH  10  13
ATOM     12  C   UNL     1       5.110   6.129  16.280  0.00  0.00    +0.000 C 
ATOM     13  O   UNL     1       5.741   5.095  17.025  0.00  0.00    +0.000 OA
ENDBRANCH  10  13
ENDBRANCH   1  11
BRANCH   7  14
ATOM     14  N   UNL     1       2.957   6.146  20.056  0.00  0.00    +0.000 N 
ATOM     15  H   UNL     1       3.935   6.250  20.321  0.00  0.00    +0.000 HD
BRANCH  14  16
ATOM     16  C   UNL     1       2.360   7.309  19.533  0.00  0.00    +0.000 A 
ATOM     17  C   UNL     1       2.483   7.685  18.188  0.00  0.00    +0.000 A 
ATOM     18  C   UNL     1       1.930   8.873  17.688  0.00  0.00    +0.000 A 
ATOM     19  C   UNL     1       1.213   9.663  18.587  0.00  0.00    +0.000 A 
ATOM     20  N   UNL     1       0.587  10.874  18.444  0.00  0.00    +0.000 N 
ATOM     21  N   UNL     1      -0.038  11.304  19.555  0.00  0.00    +0.000 NA
ATOM     22  C   UNL     1       0.211  10.337  20.442  0.00  0.00    +0.000 A 
ATOM     23  C   UNL     1       1.006   9.298  19.910  0.00  0.00    +0.000 A 
ATOM     24  C   UNL     1       1.573   8.102  20.389  0.00  0.00    +0.000 A 
ATOM     25  H   UNL     1       0.556  11.459  17.617  0.00  0.00    +0.000 HD
ENDBRANCH  14  16
ENDBRANCH   7  14
TORSDOF 4
ENDMDL
MODEL 9
REMARK VINA RESULT:      -7.6      4.468      5.944
REMARK  Name = 
REMARK  5 active torsions:
REMARK  status: ('A' for Active; 'I' for Inactive)
REMARK    1  A    between atoms: C_1  and  O_2
REMARK    2  A    between atoms: O_2  and  N_3
REMARK    3  A    between atoms: C_4  and  C_5
REMARK    4  A    between atoms: C_11  and  N_12
REMARK    5  A    between atoms: N_12  and  C_13
REMARK                            x       y       z     vdW  Elec       q    Type
REMARK                         _______ _______ _______ _____ _____    ______ ____
ROOT
ATOM      1  C   UNL     1       3.818   3.899  18.300  0.00  0.00    +0.000 A 
ATOM      2  C   UNL     1       3.338   2.597  18.170  0.00  0.00    +0.000 A 
ATOM      3  N   UNL     1       4.161   1.497  17.910  0.00  0.00    +0.000 N 
ATOM      4  N   UNL     1       2.043   2.281  18.304  0.00  0.00    +0.000 NA
ATOM      5  C   UNL     1       1.211   3.299  18.542  0.00  0.00    +0.000 A 
ATOM      6  N   UNL     1       1.553   4.587  18.635  0.00  0.00    +0.000 NA
ATOM      7  C   UNL     1       2.866   4.891  18.532  0.00  0.00    +0.000 A 
ATOM      8  H   UNL     1       4.704   1.608  17.060  0.00  0.00    +0.000 HD
ATOM      9  H   UNL     1       3.556   0.681  17.844  0.00  0.00    +0.000 HD
ENDROOT
BRANCH   1  11
ATOM     10  N   UNL     1       6.014   4.439  19.222  0.00  0.00    +0.000 NA
ATOM     11  C   UNL     1       5.265   4.152  18.202  0.00  0.00    +0.000 C 
BRANCH  10  13
ATOM     12  C   UNL     1       7.329   4.586  17.338  0.00  0.00    +0.000 C 
ATOM     13  O   UNL     1       7.328   4.618  18.760  0.00  0.00    +0.000 OA
ENDBRANCH  10  13
ENDBRANCH   1  11
BRANCH   7  14
ATOM     14  N   UNL     1       3.233   6.245  18.630  0.00  0.00    +0.000 N 
ATOM     15  H   UNL     1       4.174   6.433  18.286  0.00  0.00    +0.000 HD
BRANCH  14  16
ATOM     16  C   UNL     1       2.447   7.390  18.858  0.00  0.00    +0.000 A 
ATOM     17  C   UNL     1       2.115   8.295  17.841  0.00  0.00    +0.000 A 
ATOM     18  C   UNL     1       1.376   9.462  18.087  0.00  0.00    +0.000 A 
ATOM     19  C   UNL     1       0.949   9.673  19.398  0.00  0.00    +0.000 A 
ATOM     20  N   UNL     1       0.255  10.702  19.979  0.00  0.00    +0.000 N 
ATOM     21  N   UNL     1      -0.001  10.522  21.288  0.00  0.00    +0.000 NA
ATOM     22  C   UNL     1       0.565   9.341  21.553  0.00  0.00    +0.000 A 
ATOM     23  C   UNL     1       1.195   8.771  20.425  0.00  0.00    +0.000 A 
ATOM     24  C   UNL     1       1.940   7.609  20.152  0.00  0.00    +0.000 A 
ATOM     25  H   UNL     1      -0.067  11.557  19.539  0.00  0.00    +0.000 HD
ENDBRANCH  14  16
ENDBRANCH   7  14
TORSDOF 4
ENDMDL
