MODEL 1
REMARK VINA RESULT:      -7.6      0.000      0.000
REMARK  Name = 
REMARK  4 active torsions:
REMARK  status: ('A' for Active; 'I' for Inactive)
REMARK    1  A    between atoms: C_2  and  C_13
REMARK    2  A    between atoms: C_15  and  O_16
REMARK    3  A    between atoms: C_17  and  O_18
REMARK    4  A    between atoms: C_19  and  O_20
REMARK                            x       y       z     vdW  Elec       q    Type
REMARK                         _______ _______ _______ _____ _____    ______ ____
ROOT
ATOM      1  O   UNL     1       2.925   8.707  17.531  0.00  0.00    +0.000 OA
ATOM      2  C   UNL     1       2.987   7.671  18.185  0.00  0.00    +0.000 C 
ATOM      3  N   UNL     1       2.334   7.388  19.365  0.00  0.00    +0.000 N 
ATOM      4  C   UNL     1       1.466   8.259  19.987  0.00  0.00    +0.000 A 
ATOM      5  N   UNL     1       1.161   8.167  21.262  0.00  0.00    +0.000 NA
ATOM      6  C   UNL     1       0.363   9.248  21.623  0.00  0.00    +0.000 A 
ATOM      7  C   UNL     1      -0.088   9.568  22.918  0.00  0.00    +0.000 A 
ATOM      8  C   UNL     1      -0.857  10.723  23.125  0.00  0.00    +0.000 A 
ATOM      9  C   UNL     1      -1.194  11.551  22.059  0.00  0.00    +0.000 A 
ATOM     10  C   UNL     1      -0.778  11.247  20.763  0.00  0.00    +0.000 A 
ATOM     11  C   UNL     1       0.003  10.097  20.571  0.00  0.00    +0.000 A 
ATOM     12  S   UNL     1       0.670   9.489  19.118  0.00  0.00    +0.000 S 
ATOM     13  H   UNL     1       2.652   6.631  19.954  0.00  0.00    +0.000 HD
ENDROOT
BRANCH   2  14
ATOM     14  C   UNL     1       3.940   6.648  17.695  0.00  0.00    +0.000 A 
ATOM     15  C   UNL     1       4.234   5.582  18.568  0.00  0.00    +0.000 A 
ATOM     16  C   UNL     1       5.187   4.644  18.207  0.00  0.00    +0.000 A 
ATOM     17  C   UNL     1       5.849   4.761  16.992  0.00  0.00    +0.000 A 
ATOM     18  C   UNL     1       5.559   5.817  16.133  0.00  0.00    +0.000 A 
ATOM     19  C   UNL     1       4.602   6.768  16.467  0.00  0.00    +0.000 A 
BRANCH  16  20
ATOM     20  O   UNL     1       5.519   3.599  19.023  0.00  0.00    +0.000 OA
ATOM     21  H   UNL     1       4.759   2.988  19.060  0.00  0.00    +0.000 HD
ENDBRANCH  16  20
BRANCH  17  22
ATOM     22  O   UNL     1       6.807   3.853  16.636  0.00  0.00    +0.000 OA
ATOM     23  H   UNL     1       7.362   3.759  17.439  0.00  0.00    +0.000 HD
ENDBRANCH  17  22
BRANCH  18  24
ATOM     24  O   UNL     1       6.240   5.938  14.956  0.00  0.00    +0.000 OA
ATOM     25  H   UNL     1       6.253   6.901  14.775  0.00  0.00    +0.000 HD
ENDBRANCH  18  24
ENDBRANCH   2  14
TORSDOF 4
ENDMDL
MODEL 2
REMARK VINA RESULT:      -7.5      0.632      1.849
REMARK  Name = 
REMARK  4 active torsions:
REMARK  status: ('A' for Active; 'I' for Inactive)
REMARK    1  A    between atoms: C_2  and  C_13
REMARK    2  A    between atoms: C_15  and  O_16
REMARK    3  A    between atoms: C_17  and  O_18
REMARK    4  A    between atoms: C_19  and  O_20
REMARK                            x       y       z     vdW  Elec       q    Type
REMARK                         _______ _______ _______ _____ _____    ______ ____
ROOT
ATOM      1  O   UNL     1       3.156   8.513  17.647  0.00  0.00    +0.000 OA
ATOM      2  C   UNL     1       3.030   7.432  18.214  0.00  0.00    +0.000 C 
ATOM      3  N   UNL     1       2.261   7.156  19.323  0.00  0.00    +0.000 N 
ATOM      4  C   UNL     1       1.477   8.091  19.963  0.00  0.00    +0.000 A 
ATOM      5  N   UNL     1       1.071   7.947  21.204  0.00  0.00    +0.000 NA
ATOM      6  C   UNL     1       0.403   9.099  21.606  0.00  0.00    +0.000 A 
ATOM      7  C   UNL     1      -0.093   9.380  22.894  0.00  0.00    +0.000 A 
ATOM      8  C   UNL     1      -0.710  10.613  23.152  0.00  0.00    +0.000 A 
ATOM      9  C   UNL     1      -0.854  11.559  22.141  0.00  0.00    +0.000 A 
ATOM     10  C   UNL     1      -0.391  11.299  20.852  0.00  0.00    +0.000 A 
ATOM     11  C   UNL     1       0.238  10.068  20.611  0.00  0.00    +0.000 A 
ATOM     12  S   UNL     1       0.920   9.483  19.154  0.00  0.00    +0.000 S 
ATOM     13  H   UNL     1       2.430   6.319  19.864  0.00  0.00    +0.000 HD
ENDROOT
BRANCH   2  14
ATOM     14  C   UNL     1       3.868   6.325  17.697  0.00  0.00    +0.000 A 
ATOM     15  C   UNL     1       4.739   6.629  16.633  0.00  0.00    +0.000 A 
ATOM     16  C   UNL     1       5.480   5.617  16.043  0.00  0.00    +0.000 A 
ATOM     17  C   UNL     1       5.357   4.313  16.501  0.00  0.00    +0.000 A 
ATOM     18  C   UNL     1       4.493   4.014  17.551  0.00  0.00    +0.000 A 
ATOM     19  C   UNL     1       3.744   5.011  18.164  0.00  0.00    +0.000 A 
BRANCH  16  20
ATOM     20  O   UNL     1       6.328   5.857  14.999  0.00  0.00    +0.000 OA
ATOM     21  H   UNL     1       6.707   6.749  15.112  0.00  0.00    +0.000 HD
ENDBRANCH  16  20
BRANCH  17  22
ATOM     22  O   UNL     1       6.066   3.304  15.911  0.00  0.00    +0.000 OA
ATOM     23  H   UNL     1       6.834   3.168  16.506  0.00  0.00    +0.000 HD
ENDBRANCH  17  22
BRANCH  18  24
ATOM     24  O   UNL     1       4.358   2.722  17.969  0.00  0.00    +0.000 OA
ATOM     25  H   UNL     1       3.894   2.270  17.233  0.00  0.00    +0.000 HD
ENDBRANCH  18  24
ENDBRANCH   2  14
TORSDOF 4
ENDMDL
MODEL 3
REMARK VINA RESULT:      -7.4      1.749      2.410
REMARK  Name = 
REMARK  4 active torsions:
REMARK  status: ('A' for Active; 'I' for Inactive)
REMARK    1  A    between atoms: C_2  and  C_13
REMARK    2  A    between atoms: C_15  and  O_16
REMARK    3  A    between atoms: C_17  and  O_18
REMARK    4  A    between atoms: C_19  and  O_20
REMARK                            x       y       z     vdW  Elec       q    Type
REMARK                         _______ _______ _______ _____ _____    ______ ____
ROOT
ATOM      1  O   UNL     1       2.785   7.788  18.818  0.00  0.00    +0.000 OA
ATOM      2  C   UNL     1       2.424   6.970  19.657  0.00  0.00    +0.000 C 
ATOM      3  N   UNL     1       1.524   7.166  20.682  0.00  0.00    +0.000 N 
ATOM      4  C   UNL     1       0.860   8.353  20.900  0.00  0.00    +0.000 A 
ATOM      5  N   UNL     1       0.327   8.666  22.060  0.00  0.00    +0.000 NA
ATOM      6  C   UNL     1      -0.164   9.966  22.005  0.00  0.00    +0.000 A 
ATOM      7  C   UNL     1      -0.716  10.705  23.069  0.00  0.00    +0.000 A 
ATOM      8  C   UNL     1      -1.131  12.028  22.861  0.00  0.00    +0.000 A 
ATOM      9  C   UNL     1      -1.018  12.617  21.605  0.00  0.00    +0.000 A 
ATOM     10  C   UNL     1      -0.495  11.902  20.528  0.00  0.00    +0.000 A 
ATOM     11  C   UNL     1      -0.070  10.584  20.754  0.00  0.00    +0.000 A 
ATOM     12  S   UNL     1       0.626   9.482  19.646  0.00  0.00    +0.000 S 
ATOM     13  H   UNL     1       1.496   6.528  21.465  0.00  0.00    +0.000 HD
ENDROOT
BRANCH   2  14
ATOM     14  C   UNL     1       3.100   5.652  19.614  0.00  0.00    +0.000 A 
ATOM     15  C   UNL     1       2.474   4.593  20.301  0.00  0.00    +0.000 A 
ATOM     16  C   UNL     1       3.102   3.360  20.378  0.00  0.00    +0.000 A 
ATOM     17  C   UNL     1       4.342   3.177  19.783  0.00  0.00    +0.000 A 
ATOM     18  C   UNL     1       4.960   4.226  19.108  0.00  0.00    +0.000 A 
ATOM     19  C   UNL     1       4.350   5.470  19.010  0.00  0.00    +0.000 A 
BRANCH  16  20
ATOM     20  O   UNL     1       2.543   2.305  21.042  0.00  0.00    +0.000 OA
ATOM     21  H   UNL     1       3.259   1.803  21.475  0.00  0.00    +0.000 HD
ENDBRANCH  16  20
BRANCH  17  22
ATOM     22  O   UNL     1       4.980   1.971  19.872  0.00  0.00    +0.000 OA
ATOM     23  H   UNL     1       4.757   1.516  19.032  0.00  0.00    +0.000 HD
ENDBRANCH  17  22
BRANCH  18  24
ATOM     24  O   UNL     1       6.195   4.041  18.556  0.00  0.00    +0.000 OA
ATOM     25  H   UNL     1       6.335   3.071  18.580  0.00  0.00    +0.000 HD
ENDBRANCH  18  24
ENDBRANCH   2  14
TORSDOF 4
ENDMDL
MODEL 4
REMARK VINA RESULT:      -7.3      1.830      2.915
REMARK  Name = 
REMARK  4 active torsions:
REMARK  status: ('A' for Active; 'I' for Inactive)
REMARK    1  A    between atoms: C_2  and  C_13
REMARK    2  A    between atoms: C_15  and  O_16
REMARK    3  A    between atoms: C_17  and  O_18
REMARK    4  A    between atoms: C_19  and  O_20
REMARK                            x       y       z     vdW  Elec       q    Type
REMARK                         _______ _______ _______ _____ _____    ______ ____
ROOT
ATOM      1  O   UNL     1       2.774   7.692  18.906  0.00  0.00    +0.000 OA
ATOM      2  C   UNL     1       2.388   6.939  19.794  0.00  0.00    +0.000 C 
ATOM      3  N   UNL     1       1.484   7.221  20.795  0.00  0.00    +0.000 N 
ATOM      4  C   UNL     1       0.844   8.434  20.927  0.00  0.00    +0.000 A 
ATOM      5  N   UNL     1       0.307   8.834  22.058  0.00  0.00    +0.000 NA
ATOM      6  C   UNL     1      -0.155  10.138  21.912  0.00  0.00    +0.000 A 
ATOM      7  C   UNL     1      -0.700  10.958  22.920  0.00  0.00    +0.000 A 
ATOM      8  C   UNL     1      -1.084  12.273  22.621  0.00  0.00    +0.000 A 
ATOM      9  C   UNL     1      -0.948  12.774  21.329  0.00  0.00    +0.000 A 
ATOM     10  C   UNL     1      -0.431  11.979  20.307  0.00  0.00    +0.000 A 
ATOM     11  C   UNL     1      -0.036  10.670  20.624  0.00  0.00    +0.000 A 
ATOM     12  S   UNL     1       0.645   9.482  19.598  0.00  0.00    +0.000 S 
ATOM     13  H   UNL     1       1.436   6.637  21.618  0.00  0.00    +0.000 HD
ENDROOT
BRANCH   2  14
ATOM     14  C   UNL     1       3.036   5.607  19.845  0.00  0.00    +0.000 A 
ATOM     15  C   UNL     1       4.301   5.491  19.237  0.00  0.00    +0.000 A 
ATOM     16  C   UNL     1       4.917   4.251  19.168  0.00  0.00    +0.000 A 
ATOM     17  C   UNL     1       4.283   3.134  19.694  0.00  0.00    +0.000 A 
ATOM     18  C   UNL     1       3.032   3.251  20.291  0.00  0.00    +0.000 A 
ATOM     19  C   UNL     1       2.395   4.483  20.380  0.00  0.00    +0.000 A 
BRANCH  16  20
ATOM     20  O   UNL     1       6.137   4.082  18.577  0.00  0.00    +0.000 OA
ATOM     21  H   UNL     1       6.492   4.963  18.352  0.00  0.00    +0.000 HD
ENDBRANCH  16  20
BRANCH  17  22
ATOM     22  O   UNL     1       4.872   1.903  19.611  0.00  0.00    +0.000 OA
ATOM     23  H   UNL     1       4.996   1.630  20.545  0.00  0.00    +0.000 HD
ENDBRANCH  17  22
BRANCH  18  24
ATOM     24  O   UNL     1       2.406   2.138  20.775  0.00  0.00    +0.000 OA
ATOM     25  H   UNL     1       1.569   2.084  20.269  0.00  0.00    +0.000 HD
ENDBRANCH  18  24
ENDBRANCH   2  14
TORSDOF 4
ENDMDL
MODEL 5
REMARK VINA RESULT:      -7.3      1.562      1.912
REMARK  Name = 
REMARK  4 active torsions:
REMARK  status: ('A' for Active; 'I' for Inactive)
REMARK    1  A    between atoms: C_2  and  C_13
REMARK    2  A    between atoms: C_15  and  O_16
REMARK    3  A    between atoms: C_17  and  O_18
REMARK    4  A    between atoms: C_19  and  O_20
REMARK                            x       y       z     vdW  Elec       q    Type
REMARK                         _______ _______ _______ _____ _____    ______ ____
ROOT
ATOM      1  O   UNL     1       2.138   6.018  20.433  0.00  0.00    +0.000 OA
ATOM      2  C   UNL     1       2.515   6.641  19.446  0.00  0.00    +0.000 C 
ATOM      3  N   UNL     1       2.228   7.949  19.123  0.00  0.00    +0.000 N 
ATOM      4  C   UNL     1       1.462   8.780  19.911  0.00  0.00    +0.000 A 
ATOM      5  N   UNL     1       0.872   9.857  19.442  0.00  0.00    +0.000 NA
ATOM      6  C   UNL     1       0.080  10.419  20.439  0.00  0.00    +0.000 A 
ATOM      7  C   UNL     1      -0.789  11.519  20.307  0.00  0.00    +0.000 A 
ATOM      8  C   UNL     1      -1.554  11.942  21.403  0.00  0.00    +0.000 A 
ATOM      9  C   UNL     1      -1.452  11.294  22.630  0.00  0.00    +0.000 A 
ATOM     10  C   UNL     1      -0.584  10.216  22.796  0.00  0.00    +0.000 A 
ATOM     11  C   UNL     1       0.165   9.793  21.688  0.00  0.00    +0.000 A 
ATOM     12  S   UNL     1       1.280   8.500  21.582  0.00  0.00    +0.000 S 
ATOM     13  H   UNL     1       2.358   8.281  18.178  0.00  0.00    +0.000 HD
ENDROOT
BRANCH   2  14
ATOM     14  C   UNL     1       3.294   5.869  18.449  0.00  0.00    +0.000 A 
ATOM     15  C   UNL     1       3.292   4.468  18.586  0.00  0.00    +0.000 A 
ATOM     16  C   UNL     1       4.075   3.695  17.743  0.00  0.00    +0.000 A 
ATOM     17  C   UNL     1       4.858   4.307  16.774  0.00  0.00    +0.000 A 
ATOM     18  C   UNL     1       4.860   5.692  16.642  0.00  0.00    +0.000 A 
ATOM     19  C   UNL     1       4.079   6.489  17.469  0.00  0.00    +0.000 A 
BRANCH  16  20
ATOM     20  O   UNL     1       4.119   2.333  17.844  0.00  0.00    +0.000 OA
ATOM     21  H   UNL     1       4.196   1.963  16.945  0.00  0.00    +0.000 HD
ENDBRANCH  16  20
BRANCH  17  22
ATOM     22  O   UNL     1       5.652   3.556  15.952  0.00  0.00    +0.000 OA
ATOM     23  H   UNL     1       6.186   3.008  16.565  0.00  0.00    +0.000 HD
ENDBRANCH  17  22
BRANCH  18  24
ATOM     24  O   UNL     1       5.660   6.281  15.706  0.00  0.00    +0.000 OA
ATOM     25  H   UNL     1       6.555   6.280  16.106  0.00  0.00    +0.000 HD
ENDBRANCH  18  24
ENDBRANCH   2  14
TORSDOF 4
ENDMDL
MODEL 6
REMARK VINA RESULT:      -7.2      2.113      2.676
REMARK  Name = 
REMARK  4 active torsions:
REMARK  status: ('A' for Active; 'I' for Inactive)
REMARK    1  A    between atoms: C_2  and  C_13
REMARK    2  A    between atoms: C_15  and  O_16
REMARK    3  A    between atoms: C_17  and  O_18
REMARK    4  A    between atoms: C_19  and  O_20
REMARK                            x       y       z     vdW  Elec       q    Type
REMARK                         _______ _______ _______ _____ _____    ______ ____
ROOT
ATOM      1  O   UNL     1       1.743   6.133  21.119  0.00  0.00    +0.000 OA
ATOM      2  C   UNL     1       2.196   6.584  20.072  0.00  0.00    +0.000 C 
ATOM      3  N   UNL     1       2.007   7.847  19.556  0.00  0.00    +0.000 N 
ATOM      4  C   UNL     1       1.270   8.828  20.183  0.00  0.00    +0.000 A 
ATOM      5  N   UNL     1       0.770   9.860  19.542  0.00  0.00    +0.000 NA
ATOM      6  C   UNL     1      -0.018  10.605  20.413  0.00  0.00    +0.000 A 
ATOM      7  C   UNL     1      -0.807  11.725  20.088  0.00  0.00    +0.000 A 
ATOM      8  C   UNL     1      -1.582  12.347  21.078  0.00  0.00    +0.000 A 
ATOM      9  C   UNL     1      -1.567  11.877  22.388  0.00  0.00    +0.000 A 
ATOM     10  C   UNL     1      -0.779  10.783  22.743  0.00  0.00    +0.000 A 
ATOM     11  C   UNL     1      -0.020  10.161  21.740  0.00  0.00    +0.000 A 
ATOM     12  S   UNL     1       1.011   8.801  21.867  0.00  0.00    +0.000 S 
ATOM     13  H   UNL     1       2.194   8.031  18.580  0.00  0.00    +0.000 HD
ENDROOT
BRANCH   2  14
ATOM     14  C   UNL     1       2.957   5.632  19.229  0.00  0.00    +0.000 A 
ATOM     15  C   UNL     1       2.219   4.878  18.296  0.00  0.00    +0.000 A 
ATOM     16  C   UNL     1       2.857   3.904  17.544  0.00  0.00    +0.000 A 
ATOM     17  C   UNL     1       4.215   3.675  17.718  0.00  0.00    +0.000 A 
ATOM     18  C   UNL     1       4.941   4.420  18.643  0.00  0.00    +0.000 A 
ATOM     19  C   UNL     1       4.328   5.407  19.404  0.00  0.00    +0.000 A 
BRANCH  16  20
ATOM     20  O   UNL     1       2.184   3.136  16.636  0.00  0.00    +0.000 OA
ATOM     21  H   UNL     1       2.835   2.750  16.021  0.00  0.00    +0.000 HD
ENDBRANCH  16  20
BRANCH  17  22
ATOM     22  O   UNL     1       4.849   2.702  16.997  0.00  0.00    +0.000 OA
ATOM     23  H   UNL     1       4.147   2.044  16.808  0.00  0.00    +0.000 HD
ENDBRANCH  17  22
BRANCH  18  24
ATOM     24  O   UNL     1       6.269   4.161  18.825  0.00  0.00    +0.000 OA
ATOM     25  H   UNL     1       6.404   3.270  18.440  0.00  0.00    +0.000 HD
ENDBRANCH  18  24
ENDBRANCH   2  14
TORSDOF 4
ENDMDL
MODEL 7
REMARK VINA RESULT:      -7.1      1.841      2.988
REMARK  Name = 
REMARK  4 active torsions:
REMARK  status: ('A' for Active; 'I' for Inactive)
REMARK    1  A    between atoms: C_2  and  C_13
REMARK    2  A    between atoms: C_15  and  O_16
REMARK    3  A    between atoms: C_17  and  O_18
REMARK    4  A    between atoms: C_19  and  O_20
REMARK                            x       y       z     vdW  Elec       q    Type
REMARK                         _______ _______ _______ _____ _____    ______ ____
ROOT
ATOM      1  O   UNL     1       3.001   7.654  17.943  0.00  0.00    +0.000 OA
ATOM      2  C   UNL     1       2.672   7.134  19.004  0.00  0.00    +0.000 C 
ATOM      3  N   UNL     1       1.884   7.681  19.994  0.00  0.00    +0.000 N 
ATOM      4  C   UNL     1       1.316   8.934  19.914  0.00  0.00    +0.000 A 
ATOM      5  N   UNL     1       0.912   9.599  20.973  0.00  0.00    +0.000 NA
ATOM      6  C   UNL     1       0.497  10.869  20.587  0.00  0.00    +0.000 A 
ATOM      7  C   UNL     1       0.092  11.918  21.435  0.00  0.00    +0.000 A 
ATOM      8  C   UNL     1      -0.262  13.161  20.891  0.00  0.00    +0.000 A 
ATOM      9  C   UNL     1      -0.232  13.367  19.515  0.00  0.00    +0.000 A 
ATOM     10  C   UNL     1       0.145  12.340  18.650  0.00  0.00    +0.000 A 
ATOM     11  C   UNL     1       0.511  11.106  19.208  0.00  0.00    +0.000 A 
ATOM     12  S   UNL     1       1.033   9.685  18.411  0.00  0.00    +0.000 S 
ATOM     13  H   UNL     1       1.892   7.290  20.925  0.00  0.00    +0.000 HD
ENDROOT
BRANCH   2  14
ATOM     14  C   UNL     1       3.261   5.804  19.288  0.00  0.00    +0.000 A 
ATOM     15  C   UNL     1       4.555   5.563  18.788  0.00  0.00    +0.000 A 
ATOM     16  C   UNL     1       5.124   4.308  18.937  0.00  0.00    +0.000 A 
ATOM     17  C   UNL     1       4.415   3.298  19.574  0.00  0.00    +0.000 A 
ATOM     18  C   UNL     1       3.135   3.539  20.064  0.00  0.00    +0.000 A 
ATOM     19  C   UNL     1       2.544   4.790  19.934  0.00  0.00    +0.000 A 
BRANCH  16  20
ATOM     20  O   UNL     1       6.371   4.018  18.459  0.00  0.00    +0.000 OA
ATOM     21  H   UNL     1       7.021   4.223  19.157  0.00  0.00    +0.000 HD
ENDBRANCH  16  20
BRANCH  17  22
ATOM     22  O   UNL     1       4.959   2.051  19.707  0.00  0.00    +0.000 OA
ATOM     23  H   UNL     1       5.020   1.713  18.788  0.00  0.00    +0.000 HD
ENDBRANCH  17  22
BRANCH  18  24
ATOM     24  O   UNL     1       2.437   2.528  20.658  0.00  0.00    +0.000 OA
ATOM     25  H   UNL     1       1.821   2.210  19.966  0.00  0.00    +0.000 HD
ENDBRANCH  18  24
ENDBRANCH   2  14
TORSDOF 4
ENDMDL
MODEL 8
REMARK VINA RESULT:      -7.1      1.610      2.118
REMARK  Name = 
REMARK  4 active torsions:
REMARK  status: ('A' for Active; 'I' for Inactive)
REMARK    1  A    between atoms: C_2  and  C_13
REMARK    2  A    between atoms: C_15  and  O_16
REMARK    3  A    between atoms: C_17  and  O_18
REMARK    4  A    between atoms: C_19  and  O_20
REMARK                            x       y       z     vdW  Elec       q    Type
REMARK                         _______ _______ _______ _____ _____    ______ ____
ROOT
ATOM      1  O   UNL     1       2.215   6.392  19.825  0.00  0.00    +0.000 OA
ATOM      2  C   UNL     1       2.634   6.861  18.772  0.00  0.00    +0.000 C 
ATOM      3  N   UNL     1       2.342   8.096  18.234  0.00  0.00    +0.000 N 
ATOM      4  C   UNL     1       1.523   9.021  18.842  0.00  0.00    +0.000 A 
ATOM      5  N   UNL     1       0.941   9.997  18.182  0.00  0.00    +0.000 NA
ATOM      6  C   UNL     1       0.089  10.688  19.037  0.00  0.00    +0.000 A 
ATOM      7  C   UNL     1      -0.790  11.733  18.691  0.00  0.00    +0.000 A 
ATOM      8  C   UNL     1      -1.619  12.303  19.667  0.00  0.00    +0.000 A 
ATOM      9  C   UNL     1      -1.571  11.857  20.985  0.00  0.00    +0.000 A 
ATOM     10  C   UNL     1      -0.696  10.839  21.361  0.00  0.00    +0.000 A 
ATOM     11  C   UNL     1       0.117  10.267  20.371  0.00  0.00    +0.000 A 
ATOM     12  S   UNL     1       1.258   9.001  20.525  0.00  0.00    +0.000 S 
ATOM     13  H   UNL     1       2.518   8.279  17.256  0.00  0.00    +0.000 HD
ENDROOT
BRANCH   2  14
ATOM     14  C   UNL     1       3.476   5.963  17.948  0.00  0.00    +0.000 A 
ATOM     15  C   UNL     1       3.350   4.580  18.184  0.00  0.00    +0.000 A 
ATOM     16  C   UNL     1       4.177   3.693  17.513  0.00  0.00    +0.000 A 
ATOM     17  C   UNL     1       5.125   4.171  16.619  0.00  0.00    +0.000 A 
ATOM     18  C   UNL     1       5.249   5.539  16.391  0.00  0.00    +0.000 A 
ATOM     19  C   UNL     1       4.428   6.450  17.044  0.00  0.00    +0.000 A 
BRANCH  16  20
ATOM     20  O   UNL     1       4.105   2.343  17.715  0.00  0.00    +0.000 OA
ATOM     21  H   UNL     1       4.963   1.951  17.470  0.00  0.00    +0.000 HD
ENDBRANCH  16  20
BRANCH  17  22
ATOM     22  O   UNL     1       5.961   3.306  15.969  0.00  0.00    +0.000 OA
ATOM     23  H   UNL     1       6.860   3.595  16.232  0.00  0.00    +0.000 HD
ENDBRANCH  17  22
BRANCH  18  24
ATOM     24  O   UNL     1       6.208   5.997  15.533  0.00  0.00    +0.000 OA
ATOM     25  H   UNL     1       7.041   5.955  16.047  0.00  0.00    +0.000 HD
ENDBRANCH  18  24
ENDBRANCH   2  14
TORSDOF 4
ENDMDL
MODEL 9
REMARK VINA RESULT:      -7.1      2.323      3.102
REMARK  Name = 
REMARK  4 active torsions:
REMARK  status: ('A' for Active; 'I' for Inactive)
REMARK    1  A    between atoms: C_2  and  C_13
REMARK    2  A    between atoms: C_15  and  O_16
REMARK    3  A    between atoms: C_17  and  O_18
REMARK    4  A    between atoms: C_19  and  O_20
REMARK                            x       y       z     vdW  Elec       q    Type
REMARK                         _______ _______ _______ _____ _____    ______ ____
ROOT
ATOM      1  O   UNL     1       1.427   5.990  21.169  0.00  0.00    +0.000 OA
ATOM      2  C   UNL     1       2.034   6.188  20.121  0.00  0.00    +0.000 C 
ATOM      3  N   UNL     1       2.128   7.371  19.421  0.00  0.00    +0.000 N 
ATOM      4  C   UNL     1       1.547   8.551  19.832  0.00  0.00    +0.000 A 
ATOM      5  N   UNL     1       1.301   9.545  19.008  0.00  0.00    +0.000 NA
ATOM      6  C   UNL     1       0.607  10.543  19.685  0.00  0.00    +0.000 A 
ATOM      7  C   UNL     1       0.072  11.722  19.133  0.00  0.00    +0.000 A 
ATOM      8  C   UNL     1      -0.641  12.615  19.945  0.00  0.00    +0.000 A 
ATOM      9  C   UNL     1      -0.814  12.355  21.302  0.00  0.00    +0.000 A 
ATOM     10  C   UNL     1      -0.277  11.206  21.881  0.00  0.00    +0.000 A 
ATOM     11  C   UNL     1       0.422  10.313  21.053  0.00  0.00    +0.000 A 
ATOM     12  S   UNL     1       1.163   8.828  21.468  0.00  0.00    +0.000 S 
ATOM     13  H   UNL     1       2.418   7.368  18.454  0.00  0.00    +0.000 HD
ENDROOT
BRANCH   2  14
ATOM     14  C   UNL     1       2.660   4.998  19.497  0.00  0.00    +0.000 A 
ATOM     15  C   UNL     1       1.811   3.916  19.197  0.00  0.00    +0.000 A 
ATOM     16  C   UNL     1       2.349   2.740  18.700  0.00  0.00    +0.000 A 
ATOM     17  C   UNL     1       3.719   2.635  18.505  0.00  0.00    +0.000 A 
ATOM     18  C   UNL     1       4.557   3.705  18.805  0.00  0.00    +0.000 A 
ATOM     19  C   UNL     1       4.043   4.898  19.298  0.00  0.00    +0.000 A 
BRANCH  16  20
ATOM     20  O   UNL     1       1.571   1.656  18.405  0.00  0.00    +0.000 OA
ATOM     21  H   UNL     1       1.598   1.513  17.441  0.00  0.00    +0.000 HD
ENDBRANCH  16  20
BRANCH  17  22
ATOM     22  O   UNL     1       4.263   1.471  18.035  0.00  0.00    +0.000 OA
ATOM     23  H   UNL     1       4.198   1.549  17.060  0.00  0.00    +0.000 HD
ENDBRANCH  17  22
BRANCH  18  24
ATOM     24  O   UNL     1       5.906   3.576  18.639  0.00  0.00    +0.000 OA
ATOM     25  H   UNL     1       6.022   2.696  18.222  0.00  0.00    +0.000 HD
ENDBRANCH  18  24
ENDBRANCH   2  14
TORSDOF 4
ENDMDL
