MODEL 1
REMARK VINA RESULT:      -7.3      0.000      0.000
REMARK  Name = 
REMARK  9 active torsions:
REMARK  status: ('A' for Active; 'I' for Inactive)
REMARK    1  A    between atoms: C_1  and  O_2
REMARK    2  A    between atoms: O_2  and  C_3
REMARK    3  A    between atoms: C_3  and  C_4
REMARK    4  A    between atoms: C_14  and  C_15
REMARK    5  A    between atoms: N_17  and  C_18
REMARK    6  A    between atoms: C_18  and  C_19
REMARK    7  A    between atoms: C_20  and  C_21
REMARK    8  A    between atoms: N_23  and  C_24
REMARK    9  A    between atoms: C_25  and  C_26
REMARK                            x       y       z     vdW  Elec       q    Type
REMARK                         _______ _______ _______ _____ _____    ______ ____
ROOT
ATOM      1  C   UNL     1       2.858   3.557  19.603  0.00  0.00    +0.000 C 
ATOM      2  C   UNL     1       4.153   3.195  18.880  0.00  0.00    +0.000 C 
ATOM      3  N   UNL     1       4.680   4.491  18.490  0.00  0.00    +0.000 N 
ATOM      4  C   UNL     1       5.302   4.708  17.288  0.00  0.00    +0.000 A 
ATOM      5  C   UNL     1       5.817   5.961  16.926  0.00  0.00    +0.000 A 
ATOM      6  N   UNL     1       6.398   6.249  15.734  0.00  0.00    +0.000 NA
ATOM      7  C   UNL     1       6.462   5.210  14.881  0.00  0.00    +0.000 A 
ATOM      8  C   UNL     1       5.976   3.960  15.211  0.00  0.00    +0.000 A 
ATOM      9  N   UNL     1       5.406   3.687  16.410  0.00  0.00    +0.000 NA
ATOM     10  C   UNL     1       4.204   5.567  19.351  0.00  0.00    +0.000 C 
ATOM     11  C   UNL     1       3.185   4.898  20.286  0.00  0.00    +0.000 C 
ENDROOT
BRANCH  11  12
ATOM     12  C   UNL     1       1.947   5.759  20.490  0.00  0.00    +0.000 C 
ATOM     13  O   UNL     1       0.814   5.259  20.502  0.00  0.00    +0.000 OA
ATOM     14  N   UNL     1       2.157   7.111  20.688  0.00  0.00    +0.000 N 
ATOM     15  H   UNL     1       3.077   7.437  20.961  0.00  0.00    +0.000 HD
BRANCH  14  16
ATOM     16  C   UNL     1       1.039   8.011  20.830  0.00  0.00    +0.000 C 
BRANCH  16  17
ATOM     17  C   UNL     1       1.212   9.217  19.966  0.00  0.00    +0.000 A 
ATOM     18  C   UNL     1       1.691   9.259  18.623  0.00  0.00    +0.000 A 
ATOM     19  C   UNL     1       2.128   8.145  17.745  0.00  0.00    +0.000 C 
ATOM     20  N   UNL     1       1.689  10.502  18.129  0.00  0.00    +0.000 NA
ATOM     21  N   UNL     1       1.181  11.254  19.115  0.00  0.00    +0.000 N 
ATOM     22  C   UNL     1       1.031  12.675  18.899  0.00  0.00    +0.000 C 
ATOM     23  C   UNL     1       0.837  10.530  20.230  0.00  0.00    +0.000 A 
ATOM     24  C   UNL     1       0.158  11.123  21.410  0.00  0.00    +0.000 C 
ENDBRANCH  16  17
ENDBRANCH  14  16
ENDBRANCH  11  12
BRANCH   1  25
ATOM     25  C   UNL     1       2.382   2.444  20.533  0.00  0.00    +0.000 C 
BRANCH  25  27
ATOM     26  C   UNL     1       0.805   2.347  18.780  0.00  0.00    +0.000 C 
ATOM     27  O   UNL     1       1.375   1.666  19.893  0.00  0.00    +0.000 OA
ENDBRANCH  25  27
ENDBRANCH   1  25
TORSDOF 5
ENDMDL
MODEL 2
REMARK VINA RESULT:      -7.1      1.148      2.039
REMARK  Name = 
REMARK  9 active torsions:
REMARK  status: ('A' for Active; 'I' for Inactive)
REMARK    1  A    between atoms: C_1  and  O_2
REMARK    2  A    between atoms: O_2  and  C_3
REMARK    3  A    between atoms: C_3  and  C_4
REMARK    4  A    between atoms: C_14  and  C_15
REMARK    5  A    between atoms: N_17  and  C_18
REMARK    6  A    between atoms: C_18  and  C_19
REMARK    7  A    between atoms: C_20  and  C_21
REMARK    8  A    between atoms: N_23  and  C_24
REMARK    9  A    between atoms: C_25  and  C_26
REMARK                            x       y       z     vdW  Elec       q    Type
REMARK                         _______ _______ _______ _____ _____    ______ ____
ROOT
ATOM      1  C   UNL     1       3.435   3.470  19.771  0.00  0.00    +0.000 C 
ATOM      2  C   UNL     1       4.736   3.326  18.985  0.00  0.00    +0.000 C 
ATOM      3  N   UNL     1       4.861   4.614  18.326  0.00  0.00    +0.000 N 
ATOM      4  C   UNL     1       5.329   4.749  17.044  0.00  0.00    +0.000 A 
ATOM      5  C   UNL     1       5.457   5.998  16.420  0.00  0.00    +0.000 A 
ATOM      6  N   UNL     1       5.866   6.192  15.141  0.00  0.00    +0.000 NA
ATOM      7  C   UNL     1       6.166   5.061  14.476  0.00  0.00    +0.000 A 
ATOM      8  C   UNL     1       6.064   3.815  15.065  0.00  0.00    +0.000 A 
ATOM      9  N   UNL     1       5.661   3.640  16.347  0.00  0.00    +0.000 NA
ATOM     10  C   UNL     1       4.156   5.673  19.036  0.00  0.00    +0.000 C 
ATOM     11  C   UNL     1       3.417   4.956  20.176  0.00  0.00    +0.000 C 
ENDROOT
BRANCH  11  12
ATOM     12  C   UNL     1       2.004   5.486  20.362  0.00  0.00    +0.000 C 
ATOM     13  O   UNL     1       1.020   4.839  19.977  0.00  0.00    +0.000 OA
ATOM     14  N   UNL     1       1.876   6.705  21.003  0.00  0.00    +0.000 N 
ATOM     15  H   UNL     1       2.650   7.059  21.555  0.00  0.00    +0.000 HD
BRANCH  14  16
ATOM     16  C   UNL     1       0.579   7.311  21.170  0.00  0.00    +0.000 C 
BRANCH  16  17
ATOM     17  C   UNL     1       0.654   8.790  20.977  0.00  0.00    +0.000 A 
ATOM     18  C   UNL     1       0.399   9.806  21.947  0.00  0.00    +0.000 A 
ATOM     19  C   UNL     1       0.010   9.667  23.373  0.00  0.00    +0.000 C 
ATOM     20  N   UNL     1       0.590  11.033  21.449  0.00  0.00    +0.000 NA
ATOM     21  N   UNL     1       1.000  10.824  20.191  0.00  0.00    +0.000 N 
ATOM     22  C   UNL     1       1.308  11.968  19.362  0.00  0.00    +0.000 C 
ATOM     23  C   UNL     1       1.097   9.495  19.862  0.00  0.00    +0.000 A 
ATOM     24  C   UNL     1       1.630   9.012  18.563  0.00  0.00    +0.000 C 
ENDBRANCH  16  17
ENDBRANCH  14  16
ENDBRANCH  11  12
BRANCH   1  25
ATOM     25  C   UNL     1       3.340   2.473  20.923  0.00  0.00    +0.000 C 
BRANCH  25  27
ATOM     26  C   UNL     1       1.317   2.358  22.135  0.00  0.00    +0.000 C 
ATOM     27  O   UNL     1       2.568   3.023  21.986  0.00  0.00    +0.000 OA
ENDBRANCH  25  27
ENDBRANCH   1  25
TORSDOF 5
ENDMDL
MODEL 3
REMARK VINA RESULT:      -7.1      1.720      2.774
REMARK  Name = 
REMARK  9 active torsions:
REMARK  status: ('A' for Active; 'I' for Inactive)
REMARK    1  A    between atoms: C_1  and  O_2
REMARK    2  A    between atoms: O_2  and  C_3
REMARK    3  A    between atoms: C_3  and  C_4
REMARK    4  A    between atoms: C_14  and  C_15
REMARK    5  A    between atoms: N_17  and  C_18
REMARK    6  A    between atoms: C_18  and  C_19
REMARK    7  A    between atoms: C_20  and  C_21
REMARK    8  A    between atoms: N_23  and  C_24
REMARK    9  A    between atoms: C_25  and  C_26
REMARK                            x       y       z     vdW  Elec       q    Type
REMARK                         _______ _______ _______ _____ _____    ______ ____
ROOT
ATOM      1  C   UNL     1       2.482   5.859  19.000  0.00  0.00    +0.000 C 
ATOM      2  C   UNL     1       3.694   4.973  18.714  0.00  0.00    +0.000 C 
ATOM      3  N   UNL     1       4.471   5.777  17.786  0.00  0.00    +0.000 N 
ATOM      4  C   UNL     1       5.143   5.237  16.721  0.00  0.00    +0.000 A 
ATOM      5  C   UNL     1       5.900   6.020  15.837  0.00  0.00    +0.000 A 
ATOM      6  N   UNL     1       6.546   5.552  14.739  0.00  0.00    +0.000 NA
ATOM      7  C   UNL     1       6.419   4.226  14.542  0.00  0.00    +0.000 A 
ATOM      8  C   UNL     1       5.692   3.425  15.400  0.00  0.00    +0.000 A 
ATOM      9  N   UNL     1       5.059   3.907  16.497  0.00  0.00    +0.000 NA
ATOM     10  C   UNL     1       4.201   7.202  17.924  0.00  0.00    +0.000 C 
ATOM     11  C   UNL     1       3.055   7.287  18.944  0.00  0.00    +0.000 C 
ENDROOT
BRANCH  11  12
ATOM     12  C   UNL     1       2.007   8.313  18.540  0.00  0.00    +0.000 C 
ATOM     13  O   UNL     1       1.812   8.597  17.351  0.00  0.00    +0.000 OA
ATOM     14  N   UNL     1       1.271   8.885  19.562  0.00  0.00    +0.000 N 
ATOM     15  H   UNL     1       1.245   8.432  20.469  0.00  0.00    +0.000 HD
BRANCH  14  16
ATOM     16  C   UNL     1       0.298   9.910  19.277  0.00  0.00    +0.000 C 
BRANCH  16  17
ATOM     17  C   UNL     1       0.666  11.194  19.944  0.00  0.00    +0.000 A 
ATOM     18  C   UNL     1       0.301  11.627  21.255  0.00  0.00    +0.000 A 
ATOM     19  C   UNL     1      -0.514  10.931  22.281  0.00  0.00    +0.000 C 
ATOM     20  N   UNL     1       0.829  12.819  21.553  0.00  0.00    +0.000 NA
ATOM     21  N   UNL     1       1.557  13.143  20.476  0.00  0.00    +0.000 N 
ATOM     22  C   UNL     1       2.281  14.394  20.477  0.00  0.00    +0.000 C 
ATOM     23  C   UNL     1       1.531  12.186  19.492  0.00  0.00    +0.000 A 
ATOM     24  C   UNL     1       2.343  12.268  18.252  0.00  0.00    +0.000 C 
ENDBRANCH  16  17
ENDBRANCH  14  16
ENDBRANCH  11  12
BRANCH   1  25
ATOM     25  C   UNL     1       1.783   5.480  20.303  0.00  0.00    +0.000 C 
BRANCH  25  27
ATOM     26  C   UNL     1       1.338   3.285  21.047  0.00  0.00    +0.000 C 
ATOM     27  O   UNL     1       0.998   4.307  20.115  0.00  0.00    +0.000 OA
ENDBRANCH  25  27
ENDBRANCH   1  25
TORSDOF 5
ENDMDL
MODEL 4
REMARK VINA RESULT:      -7.0      3.234      5.544
REMARK  Name = 
REMARK  9 active torsions:
REMARK  status: ('A' for Active; 'I' for Inactive)
REMARK    1  A    between atoms: C_1  and  O_2
REMARK    2  A    between atoms: O_2  and  C_3
REMARK    3  A    between atoms: C_3  and  C_4
REMARK    4  A    between atoms: C_14  and  C_15
REMARK    5  A    between atoms: N_17  and  C_18
REMARK    6  A    between atoms: C_18  and  C_19
REMARK    7  A    between atoms: C_20  and  C_21
REMARK    8  A    between atoms: N_23  and  C_24
REMARK    9  A    between atoms: C_25  and  C_26
REMARK                            x       y       z     vdW  Elec       q    Type
REMARK                         _______ _______ _______ _____ _____    ______ ____
ROOT
ATOM      1  C   UNL     1       1.067   8.061  20.587  0.00  0.00    +0.000 C 
ATOM      2  C   UNL     1       1.512   6.650  20.968  0.00  0.00    +0.000 C 
ATOM      3  N   UNL     1       2.003   6.114  19.711  0.00  0.00    +0.000 N 
ATOM      4  C   UNL     1       1.798   4.814  19.328  0.00  0.00    +0.000 A 
ATOM      5  C   UNL     1       2.287   4.303  18.117  0.00  0.00    +0.000 A 
ATOM      6  N   UNL     1       2.075   3.042  17.662  0.00  0.00    +0.000 NA
ATOM      7  C   UNL     1       1.340   2.270  18.484  0.00  0.00    +0.000 A 
ATOM      8  C   UNL     1       0.855   2.738  19.689  0.00  0.00    +0.000 A 
ATOM      9  N   UNL     1       1.082   3.998  20.133  0.00  0.00    +0.000 NA
ATOM     10  C   UNL     1       2.442   7.159  18.794  0.00  0.00    +0.000 C 
ATOM     11  C   UNL     1       2.070   8.475  19.494  0.00  0.00    +0.000 C 
ENDROOT
BRANCH  11  12
ATOM     12  C   UNL     1       1.482   9.490  18.526  0.00  0.00    +0.000 C 
ATOM     13  O   UNL     1       2.050   9.763  17.460  0.00  0.00    +0.000 OA
ATOM     14  N   UNL     1       0.276  10.064  18.883  0.00  0.00    +0.000 N 
ATOM     15  H   UNL     1      -0.296   9.618  19.592  0.00  0.00    +0.000 HD
BRANCH  14  16
ATOM     16  C   UNL     1      -0.326  11.079  18.055  0.00  0.00    +0.000 C 
BRANCH  16  17
ATOM     17  C   UNL     1      -1.766  11.266  18.402  0.00  0.00    +0.000 A 
ATOM     18  C   UNL     1      -2.311  12.107  19.418  0.00  0.00    +0.000 A 
ATOM     19  C   UNL     1      -1.611  13.002  20.373  0.00  0.00    +0.000 C 
ATOM     20  N   UNL     1      -3.648  12.064  19.440  0.00  0.00    +0.000 NA
ATOM     21  N   UNL     1      -3.973  11.244  18.432  0.00  0.00    +0.000 N 
ATOM     22  C   UNL     1      -5.372  10.984  18.171  0.00  0.00    +0.000 C 
ATOM     23  C   UNL     1      -2.885  10.765  17.745  0.00  0.00    +0.000 A 
ATOM     24  C   UNL     1      -2.995   9.926  16.525  0.00  0.00    +0.000 C 
ENDBRANCH  16  17
ENDBRANCH  14  16
ENDBRANCH  11  12
BRANCH   1  25
ATOM     25  C   UNL     1       0.989   8.990  21.795  0.00  0.00    +0.000 C 
BRANCH  25  27
ATOM     26  C   UNL     1      -0.626  10.099  23.113  0.00  0.00    +0.000 C 
ATOM     27  O   UNL     1      -0.257   9.681  21.802  0.00  0.00    +0.000 OA
ENDBRANCH  25  27
ENDBRANCH   1  25
TORSDOF 5
ENDMDL
MODEL 5
REMARK VINA RESULT:      -7.0      1.227      1.344
REMARK  Name = 
REMARK  9 active torsions:
REMARK  status: ('A' for Active; 'I' for Inactive)
REMARK    1  A    between atoms: C_1  and  O_2
REMARK    2  A    between atoms: O_2  and  C_3
REMARK    3  A    between atoms: C_3  and  C_4
REMARK    4  A    between atoms: C_14  and  C_15
REMARK    5  A    between atoms: N_17  and  C_18
REMARK    6  A    between atoms: C_18  and  C_19
REMARK    7  A    between atoms: C_20  and  C_21
REMARK    8  A    between atoms: N_23  and  C_24
REMARK    9  A    between atoms: C_25  and  C_26
REMARK                            x       y       z     vdW  Elec       q    Type
REMARK                         _______ _______ _______ _____ _____    ______ ____
ROOT
ATOM      1  C   UNL     1       3.013   3.056  18.520  0.00  0.00    +0.000 C 
ATOM      2  C   UNL     1       4.120   2.672  17.539  0.00  0.00    +0.000 C 
ATOM      3  N   UNL     1       5.096   3.733  17.720  0.00  0.00    +0.000 N 
ATOM      4  C   UNL     1       5.804   4.274  16.679  0.00  0.00    +0.000 A 
ATOM      5  C   UNL     1       6.752   5.290  16.866  0.00  0.00    +0.000 A 
ATOM      6  N   UNL     1       7.448   5.899  15.872  0.00  0.00    +0.000 NA
ATOM      7  C   UNL     1       7.167   5.443  14.637  0.00  0.00    +0.000 A 
ATOM      8  C   UNL     1       6.249   4.434  14.420  0.00  0.00    +0.000 A 
ATOM      9  N   UNL     1       5.568   3.831  15.424  0.00  0.00    +0.000 NA
ATOM     10  C   UNL     1       5.005   4.353  19.036  0.00  0.00    +0.000 C 
ATOM     11  C   UNL     1       3.774   3.707  19.690  0.00  0.00    +0.000 C 
ENDROOT
BRANCH  11  12
ATOM     12  C   UNL     1       2.924   4.724  20.436  0.00  0.00    +0.000 C 
ATOM     13  O   UNL     1       2.403   4.448  21.525  0.00  0.00    +0.000 OA
ATOM     14  N   UNL     1       2.791   5.970  19.852  0.00  0.00    +0.000 N 
ATOM     15  H   UNL     1       3.449   6.257  19.136  0.00  0.00    +0.000 HD
BRANCH  14  16
ATOM     16  C   UNL     1       1.956   6.977  20.460  0.00  0.00    +0.000 C 
BRANCH  16  17
ATOM     17  C   UNL     1       1.832   8.172  19.574  0.00  0.00    +0.000 A 
ATOM     18  C   UNL     1       2.425   8.365  18.290  0.00  0.00    +0.000 A 
ATOM     19  C   UNL     1       3.294   7.450  17.508  0.00  0.00    +0.000 C 
ATOM     20  N   UNL     1       2.082   9.541  17.752  0.00  0.00    +0.000 NA
ATOM     21  N   UNL     1       1.250  10.090  18.648  0.00  0.00    +0.000 N 
ATOM     22  C   UNL     1       0.680  11.387  18.362  0.00  0.00    +0.000 C 
ATOM     23  C   UNL     1       1.030   9.296  19.745  0.00  0.00    +0.000 A 
ATOM     24  C   UNL     1       0.065   9.639  20.821  0.00  0.00    +0.000 C 
ENDBRANCH  16  17
ENDBRANCH  14  16
ENDBRANCH  11  12
BRANCH   1  25
ATOM     25  C   UNL     1       2.129   1.868  18.889  0.00  0.00    +0.000 C 
BRANCH  25  27
ATOM     26  C   UNL     1       0.125   3.047  19.296  0.00  0.00    +0.000 C 
ATOM     27  O   UNL     1       0.790   2.102  18.464  0.00  0.00    +0.000 OA
ENDBRANCH  25  27
ENDBRANCH   1  25
TORSDOF 5
ENDMDL
MODEL 6
REMARK VINA RESULT:      -7.0      2.829      8.268
REMARK  Name = 
REMARK  9 active torsions:
REMARK  status: ('A' for Active; 'I' for Inactive)
REMARK    1  A    between atoms: C_1  and  O_2
REMARK    2  A    between atoms: O_2  and  C_3
REMARK    3  A    between atoms: C_3  and  C_4
REMARK    4  A    between atoms: C_14  and  C_15
REMARK    5  A    between atoms: N_17  and  C_18
REMARK    6  A    between atoms: C_18  and  C_19
REMARK    7  A    between atoms: C_20  and  C_21
REMARK    8  A    between atoms: N_23  and  C_24
REMARK    9  A    between atoms: C_25  and  C_26
REMARK                            x       y       z     vdW  Elec       q    Type
REMARK                         _______ _______ _______ _____ _____    ______ ____
ROOT
ATOM      1  C   UNL     1      -0.539  11.012  18.924  0.00  0.00    +0.000 C 
ATOM      2  C   UNL     1      -0.459  12.440  18.388  0.00  0.00    +0.000 C 
ATOM      3  N   UNL     1       0.944  12.773  18.560  0.00  0.00    +0.000 N 
ATOM      4  C   UNL     1       1.369  14.016  18.955  0.00  0.00    +0.000 A 
ATOM      5  C   UNL     1       2.727  14.330  19.108  0.00  0.00    +0.000 A 
ATOM      6  N   UNL     1       3.206  15.524  19.541  0.00  0.00    +0.000 NA
ATOM      7  C   UNL     1       2.256  16.435  19.822  0.00  0.00    +0.000 A 
ATOM      8  C   UNL     1       0.911  16.162  19.669  0.00  0.00    +0.000 A 
ATOM      9  N   UNL     1       0.449  14.967  19.227  0.00  0.00    +0.000 NA
ATOM     10  C   UNL     1       1.798  11.592  18.579  0.00  0.00    +0.000 C 
ATOM     11  C   UNL     1       0.824  10.404  18.543  0.00  0.00    +0.000 C 
ENDROOT
BRANCH  11  12
ATOM     12  C   UNL     1       1.244   9.293  19.492  0.00  0.00    +0.000 C 
ATOM     13  O   UNL     1       1.002   9.359  20.705  0.00  0.00    +0.000 OA
ATOM     14  N   UNL     1       1.879   8.202  18.928  0.00  0.00    +0.000 N 
ATOM     15  H   UNL     1       1.801   8.042  17.930  0.00  0.00    +0.000 HD
BRANCH  14  16
ATOM     16  C   UNL     1       2.366   7.128  19.760  0.00  0.00    +0.000 C 
BRANCH  16  17
ATOM     17  C   UNL     1       2.558   5.881  18.961  0.00  0.00    +0.000 A 
ATOM     18  C   UNL     1       3.469   5.673  17.883  0.00  0.00    +0.000 A 
ATOM     19  C   UNL     1       4.451   6.614  17.287  0.00  0.00    +0.000 C 
ATOM     20  N   UNL     1       3.407   4.424  17.409  0.00  0.00    +0.000 NA
ATOM     21  N   UNL     1       2.503   3.814  18.186  0.00  0.00    +0.000 N 
ATOM     22  C   UNL     1       2.201   2.422  17.942  0.00  0.00    +0.000 C 
ATOM     23  C   UNL     1       1.987   4.628  19.164  0.00  0.00    +0.000 A 
ATOM     24  C   UNL     1       1.050   4.152  20.212  0.00  0.00    +0.000 C 
ENDBRANCH  16  17
ENDBRANCH  14  16
ENDBRANCH  11  12
BRANCH   1  25
ATOM     25  C   UNL     1      -1.763  10.265  18.400  0.00  0.00    +0.000 C 
BRANCH  25  27
ATOM     26  C   UNL     1      -2.587  10.174  16.190  0.00  0.00    +0.000 C 
ATOM     27  O   UNL     1      -1.529   9.811  17.071  0.00  0.00    +0.000 OA
ENDBRANCH  25  27
ENDBRANCH   1  25
TORSDOF 5
ENDMDL
MODEL 7
REMARK VINA RESULT:      -7.0      3.210      5.289
REMARK  Name = 
REMARK  9 active torsions:
REMARK  status: ('A' for Active; 'I' for Inactive)
REMARK    1  A    between atoms: C_1  and  O_2
REMARK    2  A    between atoms: O_2  and  C_3
REMARK    3  A    between atoms: C_3  and  C_4
REMARK    4  A    between atoms: C_14  and  C_15
REMARK    5  A    between atoms: N_17  and  C_18
REMARK    6  A    between atoms: C_18  and  C_19
REMARK    7  A    between atoms: C_20  and  C_21
REMARK    8  A    between atoms: N_23  and  C_24
REMARK    9  A    between atoms: C_25  and  C_26
REMARK                            x       y       z     vdW  Elec       q    Type
REMARK                         _______ _______ _______ _____ _____    ______ ____
ROOT
ATOM      1  C   UNL     1       1.274   8.004  20.489  0.00  0.00    +0.000 C 
ATOM      2  C   UNL     1       1.803   6.614  20.836  0.00  0.00    +0.000 C 
ATOM      3  N   UNL     1       2.146   6.064  19.536  0.00  0.00    +0.000 N 
ATOM      4  C   UNL     1       1.931   4.751  19.205  0.00  0.00    +0.000 A 
ATOM      5  C   UNL     1       2.277   4.227  17.951  0.00  0.00    +0.000 A 
ATOM      6  N   UNL     1       2.044   2.952  17.549  0.00  0.00    +0.000 NA
ATOM      7  C   UNL     1       1.441   2.179  18.471  0.00  0.00    +0.000 A 
ATOM      8  C   UNL     1       1.100   2.660  19.720  0.00  0.00    +0.000 A 
ATOM      9  N   UNL     1       1.346   3.934  20.109  0.00  0.00    +0.000 NA
ATOM     10  C   UNL     1       2.435   7.100  18.552  0.00  0.00    +0.000 C 
ATOM     11  C   UNL     1       2.118   8.421  19.270  0.00  0.00    +0.000 C 
ENDROOT
BRANCH  11  12
ATOM     12  C   UNL     1       1.384   9.399  18.367  0.00  0.00    +0.000 C 
ATOM     13  O   UNL     1       1.959   9.953  17.420  0.00  0.00    +0.000 OA
ATOM     14  N   UNL     1       0.046   9.614  18.641  0.00  0.00    +0.000 N 
ATOM     15  H   UNL     1      -0.457   8.947  19.215  0.00  0.00    +0.000 HD
BRANCH  14  16
ATOM     16  C   UNL     1      -0.714  10.570  17.873  0.00  0.00    +0.000 C 
BRANCH  16  17
ATOM     17  C   UNL     1      -1.571  11.408  18.764  0.00  0.00    +0.000 A 
ATOM     18  C   UNL     1      -1.141  12.372  19.724  0.00  0.00    +0.000 A 
ATOM     19  C   UNL     1       0.236  12.795  20.081  0.00  0.00    +0.000 C 
ATOM     20  N   UNL     1      -2.174  12.970  20.330  0.00  0.00    +0.000 NA
ATOM     21  N   UNL     1      -3.257  12.436  19.750  0.00  0.00    +0.000 N 
ATOM     22  C   UNL     1      -4.565  12.882  20.177  0.00  0.00    +0.000 C 
ATOM     23  C   UNL     1      -2.958  11.521  18.772  0.00  0.00    +0.000 A 
ATOM     24  C   UNL     1      -3.984  10.876  17.915  0.00  0.00    +0.000 C 
ENDBRANCH  16  17
ENDBRANCH  14  16
ENDBRANCH  11  12
BRANCH   1  25
ATOM     25  C   UNL     1       1.323   8.957  21.681  0.00  0.00    +0.000 C 
BRANCH  25  27
ATOM     26  C   UNL     1      -0.412   9.755  23.069  0.00  0.00    +0.000 C 
ATOM     27  O   UNL     1       0.122   9.719  21.749  0.00  0.00    +0.000 OA
ENDBRANCH  25  27
ENDBRANCH   1  25
TORSDOF 5
ENDMDL
MODEL 8
REMARK VINA RESULT:      -6.9      2.962      5.042
REMARK  Name = 
REMARK  9 active torsions:
REMARK  status: ('A' for Active; 'I' for Inactive)
REMARK    1  A    between atoms: C_1  and  O_2
REMARK    2  A    between atoms: O_2  and  C_3
REMARK    3  A    between atoms: C_3  and  C_4
REMARK    4  A    between atoms: C_14  and  C_15
REMARK    5  A    between atoms: N_17  and  C_18
REMARK    6  A    between atoms: C_18  and  C_19
REMARK    7  A    between atoms: C_20  and  C_21
REMARK    8  A    between atoms: N_23  and  C_24
REMARK    9  A    between atoms: C_25  and  C_26
REMARK                            x       y       z     vdW  Elec       q    Type
REMARK                         _______ _______ _______ _____ _____    ______ ____
ROOT
ATOM      1  C   UNL     1       1.068   7.929  20.597  0.00  0.00    +0.000 C 
ATOM      2  C   UNL     1       1.622   6.536  20.887  0.00  0.00    +0.000 C 
ATOM      3  N   UNL     1       2.194   6.141  19.612  0.00  0.00    +0.000 N 
ATOM      4  C   UNL     1       2.113   4.861  19.127  0.00  0.00    +0.000 A 
ATOM      5  C   UNL     1       2.678   4.488  17.899  0.00  0.00    +0.000 A 
ATOM      6  N   UNL     1       2.589   3.253  17.344  0.00  0.00    +0.000 NA
ATOM      7  C   UNL     1       1.900   2.361  18.080  0.00  0.00    +0.000 A 
ATOM      8  C   UNL     1       1.343   2.692  19.300  0.00  0.00    +0.000 A 
ATOM      9  N   UNL     1       1.448   3.929  19.844  0.00  0.00    +0.000 NA
ATOM     10  C   UNL     1       2.566   7.287  18.791  0.00  0.00    +0.000 C 
ATOM     11  C   UNL     1       2.062   8.509  19.574  0.00  0.00    +0.000 C 
ENDROOT
BRANCH  11  12
ATOM     12  C   UNL     1       1.417   9.542  18.663  0.00  0.00    +0.000 C 
ATOM     13  O   UNL     1       1.384   9.384  17.436  0.00  0.00    +0.000 OA
ATOM     14  N   UNL     1       0.848  10.643  19.278  0.00  0.00    +0.000 N 
ATOM     15  H   UNL     1       0.633  10.604  20.268  0.00  0.00    +0.000 HD
BRANCH  14  16
ATOM     16  C   UNL     1       0.266  11.702  18.490  0.00  0.00    +0.000 C 
BRANCH  16  17
ATOM     17  C   UNL     1      -1.212  11.762  18.688  0.00  0.00    +0.000 A 
ATOM     18  C   UNL     1      -2.213  11.025  17.987  0.00  0.00    +0.000 A 
ATOM     19  C   UNL     1      -2.055  10.021  16.905  0.00  0.00    +0.000 C 
ATOM     20  N   UNL     1      -3.443  11.295  18.438  0.00  0.00    +0.000 NA
ATOM     21  N   UNL     1      -3.249  12.162  19.442  0.00  0.00    +0.000 N 
ATOM     22  C   UNL     1      -4.399  12.656  20.165  0.00  0.00    +0.000 C 
ATOM     23  C   UNL     1      -1.926  12.449  19.666  0.00  0.00    +0.000 A 
ATOM     24  C   UNL     1      -1.454  13.297  20.789  0.00  0.00    +0.000 C 
ENDBRANCH  16  17
ENDBRANCH  14  16
ENDBRANCH  11  12
BRANCH   1  25
ATOM     25  C   UNL     1       0.875   8.753  21.867  0.00  0.00    +0.000 C 
BRANCH  25  27
ATOM     26  C   UNL     1      -0.610  10.195  23.001  0.00  0.00    +0.000 C 
ATOM     27  O   UNL     1      -0.339   9.493  21.792  0.00  0.00    +0.000 OA
ENDBRANCH  25  27
ENDBRANCH   1  25
TORSDOF 5
ENDMDL
MODEL 9
REMARK VINA RESULT:      -6.9      2.020      2.756
REMARK  Name = 
REMARK  9 active torsions:
REMARK  status: ('A' for Active; 'I' for Inactive)
REMARK    1  A    between atoms: C_1  and  O_2
REMARK    2  A    between atoms: O_2  and  C_3
REMARK    3  A    between atoms: C_3  and  C_4
REMARK    4  A    between atoms: C_14  and  C_15
REMARK    5  A    between atoms: N_17  and  C_18
REMARK    6  A    between atoms: C_18  and  C_19
REMARK    7  A    between atoms: C_20  and  C_21
REMARK    8  A    between atoms: N_23  and  C_24
REMARK    9  A    between atoms: C_25  and  C_26
REMARK                            x       y       z     vdW  Elec       q    Type
REMARK                         _______ _______ _______ _____ _____    ______ ____
ROOT
ATOM      1  C   UNL     1       2.287   5.421  18.660  0.00  0.00    +0.000 C 
ATOM      2  C   UNL     1       3.490   4.514  18.411  0.00  0.00    +0.000 C 
ATOM      3  N   UNL     1       4.489   5.434  17.896  0.00  0.00    +0.000 N 
ATOM      4  C   UNL     1       5.356   5.101  16.888  0.00  0.00    +0.000 A 
ATOM      5  C   UNL     1       6.324   5.993  16.406  0.00  0.00    +0.000 A 
ATOM      6  N   UNL     1       7.176   5.739  15.380  0.00  0.00    +0.000 NA
ATOM      7  C   UNL     1       7.036   4.518  14.831  0.00  0.00    +0.000 A 
ATOM      8  C   UNL     1       6.102   3.610  15.291  0.00  0.00    +0.000 A 
ATOM      9  N   UNL     1       5.264   3.877  16.322  0.00  0.00    +0.000 NA
ATOM     10  C   UNL     1       4.260   6.806  18.333  0.00  0.00    +0.000 C 
ATOM     11  C   UNL     1       2.921   6.758  19.086  0.00  0.00    +0.000 C 
ENDROOT
BRANCH  11  12
ATOM     12  C   UNL     1       2.036   7.949  18.752  0.00  0.00    +0.000 C 
ATOM     13  O   UNL     1       1.815   8.274  17.578  0.00  0.00    +0.000 OA
ATOM     14  N   UNL     1       1.474   8.624  19.820  0.00  0.00    +0.000 N 
ATOM     15  H   UNL     1       1.431   8.173  20.727  0.00  0.00    +0.000 HD
BRANCH  14  16
ATOM     16  C   UNL     1       0.670   9.801  19.600  0.00  0.00    +0.000 C 
BRANCH  16  17
ATOM     17  C   UNL     1       0.037  10.259  20.872  0.00  0.00    +0.000 A 
ATOM     18  C   UNL     1       0.430   9.931  22.204  0.00  0.00    +0.000 A 
ATOM     19  C   UNL     1       1.549   9.073  22.669  0.00  0.00    +0.000 C 
ATOM     20  N   UNL     1      -0.334  10.541  23.117  0.00  0.00    +0.000 NA
ATOM     21  N   UNL     1      -1.185  11.285  22.398  0.00  0.00    +0.000 N 
ATOM     22  C   UNL     1      -2.160  12.094  23.095  0.00  0.00    +0.000 C 
ATOM     23  C   UNL     1      -0.984  11.189  21.044  0.00  0.00    +0.000 A 
ATOM     24  C   UNL     1      -1.730  11.999  20.048  0.00  0.00    +0.000 C 
ENDBRANCH  16  17
ENDBRANCH  14  16
ENDBRANCH  11  12
BRANCH   1  25
ATOM     25  C   UNL     1       1.300   4.814  19.653  0.00  0.00    +0.000 C 
BRANCH  25  27
ATOM     26  C   UNL     1       1.417   2.890  21.017  0.00  0.00    +0.000 C 
ATOM     27  O   UNL     1       1.445   3.398  19.686  0.00  0.00    +0.000 OA
ENDBRANCH  25  27
ENDBRANCH   1  25
TORSDOF 5
ENDMDL
