MODEL 1
REMARK VINA RESULT:      -7.7      0.000      0.000
REMARK  Name = 
REMARK  8 active torsions:
REMARK  status: ('A' for Active; 'I' for Inactive)
REMARK    1  A    between atoms: C_1  and  O_2
REMARK    2  A    between atoms: O_2  and  C_3
REMARK    3  A    between atoms: C_9  and  C_10
REMARK    4  A    between atoms: C_10  and  C_11
REMARK    5  A    between atoms: N_15  and  C_16
REMARK    6  A    between atoms: C_16  and  C_17
REMARK    7  A    between atoms: C_20  and  C_21
REMARK    8  A    between atoms: C_24  and  O_25
REMARK                            x       y       z     vdW  Elec       q    Type
REMARK                         _______ _______ _______ _____ _____    ______ ____
ROOT
ATOM      1  C   UNL     1       2.288   7.949  18.694  0.00  0.00    +0.000 A 
ATOM      2  S   UNL     1       1.828   7.475  20.311  0.00  0.00    +0.000 S 
ATOM      3  C   UNL     1       0.972   9.000  20.565  0.00  0.00    +0.000 A 
ATOM      4  O   UNL     1       0.395   9.278  21.603  0.00  0.00    +0.000 OA
ATOM      5  N   UNL     1       1.093   9.775  19.416  0.00  0.00    +0.000 N 
ATOM      6  C   UNL     1       1.826   9.177  18.409  0.00  0.00    +0.000 A 
ENDROOT
BRANCH   6   7
ATOM      7  O   UNL     1       2.055   9.815  17.226  0.00  0.00    +0.000 OA
ATOM      8  H   UNL     1       2.644   9.261  16.694  0.00  0.00    +0.000 HD
ENDBRANCH   6   7
BRANCH   1   9
ATOM      9  C   UNL     1       3.205   7.105  17.861  0.00  0.00    +0.000 C 
BRANCH   9  16
ATOM     10  C   UNL     1       4.651   5.146  18.665  0.00  0.00    +0.000 A 
ATOM     11  C   UNL     1       4.760   3.801  19.041  0.00  0.00    +0.000 A 
ATOM     12  C   UNL     1       3.631   2.979  19.086  0.00  0.00    +0.000 A 
ATOM     13  C   UNL     1       2.382   3.505  18.773  0.00  0.00    +0.000 A 
ATOM     14 BR   UNL     1       0.856   2.394  18.828  0.00  0.00    +0.000 Br
ATOM     15  C   UNL     1       2.255   4.844  18.410  0.00  0.00    +0.000 A 
ATOM     16  C   UNL     1       3.387   5.678  18.340  0.00  0.00    +0.000 A 
BRANCH  10  18
ATOM     17  C   UNL     1       6.945   5.561  19.147  0.00  0.00    +0.000 C 
ATOM     18  O   UNL     1       5.713   6.010  18.595  0.00  0.00    +0.000 OA
ENDBRANCH  10  18
ENDBRANCH   9  16
ENDBRANCH   1   9
BRANCH   5  19
ATOM     19  C   UNL     1       0.456  11.075  19.369  0.00  0.00    +0.000 C 
BRANCH  19  20
ATOM     20  C   UNL     1      -0.990  11.038  18.920  0.00  0.00    +0.000 A 
ATOM     21  C   UNL     1      -1.944  11.902  19.478  0.00  0.00    +0.000 A 
ATOM     22  C   UNL     1      -3.260  11.916  19.002  0.00  0.00    +0.000 A 
ATOM     23  C   UNL     1      -3.652  11.070  17.957  0.00  0.00    +0.000 A 
ATOM     24  C   UNL     1      -5.045  11.109  17.403  0.00  0.00    +0.000 C 
ATOM     25  C   UNL     1      -2.706  10.203  17.402  0.00  0.00    +0.000 A 
ATOM     26  C   UNL     1      -1.391  10.188  17.876  0.00  0.00    +0.000 A 
ENDBRANCH  19  20
ENDBRANCH   5  19
TORSDOF 6
ENDMDL
MODEL 2
REMARK VINA RESULT:      -7.5      4.154      8.117
REMARK  Name = 
REMARK  8 active torsions:
REMARK  status: ('A' for Active; 'I' for Inactive)
REMARK    1  A    between atoms: C_1  and  O_2
REMARK    2  A    between atoms: O_2  and  C_3
REMARK    3  A    between atoms: C_9  and  C_10
REMARK    4  A    between atoms: C_10  and  C_11
REMARK    5  A    between atoms: N_15  and  C_16
REMARK    6  A    between atoms: C_16  and  C_17
REMARK    7  A    between atoms: C_20  and  C_21
REMARK    8  A    between atoms: C_24  and  O_25
REMARK                            x       y       z     vdW  Elec       q    Type
REMARK                         _______ _______ _______ _____ _____    ______ ____
ROOT
ATOM      1  C   UNL     1       4.840   6.391  17.742  0.00  0.00    +0.000 A 
ATOM      2  S   UNL     1       5.736   5.473  18.926  0.00  0.00    +0.000 S 
ATOM      3  C   UNL     1       6.996   5.091  17.748  0.00  0.00    +0.000 A 
ATOM      4  O   UNL     1       7.975   4.413  18.011  0.00  0.00    +0.000 OA
ATOM      5  N   UNL     1       6.658   5.674  16.531  0.00  0.00    +0.000 N 
ATOM      6  C   UNL     1       5.468   6.375  16.554  0.00  0.00    +0.000 A 
ENDROOT
BRANCH   6   7
ATOM      7  O   UNL     1       4.985   6.988  15.437  0.00  0.00    +0.000 OA
ATOM      8  H   UNL     1       5.414   6.591  14.665  0.00  0.00    +0.000 HD
ENDBRANCH   6   7
BRANCH   1   9
ATOM      9  C   UNL     1       3.487   6.959  18.050  0.00  0.00    +0.000 C 
BRANCH   9  16
ATOM     10  C   UNL     1       1.959   6.500  20.056  0.00  0.00    +0.000 A 
ATOM     11  C   UNL     1       1.182   5.605  20.802  0.00  0.00    +0.000 A 
ATOM     12  C   UNL     1       1.025   4.280  20.386  0.00  0.00    +0.000 A 
ATOM     13  C   UNL     1       1.630   3.849  19.211  0.00  0.00    +0.000 A 
ATOM     14 BR   UNL     1       1.424   2.057  18.651  0.00  0.00    +0.000 Br
ATOM     15  C   UNL     1       2.395   4.731  18.452  0.00  0.00    +0.000 A 
ATOM     16  C   UNL     1       2.579   6.063  18.869  0.00  0.00    +0.000 A 
BRANCH  10  18
ATOM     17  C   UNL     1       1.210   8.397  21.286  0.00  0.00    +0.000 C 
ATOM     18  O   UNL     1       2.160   7.811  20.403  0.00  0.00    +0.000 OA
ENDBRANCH  10  18
ENDBRANCH   9  16
ENDBRANCH   1   9
BRANCH   5  19
ATOM     19  C   UNL     1       7.549   5.519  15.400  0.00  0.00    +0.000 C 
BRANCH  19  20
ATOM     20  C   UNL     1       6.982   4.676  14.278  0.00  0.00    +0.000 A 
ATOM     21  C   UNL     1       5.854   3.866  14.479  0.00  0.00    +0.000 A 
ATOM     22  C   UNL     1       5.289   3.152  13.417  0.00  0.00    +0.000 A 
ATOM     23  C   UNL     1       5.836   3.231  12.130  0.00  0.00    +0.000 A 
ATOM     24  C   UNL     1       5.213   2.510  10.972  0.00  0.00    +0.000 C 
ATOM     25  C   UNL     1       6.964   4.031  11.927  0.00  0.00    +0.000 A 
ATOM     26  C   UNL     1       7.529   4.746  12.987  0.00  0.00    +0.000 A 
ENDBRANCH  19  20
ENDBRANCH   5  19
TORSDOF 6
ENDMDL
MODEL 3
REMARK VINA RESULT:      -7.4      2.242      2.889
REMARK  Name = 
REMARK  8 active torsions:
REMARK  status: ('A' for Active; 'I' for Inactive)
REMARK    1  A    between atoms: C_1  and  O_2
REMARK    2  A    between atoms: O_2  and  C_3
REMARK    3  A    between atoms: C_9  and  C_10
REMARK    4  A    between atoms: C_10  and  C_11
REMARK    5  A    between atoms: N_15  and  C_16
REMARK    6  A    between atoms: C_16  and  C_17
REMARK    7  A    between atoms: C_20  and  C_21
REMARK    8  A    between atoms: C_24  and  O_25
REMARK                            x       y       z     vdW  Elec       q    Type
REMARK                         _______ _______ _______ _____ _____    ______ ____
ROOT
ATOM      1  C   UNL     1       2.539   6.896  18.455  0.00  0.00    +0.000 A 
ATOM      2  S   UNL     1       2.140   6.413  20.085  0.00  0.00    +0.000 S 
ATOM      3  C   UNL     1       1.541   8.031  20.469  0.00  0.00    +0.000 A 
ATOM      4  O   UNL     1       1.094   8.336  21.562  0.00  0.00    +0.000 OA
ATOM      5  N   UNL     1       1.686   8.837  19.345  0.00  0.00    +0.000 N 
ATOM      6  C   UNL     1       2.243   8.192  18.258  0.00  0.00    +0.000 A 
ENDROOT
BRANCH   6   7
ATOM      7  O   UNL     1       2.471   8.848  17.085  0.00  0.00    +0.000 OA
ATOM      8  H   UNL     1       1.642   8.871  16.586  0.00  0.00    +0.000 HD
ENDBRANCH   6   7
BRANCH   1   9
ATOM      9  C   UNL     1       3.254   5.972  17.516  0.00  0.00    +0.000 C 
BRANCH   9  16
ATOM     10  C   UNL     1       5.351   4.644  18.156  0.00  0.00    +0.000 A 
ATOM     11  C   UNL     1       6.729   4.610  18.409  0.00  0.00    +0.000 A 
ATOM     12  C   UNL     1       7.508   5.761  18.264  0.00  0.00    +0.000 A 
ATOM     13  C   UNL     1       6.915   6.947  17.847  0.00  0.00    +0.000 A 
ATOM     14 BR   UNL     1       7.966   8.505  17.657  0.00  0.00    +0.000 Br
ATOM     15  C   UNL     1       5.549   6.994  17.580  0.00  0.00    +0.000 A 
ATOM     16  C   UNL     1       4.748   5.848  17.742  0.00  0.00    +0.000 A 
BRANCH  10  18
ATOM     17  C   UNL     1       4.406   2.983  19.577  0.00  0.00    +0.000 C 
ATOM     18  O   UNL     1       4.524   3.558  18.280  0.00  0.00    +0.000 OA
ENDBRANCH  10  18
ENDBRANCH   9  16
ENDBRANCH   1   9
BRANCH   5  19
ATOM     19  C   UNL     1       1.246  10.216  19.401  0.00  0.00    +0.000 C 
BRANCH  19  20
ATOM     20  C   UNL     1      -0.182  10.428  18.944  0.00  0.00    +0.000 A 
ATOM     21  C   UNL     1      -1.027  11.332  19.604  0.00  0.00    +0.000 A 
ATOM     22  C   UNL     1      -2.319  11.581  19.127  0.00  0.00    +0.000 A 
ATOM     23  C   UNL     1      -2.795  10.934  17.981  0.00  0.00    +0.000 A 
ATOM     24  C   UNL     1      -4.159  11.226  17.429  0.00  0.00    +0.000 C 
ATOM     25  C   UNL     1      -1.958  10.026  17.324  0.00  0.00    +0.000 A 
ATOM     26  C   UNL     1      -0.667   9.778  17.798  0.00  0.00    +0.000 A 
ENDBRANCH  19  20
ENDBRANCH   5  19
TORSDOF 6
ENDMDL
MODEL 4
REMARK VINA RESULT:      -7.3      2.012      2.966
REMARK  Name = 
REMARK  8 active torsions:
REMARK  status: ('A' for Active; 'I' for Inactive)
REMARK    1  A    between atoms: C_1  and  O_2
REMARK    2  A    between atoms: O_2  and  C_3
REMARK    3  A    between atoms: C_9  and  C_10
REMARK    4  A    between atoms: C_10  and  C_11
REMARK    5  A    between atoms: N_15  and  C_16
REMARK    6  A    between atoms: C_16  and  C_17
REMARK    7  A    between atoms: C_20  and  C_21
REMARK    8  A    between atoms: C_24  and  O_25
REMARK                            x       y       z     vdW  Elec       q    Type
REMARK                         _______ _______ _______ _____ _____    ______ ____
ROOT
ATOM      1  C   UNL     1       2.194   7.420  19.420  0.00  0.00    +0.000 A 
ATOM      2  S   UNL     1       2.805   8.042  17.908  0.00  0.00    +0.000 S 
ATOM      3  C   UNL     1       1.990   9.590  18.160  0.00  0.00    +0.000 A 
ATOM      4  O   UNL     1       2.049  10.514  17.367  0.00  0.00    +0.000 OA
ATOM      5  N   UNL     1       1.302   9.537  19.368  0.00  0.00    +0.000 N 
ATOM      6  C   UNL     1       1.424   8.334  20.034  0.00  0.00    +0.000 A 
ENDROOT
BRANCH   6   7
ATOM      7  O   UNL     1       0.793   8.114  21.222  0.00  0.00    +0.000 OA
ATOM      8  H   UNL     1       0.068   8.750  21.300  0.00  0.00    +0.000 HD
ENDBRANCH   6   7
BRANCH   1   9
ATOM      9  C   UNL     1       2.419   5.995  19.830  0.00  0.00    +0.000 C 
BRANCH   9  16
ATOM     10  C   UNL     1       2.592   4.124  18.086  0.00  0.00    +0.000 A 
ATOM     11  C   UNL     1       3.377   3.336  17.234  0.00  0.00    +0.000 A 
ATOM     12  C   UNL     1       4.754   3.552  17.131  0.00  0.00    +0.000 A 
ATOM     13  C   UNL     1       5.349   4.570  17.867  0.00  0.00    +0.000 A 
ATOM     14 BR   UNL     1       7.211   4.860  17.733  0.00  0.00    +0.000 Br
ATOM     15  C   UNL     1       4.580   5.370  18.709  0.00  0.00    +0.000 A 
ATOM     16  C   UNL     1       3.196   5.151  18.839  0.00  0.00    +0.000 A 
BRANCH  10  18
ATOM     17  C   UNL     1       0.788   2.715  18.744  0.00  0.00    +0.000 C 
ATOM     18  O   UNL     1       1.239   3.968  18.242  0.00  0.00    +0.000 OA
ENDBRANCH  10  18
ENDBRANCH   9  16
ENDBRANCH   1   9
BRANCH   5  19
ATOM     19  C   UNL     1       0.562  10.701  19.811  0.00  0.00    +0.000 C 
BRANCH  19  20
ATOM     20  C   UNL     1      -0.821  10.821  19.207  0.00  0.00    +0.000 A 
ATOM     21  C   UNL     1      -1.735  11.778  19.673  0.00  0.00    +0.000 A 
ATOM     22  C   UNL     1      -2.982  11.935  19.057  0.00  0.00    +0.000 A 
ATOM     23  C   UNL     1      -3.343  11.142  17.961  0.00  0.00    +0.000 A 
ATOM     24  C   UNL     1      -4.655  11.332  17.259  0.00  0.00    +0.000 C 
ATOM     25  C   UNL     1      -2.437  10.182  17.497  0.00  0.00    +0.000 A 
ATOM     26  C   UNL     1      -1.191  10.025  18.111  0.00  0.00    +0.000 A 
ENDBRANCH  19  20
ENDBRANCH   5  19
TORSDOF 6
ENDMDL
MODEL 5
REMARK VINA RESULT:      -7.3      1.860      2.638
REMARK  Name = 
REMARK  8 active torsions:
REMARK  status: ('A' for Active; 'I' for Inactive)
REMARK    1  A    between atoms: C_1  and  O_2
REMARK    2  A    between atoms: O_2  and  C_3
REMARK    3  A    between atoms: C_9  and  C_10
REMARK    4  A    between atoms: C_10  and  C_11
REMARK    5  A    between atoms: N_15  and  C_16
REMARK    6  A    between atoms: C_16  and  C_17
REMARK    7  A    between atoms: C_20  and  C_21
REMARK    8  A    between atoms: C_24  and  O_25
REMARK                            x       y       z     vdW  Elec       q    Type
REMARK                         _______ _______ _______ _____ _____    ______ ____
ROOT
ATOM      1  C   UNL     1       2.263   8.059  18.382  0.00  0.00    +0.000 A 
ATOM      2  S   UNL     1       1.987   7.324  19.941  0.00  0.00    +0.000 S 
ATOM      3  C   UNL     1       1.155   8.768  20.529  0.00  0.00    +0.000 A 
ATOM      4  O   UNL     1       0.695   8.863  21.654  0.00  0.00    +0.000 OA
ATOM      5  N   UNL     1       1.144   9.718  19.514  0.00  0.00    +0.000 N 
ATOM      6  C   UNL     1       1.765   9.307  18.351  0.00  0.00    +0.000 A 
ENDROOT
BRANCH   6   7
ATOM      7  O   UNL     1       1.858  10.130  17.267  0.00  0.00    +0.000 OA
ATOM      8  H   UNL     1       1.123  10.758  17.302  0.00  0.00    +0.000 HD
ENDBRANCH   6   7
BRANCH   1   9
ATOM      9  C   UNL     1       3.087   7.381  17.330  0.00  0.00    +0.000 C 
BRANCH   9  16
ATOM     10  C   UNL     1       3.379   4.916  17.973  0.00  0.00    +0.000 A 
ATOM     11  C   UNL     1       4.182   3.889  18.485  0.00  0.00    +0.000 A 
ATOM     12  C   UNL     1       5.509   4.135  18.848  0.00  0.00    +0.000 A 
ATOM     13  C   UNL     1       6.044   5.408  18.684  0.00  0.00    +0.000 A 
ATOM     14 BR   UNL     1       7.835   5.744  19.181  0.00  0.00    +0.000 Br
ATOM     15  C   UNL     1       5.262   6.437  18.165  0.00  0.00    +0.000 A 
ATOM     16  C   UNL     1       3.918   6.208  17.814  0.00  0.00    +0.000 A 
BRANCH  10  18
ATOM     17  C   UNL     1       1.349   3.698  18.230  0.00  0.00    +0.000 C 
ATOM     18  O   UNL     1       2.071   4.751  17.599  0.00  0.00    +0.000 OA
ENDBRANCH  10  18
ENDBRANCH   9  16
ENDBRANCH   1   9
BRANCH   5  19
ATOM     19  C   UNL     1       0.498  10.994  19.746  0.00  0.00    +0.000 C 
BRANCH  19  20
ATOM     20  C   UNL     1      -0.900  11.092  19.171  0.00  0.00    +0.000 A 
ATOM     21  C   UNL     1      -1.349  10.183  18.201  0.00  0.00    +0.000 A 
ATOM     22  C   UNL     1      -2.667  10.232  17.733  0.00  0.00    +0.000 A 
ATOM     23  C   UNL     1      -3.566  11.187  18.225  0.00  0.00    +0.000 A 
ATOM     24  C   UNL     1      -4.995  11.220  17.770  0.00  0.00    +0.000 C 
ATOM     25  C   UNL     1      -3.120  12.098  19.187  0.00  0.00    +0.000 A 
ATOM     26  C   UNL     1      -1.804  12.051  19.656  0.00  0.00    +0.000 A 
ENDBRANCH  19  20
ENDBRANCH   5  19
TORSDOF 6
ENDMDL
MODEL 6
REMARK VINA RESULT:      -7.2      3.212      7.829
REMARK  Name = 
REMARK  8 active torsions:
REMARK  status: ('A' for Active; 'I' for Inactive)
REMARK    1  A    between atoms: C_1  and  O_2
REMARK    2  A    between atoms: O_2  and  C_3
REMARK    3  A    between atoms: C_9  and  C_10
REMARK    4  A    between atoms: C_10  and  C_11
REMARK    5  A    between atoms: N_15  and  C_16
REMARK    6  A    between atoms: C_16  and  C_17
REMARK    7  A    between atoms: C_20  and  C_21
REMARK    8  A    between atoms: C_24  and  O_25
REMARK                            x       y       z     vdW  Elec       q    Type
REMARK                         _______ _______ _______ _____ _____    ______ ____
ROOT
ATOM      1  C   UNL     1       0.231  10.414  18.933  0.00  0.00    +0.000 A 
ATOM      2  S   UNL     1      -0.250  10.194  20.597  0.00  0.00    +0.000 S 
ATOM      3  C   UNL     1       0.918   8.885  20.811  0.00  0.00    +0.000 A 
ATOM      4  O   UNL     1       1.059   8.279  21.860  0.00  0.00    +0.000 OA
ATOM      5  N   UNL     1       1.593   8.691  19.611  0.00  0.00    +0.000 N 
ATOM      6  C   UNL     1       1.191   9.537  18.596  0.00  0.00    +0.000 A 
ENDROOT
BRANCH   6   7
ATOM      7  O   UNL     1       1.740   9.461  17.350  0.00  0.00    +0.000 OA
ATOM      8  H   UNL     1       1.726  10.347  16.960  0.00  0.00    +0.000 HD
ENDBRANCH   6   7
BRANCH   1   9
ATOM      9  C   UNL     1      -0.489  11.369  18.029  0.00  0.00    +0.000 C 
BRANCH   9  16
ATOM     10  C   UNL     1      -2.844  10.769  17.212  0.00  0.00    +0.000 A 
ATOM     11  C   UNL     1      -4.234  10.865  17.360  0.00  0.00    +0.000 A 
ATOM     12  C   UNL     1      -4.790  11.564  18.435  0.00  0.00    +0.000 A 
ATOM     13  C   UNL     1      -3.958  12.156  19.377  0.00  0.00    +0.000 A 
ATOM     14 BR   UNL     1      -4.708  13.106  20.827  0.00  0.00    +0.000 Br
ATOM     15  C   UNL     1      -2.574  12.059  19.252  0.00  0.00    +0.000 A 
ATOM     16  C   UNL     1      -1.999  11.376  18.164  0.00  0.00    +0.000 A 
BRANCH  10  18
ATOM     17  C   UNL     1      -2.949   9.997  14.962  0.00  0.00    +0.000 C 
ATOM     18  O   UNL     1      -2.228  10.105  16.184  0.00  0.00    +0.000 OA
ENDBRANCH  10  18
ENDBRANCH   9  16
ENDBRANCH   1   9
BRANCH   5  19
ATOM     19  C   UNL     1       2.624   7.676  19.534  0.00  0.00    +0.000 C 
BRANCH  19  20
ATOM     20  C   UNL     1       2.096   6.275  19.303  0.00  0.00    +0.000 A 
ATOM     21  C   UNL     1       2.048   5.724  18.014  0.00  0.00    +0.000 A 
ATOM     22  C   UNL     1       1.633   4.401  17.819  0.00  0.00    +0.000 A 
ATOM     23  C   UNL     1       1.259   3.601  18.905  0.00  0.00    +0.000 A 
ATOM     24  C   UNL     1       0.860   2.167  18.717  0.00  0.00    +0.000 C 
ATOM     25  C   UNL     1       1.299   4.150  20.190  0.00  0.00    +0.000 A 
ATOM     26  C   UNL     1       1.714   5.469  20.388  0.00  0.00    +0.000 A 
ENDBRANCH  19  20
ENDBRANCH   5  19
TORSDOF 6
ENDMDL
MODEL 7
REMARK VINA RESULT:      -7.2      0.907      1.319
REMARK  Name = 
REMARK  8 active torsions:
REMARK  status: ('A' for Active; 'I' for Inactive)
REMARK    1  A    between atoms: C_1  and  O_2
REMARK    2  A    between atoms: O_2  and  C_3
REMARK    3  A    between atoms: C_9  and  C_10
REMARK    4  A    between atoms: C_10  and  C_11
REMARK    5  A    between atoms: N_15  and  C_16
REMARK    6  A    between atoms: C_16  and  C_17
REMARK    7  A    between atoms: C_20  and  C_21
REMARK    8  A    between atoms: C_24  and  O_25
REMARK                            x       y       z     vdW  Elec       q    Type
REMARK                         _______ _______ _______ _____ _____    ______ ____
ROOT
ATOM      1  C   UNL     1       2.317   8.025  18.488  0.00  0.00    +0.000 A 
ATOM      2  S   UNL     1       1.995   7.255  20.022  0.00  0.00    +0.000 S 
ATOM      3  C   UNL     1       1.083   8.658  20.589  0.00  0.00    +0.000 A 
ATOM      4  O   UNL     1       0.567   8.718  21.693  0.00  0.00    +0.000 OA
ATOM      5  N   UNL     1       1.085   9.624  19.588  0.00  0.00    +0.000 N 
ATOM      6  C   UNL     1       1.775   9.253  18.450  0.00  0.00    +0.000 A 
ENDROOT
BRANCH   6   7
ATOM      7  O   UNL     1       1.889  10.097  17.385  0.00  0.00    +0.000 OA
ATOM      8  H   UNL     1       0.998  10.350  17.105  0.00  0.00    +0.000 HD
ENDBRANCH   6   7
BRANCH   1   9
ATOM      9  C   UNL     1       3.215   7.394  17.467  0.00  0.00    +0.000 C 
BRANCH   9  16
ATOM     10  C   UNL     1       4.454   5.189  17.043  0.00  0.00    +0.000 A 
ATOM     11  C   UNL     1       4.483   3.790  17.103  0.00  0.00    +0.000 A 
ATOM     12  C   UNL     1       3.417   3.078  17.660  0.00  0.00    +0.000 A 
ATOM     13  C   UNL     1       2.325   3.764  18.177  0.00  0.00    +0.000 A 
ATOM     14 BR   UNL     1       0.881   2.803  18.925  0.00  0.00    +0.000 Br
ATOM     15  C   UNL     1       2.286   5.156  18.137  0.00  0.00    +0.000 A 
ATOM     16  C   UNL     1       3.343   5.886  17.560  0.00  0.00    +0.000 A 
BRANCH  10  18
ATOM     17  C   UNL     1       6.756   5.798  17.073  0.00  0.00    +0.000 C 
ATOM     18  O   UNL     1       5.458   5.954  16.509  0.00  0.00    +0.000 OA
ENDBRANCH  10  18
ENDBRANCH   9  16
ENDBRANCH   1   9
BRANCH   5  19
ATOM     19  C   UNL     1       0.382  10.871  19.807  0.00  0.00    +0.000 C 
BRANCH  19  20
ATOM     20  C   UNL     1      -0.976  10.940  19.138  0.00  0.00    +0.000 A 
ATOM     21  C   UNL     1      -1.373   9.972  18.204  0.00  0.00    +0.000 A 
ATOM     22  C   UNL     1      -2.658   9.998  17.651  0.00  0.00    +0.000 A 
ATOM     23  C   UNL     1      -3.575  10.990  18.019  0.00  0.00    +0.000 A 
ATOM     24  C   UNL     1      -4.972  11.003  17.472  0.00  0.00    +0.000 C 
ATOM     25  C   UNL     1      -3.181  11.961  18.945  0.00  0.00    +0.000 A 
ATOM     26  C   UNL     1      -1.898  11.935  19.499  0.00  0.00    +0.000 A 
ENDBRANCH  19  20
ENDBRANCH   5  19
TORSDOF 6
ENDMDL
MODEL 8
REMARK VINA RESULT:      -7.2      2.105      2.883
REMARK  Name = 
REMARK  8 active torsions:
REMARK  status: ('A' for Active; 'I' for Inactive)
REMARK    1  A    between atoms: C_1  and  O_2
REMARK    2  A    between atoms: O_2  and  C_3
REMARK    3  A    between atoms: C_9  and  C_10
REMARK    4  A    between atoms: C_10  and  C_11
REMARK    5  A    between atoms: N_15  and  C_16
REMARK    6  A    between atoms: C_16  and  C_17
REMARK    7  A    between atoms: C_20  and  C_21
REMARK    8  A    between atoms: C_24  and  O_25
REMARK                            x       y       z     vdW  Elec       q    Type
REMARK                         _______ _______ _______ _____ _____    ______ ____
ROOT
ATOM      1  C   UNL     1       2.205   7.085  18.688  0.00  0.00    +0.000 A 
ATOM      2  S   UNL     1       1.800   6.731  20.349  0.00  0.00    +0.000 S 
ATOM      3  C   UNL     1       1.311   8.405  20.636  0.00  0.00    +0.000 A 
ATOM      4  O   UNL     1       0.899   8.807  21.712  0.00  0.00    +0.000 OA
ATOM      5  N   UNL     1       1.491   9.128  19.462  0.00  0.00    +0.000 N 
ATOM      6  C   UNL     1       1.990   8.382  18.412  0.00  0.00    +0.000 A 
ENDROOT
BRANCH   6   7
ATOM      7  O   UNL     1       2.244   8.948  17.198  0.00  0.00    +0.000 OA
ATOM      8  H   UNL     1       1.508   9.539  16.981  0.00  0.00    +0.000 HD
ENDBRANCH   6   7
BRANCH   1   9
ATOM      9  C   UNL     1       2.847   6.060  17.803  0.00  0.00    +0.000 C 
BRANCH   9  16
ATOM     10  C   UNL     1       4.781   4.640  18.706  0.00  0.00    +0.000 A 
ATOM     11  C   UNL     1       6.148   4.494  18.976  0.00  0.00    +0.000 A 
ATOM     12  C   UNL     1       7.055   5.498  18.625  0.00  0.00    +0.000 A 
ATOM     13  C   UNL     1       6.601   6.645  17.985  0.00  0.00    +0.000 A 
ATOM     14 BR   UNL     1       7.825   8.004  17.514  0.00  0.00    +0.000 Br
ATOM     15  C   UNL     1       5.246   6.800  17.698  0.00  0.00    +0.000 A 
ATOM     16  C   UNL     1       4.319   5.807  18.064  0.00  0.00    +0.000 A 
BRANCH  10  18
ATOM     17  C   UNL     1       3.750   2.560  18.179  0.00  0.00    +0.000 C 
ATOM     18  O   UNL     1       3.834   3.702  19.024  0.00  0.00    +0.000 OA
ENDBRANCH  10  18
ENDBRANCH   9  16
ENDBRANCH   1   9
BRANCH   5  19
ATOM     19  C   UNL     1       1.142  10.534  19.436  0.00  0.00    +0.000 C 
BRANCH  19  20
ATOM     20  C   UNL     1      -0.280  10.809  18.990  0.00  0.00    +0.000 A 
ATOM     21  C   UNL     1      -0.860  10.087  17.936  0.00  0.00    +0.000 A 
ATOM     22  C   UNL     1      -2.199  10.292  17.584  0.00  0.00    +0.000 A 
ATOM     23  C   UNL     1      -2.988  11.219  18.276  0.00  0.00    +0.000 A 
ATOM     24  C   UNL     1      -4.437  11.414  17.942  0.00  0.00    +0.000 C 
ATOM     25  C   UNL     1      -2.410  11.944  19.323  0.00  0.00    +0.000 A 
ATOM     26  C   UNL     1      -1.074  11.741  19.677  0.00  0.00    +0.000 A 
ENDBRANCH  19  20
ENDBRANCH   5  19
TORSDOF 6
ENDMDL
MODEL 9
REMARK VINA RESULT:      -7.0      2.010      2.899
REMARK  Name = 
REMARK  8 active torsions:
REMARK  status: ('A' for Active; 'I' for Inactive)
REMARK    1  A    between atoms: C_1  and  O_2
REMARK    2  A    between atoms: O_2  and  C_3
REMARK    3  A    between atoms: C_9  and  C_10
REMARK    4  A    between atoms: C_10  and  C_11
REMARK    5  A    between atoms: N_15  and  C_16
REMARK    6  A    between atoms: C_16  and  C_17
REMARK    7  A    between atoms: C_20  and  C_21
REMARK    8  A    between atoms: C_24  and  O_25
REMARK                            x       y       z     vdW  Elec       q    Type
REMARK                         _______ _______ _______ _____ _____    ______ ____
ROOT
ATOM      1  C   UNL     1       2.126   7.393  19.629  0.00  0.00    +0.000 A 
ATOM      2  S   UNL     1       2.801   7.844  18.084  0.00  0.00    +0.000 S 
ATOM      3  C   UNL     1       2.036   9.435  18.160  0.00  0.00    +0.000 A 
ATOM      4  O   UNL     1       2.150  10.275  17.283  0.00  0.00    +0.000 OA
ATOM      5  N   UNL     1       1.313   9.524  19.345  0.00  0.00    +0.000 N 
ATOM      6  C   UNL     1       1.373   8.387  20.127  0.00  0.00    +0.000 A 
ENDROOT
BRANCH   6   7
ATOM      7  O   UNL     1       0.701   8.305  21.311  0.00  0.00    +0.000 OA
ATOM      8  H   UNL     1       0.694   9.185  21.715  0.00  0.00    +0.000 HD
ENDBRANCH   6   7
BRANCH   1   9
ATOM      9  C   UNL     1       2.288   6.009  20.181  0.00  0.00    +0.000 C 
BRANCH   9  16
ATOM     10  C   UNL     1       1.771   3.712  19.165  0.00  0.00    +0.000 A 
ATOM     11  C   UNL     1       2.056   2.718  18.220  0.00  0.00    +0.000 A 
ATOM     12  C   UNL     1       3.061   2.907  17.268  0.00  0.00    +0.000 A 
ATOM     13  C   UNL     1       3.774   4.100  17.245  0.00  0.00    +0.000 A 
ATOM     14 BR   UNL     1       5.137   4.355  15.963  0.00  0.00    +0.000 Br
ATOM     15  C   UNL     1       3.494   5.104  18.170  0.00  0.00    +0.000 A 
ATOM     16  C   UNL     1       2.498   4.919  19.148  0.00  0.00    +0.000 A 
BRANCH  10  18
ATOM     17  C   UNL     1       1.144   2.858  21.298  0.00  0.00    +0.000 C 
ATOM     18  O   UNL     1       0.803   3.596  20.129  0.00  0.00    +0.000 OA
ENDBRANCH  10  18
ENDBRANCH   9  16
ENDBRANCH   1   9
BRANCH   5  19
ATOM     19  C   UNL     1       0.604  10.749  19.651  0.00  0.00    +0.000 C 
BRANCH  19  20
ATOM     20  C   UNL     1      -0.795  10.815  19.072  0.00  0.00    +0.000 A 
ATOM     21  C   UNL     1      -1.736  11.736  19.555  0.00  0.00    +0.000 A 
ATOM     22  C   UNL     1      -2.999  11.844  18.961  0.00  0.00    +0.000 A 
ATOM     23  C   UNL     1      -3.349  11.037  17.872  0.00  0.00    +0.000 A 
ATOM     24  C   UNL     1      -4.680  11.175  17.195  0.00  0.00    +0.000 C 
ATOM     25  C   UNL     1      -2.416  10.112  17.393  0.00  0.00    +0.000 A 
ATOM     26  C   UNL     1      -1.154  10.004  17.983  0.00  0.00    +0.000 A 
ENDBRANCH  19  20
ENDBRANCH   5  19
TORSDOF 6
ENDMDL
