MODEL 1
REMARK VINA RESULT:      -8.4      0.000      0.000
REMARK  Name = 
REMARK  5 active torsions:
REMARK  status: ('A' for Active; 'I' for Inactive)
REMARK    1  A    between atoms: C_2  and  C_4
REMARK    2  A    between atoms: C_5  and  C_6
REMARK    3  A    between atoms: C_9  and  O_10
REMARK    4  A    between atoms: O_10  and  C_11
REMARK    5  A    between atoms: C_25  and  C_26
REMARK                            x       y       z     vdW  Elec       q    Type
REMARK                         _______ _______ _______ _____ _____    ______ ____
ROOT
ATOM      1  C   UNL     1       0.003  10.238  21.368  0.00  0.00    +0.000 A 
ATOM      2  C   UNL     1       0.831  10.176  20.194  0.00  0.00    +0.000 A 
ATOM      3  N   UNL     1       0.954  11.389  19.622  0.00  0.00    +0.000 NA
ATOM      4  N   UNL     1       0.297  12.212  20.450  0.00  0.00    +0.000 N 
ATOM      5  C   UNL     1      -0.384  11.564  21.449  0.00  0.00    +0.000 A 
ATOM      6  N   UNL     1      -1.178  12.260  22.301  0.00  0.00    +0.000 N 
ATOM      7  C   UNL     1      -1.546  13.634  22.000  0.00  0.00    +0.000 C 
ATOM      8  C   UNL     1      -0.333  14.385  21.460  0.00  0.00    +0.000 C 
ATOM      9  C   UNL     1       0.244  13.662  20.226  0.00  0.00    +0.000 C 
ATOM     10  H   UNL     1      -1.659  11.810  23.078  0.00  0.00    +0.000 HD
ENDROOT
BRANCH   2  11
ATOM     11  C   UNL     1       1.459   9.010  19.568  0.00  0.00    +0.000 A 
ATOM     12  C   UNL     1       1.833   7.888  20.319  0.00  0.00    +0.000 A 
ATOM     13  C   UNL     1       2.416   6.778  19.702  0.00  0.00    +0.000 A 
ATOM     14  C   UNL     1       2.605   6.769  18.322  0.00  0.00    +0.000 A 
ATOM     15  C   UNL     1       2.277   7.899  17.569  0.00  0.00    +0.000 A 
ATOM     16  C   UNL     1       1.678   9.000  18.185  0.00  0.00    +0.000 A 
BRANCH  14  17
ATOM     17  O   UNL     1       3.156   5.624  17.795  0.00  0.00    +0.000 OA
BRANCH  17  18
ATOM     18  C   UNL     1       2.793   4.399  18.310  0.00  0.00    +0.000 A 
ATOM     19  C   UNL     1       1.473   4.009  18.076  0.00  0.00    +0.000 A 
ATOM     20  C   UNL     1       1.005   2.793  18.576  0.00  0.00    +0.000 A 
ATOM     21  C   UNL     1       1.854   1.967  19.310  0.00  0.00    +0.000 A 
ATOM     22  C   UNL     1       3.182   2.337  19.517  0.00  0.00    +0.000 A 
ATOM     23  C   UNL     1       3.659   3.537  18.992  0.00  0.00    +0.000 A 
ENDBRANCH  17  18
ENDBRANCH  14  17
ENDBRANCH   2  11
BRANCH   9  24
ATOM     24  C   UNL     1       1.597  14.230  19.844  0.00  0.00    +0.000 A 
ATOM     25  C   UNL     1       1.858  14.764  18.575  0.00  0.00    +0.000 A 
ATOM     26  C   UNL     1       3.118  15.274  18.279  0.00  0.00    +0.000 A 
ATOM     27  C   UNL     1       4.088  15.232  19.266  0.00  0.00    +0.000 A 
ATOM     28  N   UNL     1       3.882  14.727  20.499  0.00  0.00    +0.000 NA
ATOM     29  C   UNL     1       2.642  14.252  20.764  0.00  0.00    +0.000 A 
ENDBRANCH   9  24
BRANCH   1  31
ATOM     30  N   UNL     1      -0.042   9.382  23.593  0.00  0.00    +0.000 N 
ATOM     31  C   UNL     1      -0.343   9.164  22.275  0.00  0.00    +0.000 C 
ATOM     32  O   UNL     1      -0.916   8.131  21.950  0.00  0.00    +0.000 OA
ATOM     33  H   UNL     1      -0.448   8.730  24.245  0.00  0.00    +0.000 HD
ATOM     34  H   UNL     1       0.163  10.323  23.903  0.00  0.00    +0.000 HD
ENDBRANCH   1  31
TORSDOF 5
ENDMDL
MODEL 2
REMARK VINA RESULT:      -8.3      0.547      1.250
REMARK  Name = 
REMARK  5 active torsions:
REMARK  status: ('A' for Active; 'I' for Inactive)
REMARK    1  A    between atoms: C_2  and  C_4
REMARK    2  A    between atoms: C_5  and  C_6
REMARK    3  A    between atoms: C_9  and  O_10
REMARK    4  A    between atoms: O_10  and  C_11
REMARK    5  A    between atoms: C_25  and  C_26
REMARK                            x       y       z     vdW  Elec       q    Type
REMARK                         _______ _______ _______ _____ _____    ______ ____
ROOT
ATOM      1  C   UNL     1       0.027  10.309  21.418  0.00  0.00    +0.000 A 
ATOM      2  C   UNL     1       0.855  10.252  20.244  0.00  0.00    +0.000 A 
ATOM      3  N   UNL     1       1.034  11.477  19.715  0.00  0.00    +0.000 NA
ATOM      4  N   UNL     1       0.411  12.299  20.571  0.00  0.00    +0.000 N 
ATOM      5  C   UNL     1      -0.301  11.648  21.545  0.00  0.00    +0.000 A 
ATOM      6  N   UNL     1      -1.066  12.348  22.419  0.00  0.00    +0.000 N 
ATOM      7  C   UNL     1      -1.371  13.747  22.166  0.00  0.00    +0.000 C 
ATOM      8  C   UNL     1      -0.124  14.461  21.655  0.00  0.00    +0.000 C 
ATOM      9  C   UNL     1       0.424  13.757  20.397  0.00  0.00    +0.000 C 
ATOM     10  H   UNL     1      -1.569  11.893  23.179  0.00  0.00    +0.000 HD
ENDROOT
BRANCH   2  11
ATOM     11  C   UNL     1       1.433   9.082  19.579  0.00  0.00    +0.000 A 
ATOM     12  C   UNL     1       1.639   9.054  18.193  0.00  0.00    +0.000 A 
ATOM     13  C   UNL     1       2.207   7.934  17.578  0.00  0.00    +0.000 A 
ATOM     14  C   UNL     1       2.599   6.842  18.348  0.00  0.00    +0.000 A 
ATOM     15  C   UNL     1       2.358   6.841  19.724  0.00  0.00    +0.000 A 
ATOM     16  C   UNL     1       1.808   7.967  20.339  0.00  0.00    +0.000 A 
BRANCH  14  17
ATOM     17  O   UNL     1       3.177   5.798  17.664  0.00  0.00    +0.000 OA
BRANCH  17  18
ATOM     18  C   UNL     1       2.986   4.509  18.109  0.00  0.00    +0.000 A 
ATOM     19  C   UNL     1       1.698   3.994  17.944  0.00  0.00    +0.000 A 
ATOM     20  C   UNL     1       1.401   2.703  18.383  0.00  0.00    +0.000 A 
ATOM     21  C   UNL     1       2.388   1.926  18.986  0.00  0.00    +0.000 A 
ATOM     22  C   UNL     1       3.683   2.424  19.121  0.00  0.00    +0.000 A 
ATOM     23  C   UNL     1       3.989   3.701  18.656  0.00  0.00    +0.000 A 
ENDBRANCH  17  18
ENDBRANCH  14  17
ENDBRANCH   2  11
BRANCH   9  24
ATOM     24  C   UNL     1       1.802  14.278  20.039  0.00  0.00    +0.000 A 
ATOM     25  C   UNL     1       2.874  14.254  20.941  0.00  0.00    +0.000 A 
ATOM     26  C   UNL     1       4.118  14.744  20.558  0.00  0.00    +0.000 A 
ATOM     27  C   UNL     1       4.256  15.250  19.278  0.00  0.00    +0.000 A 
ATOM     28  N   UNL     1       3.252  15.294  18.377  0.00  0.00    +0.000 NA
ATOM     29  C   UNL     1       2.057  14.797  18.772  0.00  0.00    +0.000 A 
ENDBRANCH   9  24
BRANCH   1  31
ATOM     30  N   UNL     1      -0.128   9.410  23.620  0.00  0.00    +0.000 N 
ATOM     31  C   UNL     1      -0.371   9.220  22.286  0.00  0.00    +0.000 C 
ATOM     32  O   UNL     1      -0.936   8.199  21.913  0.00  0.00    +0.000 OA
ATOM     33  H   UNL     1      -0.570   8.748  24.239  0.00  0.00    +0.000 HD
ATOM     34  H   UNL     1       0.069  10.342  23.958  0.00  0.00    +0.000 HD
ENDBRANCH   1  31
TORSDOF 5
ENDMDL
MODEL 3
REMARK VINA RESULT:      -8.3      0.536      1.233
REMARK  Name = 
REMARK  5 active torsions:
REMARK  status: ('A' for Active; 'I' for Inactive)
REMARK    1  A    between atoms: C_2  and  C_4
REMARK    2  A    between atoms: C_5  and  C_6
REMARK    3  A    between atoms: C_9  and  O_10
REMARK    4  A    between atoms: O_10  and  C_11
REMARK    5  A    between atoms: C_25  and  C_26
REMARK                            x       y       z     vdW  Elec       q    Type
REMARK                         _______ _______ _______ _____ _____    ______ ____
ROOT
ATOM      1  C   UNL     1      -0.011  10.217  21.331  0.00  0.00    +0.000 A 
ATOM      2  C   UNL     1       0.846  10.194  20.176  0.00  0.00    +0.000 A 
ATOM      3  N   UNL     1       0.966  11.423  19.638  0.00  0.00    +0.000 NA
ATOM      4  N   UNL     1       0.279  12.217  20.470  0.00  0.00    +0.000 N 
ATOM      5  C   UNL     1      -0.417  11.535  21.436  0.00  0.00    +0.000 A 
ATOM      6  N   UNL     1      -1.240  12.200  22.285  0.00  0.00    +0.000 N 
ATOM      7  C   UNL     1      -1.618  13.576  22.010  0.00  0.00    +0.000 C 
ATOM      8  C   UNL     1      -0.403  14.355  21.518  0.00  0.00    +0.000 C 
ATOM      9  C   UNL     1       0.213  13.671  20.281  0.00  0.00    +0.000 C 
ATOM     10  H   UNL     1      -1.734  11.725  23.039  0.00  0.00    +0.000 HD
ENDROOT
BRANCH   2  11
ATOM     11  C   UNL     1       1.503   9.053  19.537  0.00  0.00    +0.000 A 
ATOM     12  C   UNL     1       1.868   7.913  20.267  0.00  0.00    +0.000 A 
ATOM     13  C   UNL     1       2.479   6.827  19.636  0.00  0.00    +0.000 A 
ATOM     14  C   UNL     1       2.708   6.858  18.262  0.00  0.00    +0.000 A 
ATOM     15  C   UNL     1       2.389   8.005  17.532  0.00  0.00    +0.000 A 
ATOM     16  C   UNL     1       1.761   9.083  18.161  0.00  0.00    +0.000 A 
BRANCH  14  17
ATOM     17  O   UNL     1       3.285   5.734  17.721  0.00  0.00    +0.000 OA
BRANCH  17  18
ATOM     18  C   UNL     1       2.840   4.489  18.110  0.00  0.00    +0.000 A 
ATOM     19  C   UNL     1       3.820   3.616  18.587  0.00  0.00    +0.000 A 
ATOM     20  C   UNL     1       3.470   2.326  18.986  0.00  0.00    +0.000 A 
ATOM     21  C   UNL     1       2.143   1.906  18.909  0.00  0.00    +0.000 A 
ATOM     22  C   UNL     1       1.158   2.786  18.465  0.00  0.00    +0.000 A 
ATOM     23  C   UNL     1       1.501   4.086  18.095  0.00  0.00    +0.000 A 
ENDBRANCH  17  18
ENDBRANCH  14  17
ENDBRANCH   2  11
BRANCH   9  24
ATOM     24  C   UNL     1       1.567  14.266  19.946  0.00  0.00    +0.000 A 
ATOM     25  C   UNL     1       2.619  14.306  20.870  0.00  0.00    +0.000 A 
ATOM     26  C   UNL     1       3.842  14.863  20.509  0.00  0.00    +0.000 A 
ATOM     27  C   UNL     1       3.977  15.369  19.229  0.00  0.00    +0.000 A 
ATOM     28  N   UNL     1       2.992  15.352  18.308  0.00  0.00    +0.000 NA
ATOM     29  C   UNL     1       1.818  14.791  18.682  0.00  0.00    +0.000 A 
ENDBRANCH   9  24
BRANCH   1  31
ATOM     30  N   UNL     1      -0.052   9.284  23.525  0.00  0.00    +0.000 N 
ATOM     31  C   UNL     1      -0.365   9.115  22.202  0.00  0.00    +0.000 C 
ATOM     32  O   UNL     1      -0.953   8.102  21.845  0.00  0.00    +0.000 OA
ATOM     33  H   UNL     1      -0.463   8.614  24.157  0.00  0.00    +0.000 HD
ATOM     34  H   UNL     1       0.167  10.210  23.866  0.00  0.00    +0.000 HD
ENDBRANCH   1  31
TORSDOF 5
ENDMDL
MODEL 4
REMARK VINA RESULT:      -8.2      0.438      1.264
REMARK  Name = 
REMARK  5 active torsions:
REMARK  status: ('A' for Active; 'I' for Inactive)
REMARK    1  A    between atoms: C_2  and  C_4
REMARK    2  A    between atoms: C_5  and  C_6
REMARK    3  A    between atoms: C_9  and  O_10
REMARK    4  A    between atoms: O_10  and  C_11
REMARK    5  A    between atoms: C_25  and  C_26
REMARK                            x       y       z     vdW  Elec       q    Type
REMARK                         _______ _______ _______ _____ _____    ______ ____
ROOT
ATOM      1  C   UNL     1       0.070  10.285  21.500  0.00  0.00    +0.000 A 
ATOM      2  C   UNL     1       0.885  10.239  20.315  0.00  0.00    +0.000 A 
ATOM      3  N   UNL     1       1.054  11.470  19.795  0.00  0.00    +0.000 NA
ATOM      4  N   UNL     1       0.439  12.283  20.665  0.00  0.00    +0.000 N 
ATOM      5  C   UNL     1      -0.259  11.622  21.642  0.00  0.00    +0.000 A 
ATOM      6  N   UNL     1      -1.016  12.312  22.531  0.00  0.00    +0.000 N 
ATOM      7  C   UNL     1      -1.327  13.712  22.294  0.00  0.00    +0.000 C 
ATOM      8  C   UNL     1      -0.089  14.434  21.774  0.00  0.00    +0.000 C 
ATOM      9  C   UNL     1       0.447  13.742  20.504  0.00  0.00    +0.000 C 
ATOM     10  H   UNL     1      -1.510  11.850  23.293  0.00  0.00    +0.000 HD
ENDROOT
BRANCH   2  11
ATOM     11  C   UNL     1       1.457   9.077  19.634  0.00  0.00    +0.000 A 
ATOM     12  C   UNL     1       1.632   9.054  18.243  0.00  0.00    +0.000 A 
ATOM     13  C   UNL     1       2.195   7.942  17.612  0.00  0.00    +0.000 A 
ATOM     14  C   UNL     1       2.614   6.851  18.369  0.00  0.00    +0.000 A 
ATOM     15  C   UNL     1       2.405   6.843  19.751  0.00  0.00    +0.000 A 
ATOM     16  C   UNL     1       1.859   7.963  20.381  0.00  0.00    +0.000 A 
BRANCH  14  17
ATOM     17  O   UNL     1       3.186   5.814  17.669  0.00  0.00    +0.000 OA
BRANCH  17  18
ATOM     18  C   UNL     1       2.800   4.520  17.940  0.00  0.00    +0.000 A 
ATOM     19  C   UNL     1       3.823   3.570  17.947  0.00  0.00    +0.000 A 
ATOM     20  C   UNL     1       3.528   2.228  18.191  0.00  0.00    +0.000 A 
ATOM     21  C   UNL     1       2.212   1.834  18.429  0.00  0.00    +0.000 A 
ATOM     22  C   UNL     1       1.194   2.785  18.457  0.00  0.00    +0.000 A 
ATOM     23  C   UNL     1       1.491   4.130  18.244  0.00  0.00    +0.000 A 
ENDBRANCH  17  18
ENDBRANCH  14  17
ENDBRANCH   2  11
BRANCH   9  24
ATOM     24  C   UNL     1       1.820  14.269  20.134  0.00  0.00    +0.000 A 
ATOM     25  C   UNL     1       2.101  14.815  18.874  0.00  0.00    +0.000 A 
ATOM     26  C   UNL     1       3.379  15.285  18.589  0.00  0.00    +0.000 A 
ATOM     27  C   UNL     1       4.345  15.192  19.575  0.00  0.00    +0.000 A 
ATOM     28  N   UNL     1       4.119  14.673  20.800  0.00  0.00    +0.000 NA
ATOM     29  C   UNL     1       2.863  14.238  21.055  0.00  0.00    +0.000 A 
ENDBRANCH   9  24
BRANCH   1  31
ATOM     30  N   UNL     1      -0.008   9.343  23.688  0.00  0.00    +0.000 N 
ATOM     31  C   UNL     1      -0.315   9.188  22.363  0.00  0.00    +0.000 C 
ATOM     32  O   UNL     1      -0.922   8.188  21.996  0.00  0.00    +0.000 OA
ATOM     33  H   UNL     1      -0.438   8.679  24.313  0.00  0.00    +0.000 HD
ATOM     34  H   UNL     1       0.227  10.263  24.036  0.00  0.00    +0.000 HD
ENDBRANCH   1  31
TORSDOF 5
ENDMDL
MODEL 5
REMARK VINA RESULT:      -8.2      2.898      4.672
REMARK  Name = 
REMARK  5 active torsions:
REMARK  status: ('A' for Active; 'I' for Inactive)
REMARK    1  A    between atoms: C_2  and  C_4
REMARK    2  A    between atoms: C_5  and  C_6
REMARK    3  A    between atoms: C_9  and  O_10
REMARK    4  A    between atoms: O_10  and  C_11
REMARK    5  A    between atoms: C_25  and  C_26
REMARK                            x       y       z     vdW  Elec       q    Type
REMARK                         _______ _______ _______ _____ _____    ______ ____
ROOT
ATOM      1  C   UNL     1       0.398  12.707  20.472  0.00  0.00    +0.000 A 
ATOM      2  C   UNL     1      -0.116  11.373  20.312  0.00  0.00    +0.000 A 
ATOM      3  N   UNL     1      -1.452  11.343  20.482  0.00  0.00    +0.000 NA
ATOM      4  N   UNL     1      -1.790  12.627  20.661  0.00  0.00    +0.000 N 
ATOM      5  C   UNL     1      -0.715  13.472  20.775  0.00  0.00    +0.000 A 
ATOM      6  N   UNL     1      -0.902  14.784  21.063  0.00  0.00    +0.000 N 
ATOM      7  C   UNL     1      -2.195  15.253  21.533  0.00  0.00    +0.000 C 
ATOM      8  C   UNL     1      -3.307  14.584  20.732  0.00  0.00    +0.000 C 
ATOM      9  C   UNL     1      -3.187  13.049  20.819  0.00  0.00    +0.000 C 
ATOM     10  H   UNL     1      -0.125  15.441  21.110  0.00  0.00    +0.000 HD
ENDROOT
BRANCH   2  11
ATOM     11  C   UNL     1       0.613  10.128  20.060  0.00  0.00    +0.000 A 
ATOM     12  C   UNL     1       1.139   9.829  18.796  0.00  0.00    +0.000 A 
ATOM     13  C   UNL     1       1.845   8.643  18.580  0.00  0.00    +0.000 A 
ATOM     14  C   UNL     1       2.057   7.757  19.633  0.00  0.00    +0.000 A 
ATOM     15  C   UNL     1       1.500   8.023  20.886  0.00  0.00    +0.000 A 
ATOM     16  C   UNL     1       0.810   9.217  21.105  0.00  0.00    +0.000 A 
BRANCH  14  17
ATOM     17  O   UNL     1       2.790   6.631  19.337  0.00  0.00    +0.000 OA
BRANCH  17  18
ATOM     18  C   UNL     1       2.185   5.395  19.398  0.00  0.00    +0.000 A 
ATOM     19  C   UNL     1       2.021   4.738  18.176  0.00  0.00    +0.000 A 
ATOM     20  C   UNL     1       1.401   3.489  18.133  0.00  0.00    +0.000 A 
ATOM     21  C   UNL     1       0.944   2.895  19.309  0.00  0.00    +0.000 A 
ATOM     22  C   UNL     1       1.137   3.532  20.533  0.00  0.00    +0.000 A 
ATOM     23  C   UNL     1       1.784   4.765  20.581  0.00  0.00    +0.000 A 
ENDBRANCH  17  18
ENDBRANCH  14  17
ENDBRANCH   2  11
BRANCH   9  24
ATOM     24  C   UNL     1      -4.104  12.373  19.818  0.00  0.00    +0.000 A 
ATOM     25  C   UNL     1      -3.654  11.927  18.568  0.00  0.00    +0.000 A 
ATOM     26  C   UNL     1      -4.540  11.312  17.688  0.00  0.00    +0.000 A 
ATOM     27  C   UNL     1      -5.857  11.163  18.084  0.00  0.00    +0.000 A 
ATOM     28  N   UNL     1      -6.333  11.579  19.276  0.00  0.00    +0.000 NA
ATOM     29  C   UNL     1      -5.447  12.160  20.118  0.00  0.00    +0.000 A 
ENDBRANCH   9  24
BRANCH   1  31
ATOM     30  N   UNL     1       2.127  13.585  19.087  0.00  0.00    +0.000 N 
ATOM     31  C   UNL     1       1.767  13.160  20.337  0.00  0.00    +0.000 C 
ATOM     32  O   UNL     1       2.574  13.229  21.256  0.00  0.00    +0.000 OA
ATOM     33  H   UNL     1       3.008  14.074  19.032  0.00  0.00    +0.000 HD
ATOM     34  H   UNL     1       1.406  13.796  18.410  0.00  0.00    +0.000 HD
ENDBRANCH   1  31
TORSDOF 5
ENDMDL
MODEL 6
REMARK VINA RESULT:      -8.2      1.527      2.087
REMARK  Name = 
REMARK  5 active torsions:
REMARK  status: ('A' for Active; 'I' for Inactive)
REMARK    1  A    between atoms: C_2  and  C_4
REMARK    2  A    between atoms: C_5  and  C_6
REMARK    3  A    between atoms: C_9  and  O_10
REMARK    4  A    between atoms: O_10  and  C_11
REMARK    5  A    between atoms: C_25  and  C_26
REMARK                            x       y       z     vdW  Elec       q    Type
REMARK                         _______ _______ _______ _____ _____    ______ ____
ROOT
ATOM      1  C   UNL     1       0.105  10.138  21.256  0.00  0.00    +0.000 A 
ATOM      2  C   UNL     1       1.002   9.985  20.141  0.00  0.00    +0.000 A 
ATOM      3  N   UNL     1       1.210  11.162  19.521  0.00  0.00    +0.000 NA
ATOM      4  N   UNL     1       0.536  12.050  20.264  0.00  0.00    +0.000 N 
ATOM      5  C   UNL     1      -0.231  11.480  21.248  0.00  0.00    +0.000 A 
ATOM      6  N   UNL     1      -1.047  12.248  22.012  0.00  0.00    +0.000 N 
ATOM      7  C   UNL     1      -1.339  13.618  21.622  0.00  0.00    +0.000 C 
ATOM      8  C   UNL     1      -0.065  14.293  21.125  0.00  0.00    +0.000 C 
ATOM      9  C   UNL     1       0.557  13.488  19.967  0.00  0.00    +0.000 C 
ATOM     10  H   UNL     1      -1.594  11.857  22.777  0.00  0.00    +0.000 HD
ENDROOT
BRANCH   2  11
ATOM     11  C   UNL     1       1.619   8.766  19.614  0.00  0.00    +0.000 A 
ATOM     12  C   UNL     1       1.782   7.624  20.409  0.00  0.00    +0.000 A 
ATOM     13  C   UNL     1       2.358   6.464  19.884  0.00  0.00    +0.000 A 
ATOM     14  C   UNL     1       2.752   6.427  18.548  0.00  0.00    +0.000 A 
ATOM     15  C   UNL     1       2.635   7.573  17.758  0.00  0.00    +0.000 A 
ATOM     16  C   UNL     1       2.043   8.725  18.280  0.00  0.00    +0.000 A 
BRANCH  14  17
ATOM     17  O   UNL     1       3.280   5.236  18.108  0.00  0.00    +0.000 OA
BRANCH  17  18
ATOM     18  C   UNL     1       4.635   5.139  17.879  0.00  0.00    +0.000 A 
ATOM     19  C   UNL     1       5.005   4.636  16.630  0.00  0.00    +0.000 A 
ATOM     20  C   UNL     1       6.355   4.482  16.312  0.00  0.00    +0.000 A 
ATOM     21  C   UNL     1       7.335   4.828  17.241  0.00  0.00    +0.000 A 
ATOM     22  C   UNL     1       6.970   5.362  18.475  0.00  0.00    +0.000 A 
ATOM     23  C   UNL     1       5.623   5.546  18.781  0.00  0.00    +0.000 A 
ENDBRANCH  17  18
ENDBRANCH  14  17
ENDBRANCH   2  11
BRANCH   9  24
ATOM     24  C   UNL     1       1.954  13.984  19.646  0.00  0.00    +0.000 A 
ATOM     25  C   UNL     1       2.370  14.266  18.338  0.00  0.00    +0.000 A 
ATOM     26  C   UNL     1       3.663  14.721  18.102  0.00  0.00    +0.000 A 
ATOM     27  C   UNL     1       4.509  14.878  19.185  0.00  0.00    +0.000 A 
ATOM     28  N   UNL     1       4.152  14.618  20.459  0.00  0.00    +0.000 NA
ATOM     29  C   UNL     1       2.883  14.191  20.662  0.00  0.00    +0.000 A 
ENDBRANCH   9  24
BRANCH   1  31
ATOM     30  N   UNL     1      -0.100   9.391  23.510  0.00  0.00    +0.000 N 
ATOM     31  C   UNL     1      -0.341   9.125  22.189  0.00  0.00    +0.000 C 
ATOM     32  O   UNL     1      -0.945   8.105  21.879  0.00  0.00    +0.000 OA
ATOM     33  H   UNL     1      -0.572   8.790  24.167  0.00  0.00    +0.000 HD
ATOM     34  H   UNL     1       0.133  10.335  23.789  0.00  0.00    +0.000 HD
ENDBRANCH   1  31
TORSDOF 5
ENDMDL
MODEL 7
REMARK VINA RESULT:      -8.1      2.855      4.635
REMARK  Name = 
REMARK  5 active torsions:
REMARK  status: ('A' for Active; 'I' for Inactive)
REMARK    1  A    between atoms: C_2  and  C_4
REMARK    2  A    between atoms: C_5  and  C_6
REMARK    3  A    between atoms: C_9  and  O_10
REMARK    4  A    between atoms: O_10  and  C_11
REMARK    5  A    between atoms: C_25  and  C_26
REMARK                            x       y       z     vdW  Elec       q    Type
REMARK                         _______ _______ _______ _____ _____    ______ ____
ROOT
ATOM      1  C   UNL     1       0.517  12.634  20.483  0.00  0.00    +0.000 A 
ATOM      2  C   UNL     1      -0.013  11.308  20.314  0.00  0.00    +0.000 A 
ATOM      3  N   UNL     1      -1.350  11.296  20.477  0.00  0.00    +0.000 NA
ATOM      4  N   UNL     1      -1.672  12.583  20.661  0.00  0.00    +0.000 N 
ATOM      5  C   UNL     1      -0.586  13.413  20.784  0.00  0.00    +0.000 A 
ATOM      6  N   UNL     1      -0.757  14.726  21.077  0.00  0.00    +0.000 N 
ATOM      7  C   UNL     1      -2.046  15.210  21.544  0.00  0.00    +0.000 C 
ATOM      8  C   UNL     1      -3.163  14.560  20.734  0.00  0.00    +0.000 C 
ATOM      9  C   UNL     1      -3.064  13.023  20.814  0.00  0.00    +0.000 C 
ATOM     10  H   UNL     1       0.028  15.373  21.131  0.00  0.00    +0.000 HD
ENDROOT
BRANCH   2  11
ATOM     11  C   UNL     1       0.700  10.055  20.060  0.00  0.00    +0.000 A 
ATOM     12  C   UNL     1       1.179   9.729  18.784  0.00  0.00    +0.000 A 
ATOM     13  C   UNL     1       1.872   8.536  18.564  0.00  0.00    +0.000 A 
ATOM     14  C   UNL     1       2.117   7.668  19.626  0.00  0.00    +0.000 A 
ATOM     15  C   UNL     1       1.606   7.960  20.893  0.00  0.00    +0.000 A 
ATOM     16  C   UNL     1       0.930   9.162  21.114  0.00  0.00    +0.000 A 
BRANCH  14  17
ATOM     17  O   UNL     1       2.832   6.533  19.325  0.00  0.00    +0.000 OA
BRANCH  17  18
ATOM     18  C   UNL     1       2.191   5.314  19.303  0.00  0.00    +0.000 A 
ATOM     19  C   UNL     1       1.768   4.828  20.542  0.00  0.00    +0.000 A 
ATOM     20  C   UNL     1       1.127   3.592  20.625  0.00  0.00    +0.000 A 
ATOM     21  C   UNL     1       0.908   2.840  19.472  0.00  0.00    +0.000 A 
ATOM     22  C   UNL     1       1.299   3.337  18.230  0.00  0.00    +0.000 A 
ATOM     23  C   UNL     1       1.911   4.586  18.143  0.00  0.00    +0.000 A 
ENDBRANCH  17  18
ENDBRANCH  14  17
ENDBRANCH   2  11
BRANCH   9  24
ATOM     24  C   UNL     1      -3.985  12.364  19.806  0.00  0.00    +0.000 A 
ATOM     25  C   UNL     1      -5.351  12.168  20.050  0.00  0.00    +0.000 A 
ATOM     26  C   UNL     1      -6.150  11.559  19.088  0.00  0.00    +0.000 A 
ATOM     27  C   UNL     1      -5.557  11.157  17.904  0.00  0.00    +0.000 A 
ATOM     28  N   UNL     1      -4.247  11.324  17.628  0.00  0.00    +0.000 NA
ATOM     29  C   UNL     1      -3.497  11.933  18.575  0.00  0.00    +0.000 A 
ENDBRANCH   9  24
BRANCH   1  31
ATOM     30  N   UNL     1       2.361  13.183  19.075  0.00  0.00    +0.000 N 
ATOM     31  C   UNL     1       1.893  13.069  20.356  0.00  0.00    +0.000 C 
ATOM     32  O   UNL     1       2.618  13.379  21.294  0.00  0.00    +0.000 OA
ATOM     33  H   UNL     1       3.243  13.662  18.976  0.00  0.00    +0.000 HD
ATOM     34  H   UNL     1       1.702  13.206  18.309  0.00  0.00    +0.000 HD
ENDBRANCH   1  31
TORSDOF 5
ENDMDL
MODEL 8
REMARK VINA RESULT:      -8.0      2.498      3.218
REMARK  Name = 
REMARK  5 active torsions:
REMARK  status: ('A' for Active; 'I' for Inactive)
REMARK    1  A    between atoms: C_2  and  C_4
REMARK    2  A    between atoms: C_5  and  C_6
REMARK    3  A    between atoms: C_9  and  O_10
REMARK    4  A    between atoms: O_10  and  C_11
REMARK    5  A    between atoms: C_25  and  C_26
REMARK                            x       y       z     vdW  Elec       q    Type
REMARK                         _______ _______ _______ _____ _____    ______ ____
ROOT
ATOM      1  C   UNL     1      -0.140  12.199  18.741  0.00  0.00    +0.000 A 
ATOM      2  C   UNL     1       1.134  11.568  18.959  0.00  0.00    +0.000 A 
ATOM      3  N   UNL     1       2.114  12.484  19.088  0.00  0.00    +0.000 NA
ATOM      4  N   UNL     1       1.474  13.660  19.037  0.00  0.00    +0.000 N 
ATOM      5  C   UNL     1       0.144  13.553  18.721  0.00  0.00    +0.000 A 
ATOM      6  N   UNL     1      -0.607  14.667  18.532  0.00  0.00    +0.000 N 
ATOM      7  C   UNL     1       0.033  15.963  18.377  0.00  0.00    +0.000 C 
ATOM      8  C   UNL     1       1.175  16.095  19.378  0.00  0.00    +0.000 C 
ATOM      9  C   UNL     1       2.179  14.936  19.208  0.00  0.00    +0.000 C 
ATOM     10  H   UNL     1      -1.606  14.617  18.340  0.00  0.00    +0.000 HD
ENDROOT
BRANCH   2  11
ATOM     11  C   UNL     1       1.463  10.142  18.996  0.00  0.00    +0.000 A 
ATOM     12  C   UNL     1       1.244   9.367  20.143  0.00  0.00    +0.000 A 
ATOM     13  C   UNL     1       1.548   8.004  20.153  0.00  0.00    +0.000 A 
ATOM     14  C   UNL     1       2.050   7.394  19.006  0.00  0.00    +0.000 A 
ATOM     15  C   UNL     1       2.314   8.164  17.870  0.00  0.00    +0.000 A 
ATOM     16  C   UNL     1       1.992   9.523  17.856  0.00  0.00    +0.000 A 
BRANCH  14  17
ATOM     17  O   UNL     1       2.292   6.044  19.096  0.00  0.00    +0.000 OA
BRANCH  17  18
ATOM     18  C   UNL     1       3.465   5.530  18.587  0.00  0.00    +0.000 A 
ATOM     19  C   UNL     1       4.586   5.646  19.410  0.00  0.00    +0.000 A 
ATOM     20  C   UNL     1       5.825   5.174  18.974  0.00  0.00    +0.000 A 
ATOM     21  C   UNL     1       5.944   4.586  17.716  0.00  0.00    +0.000 A 
ATOM     22  C   UNL     1       4.820   4.438  16.906  0.00  0.00    +0.000 A 
ATOM     23  C   UNL     1       3.577   4.881  17.353  0.00  0.00    +0.000 A 
ENDBRANCH  17  18
ENDBRANCH  14  17
ENDBRANCH   2  11
BRANCH   9  24
ATOM     24  C   UNL     1       3.164  14.895  20.361  0.00  0.00    +0.000 A 
ATOM     25  C   UNL     1       4.551  14.912  20.165  0.00  0.00    +0.000 A 
ATOM     26  C   UNL     1       5.409  14.873  21.260  0.00  0.00    +0.000 A 
ATOM     27  C   UNL     1       4.852  14.814  22.525  0.00  0.00    +0.000 A 
ATOM     28  N   UNL     1       3.524  14.794  22.760  0.00  0.00    +0.000 NA
ATOM     29  C   UNL     1       2.713  14.848  21.677  0.00  0.00    +0.000 A 
ENDBRANCH   9  24
BRANCH   1  31
ATOM     30  N   UNL     1      -1.636  10.916  17.400  0.00  0.00    +0.000 N 
ATOM     31  C   UNL     1      -1.434  11.569  18.587  0.00  0.00    +0.000 C 
ATOM     32  O   UNL     1      -2.307  11.545  19.446  0.00  0.00    +0.000 OA
ATOM     33  H   UNL     1      -2.451  10.323  17.365  0.00  0.00    +0.000 HD
ATOM     34  H   UNL     1      -0.841  10.692  16.818  0.00  0.00    +0.000 HD
ENDBRANCH   1  31
TORSDOF 5
ENDMDL
MODEL 9
REMARK VINA RESULT:      -8.0      1.929      2.606
REMARK  Name = 
REMARK  5 active torsions:
REMARK  status: ('A' for Active; 'I' for Inactive)
REMARK    1  A    between atoms: C_2  and  C_4
REMARK    2  A    between atoms: C_5  and  C_6
REMARK    3  A    between atoms: C_9  and  O_10
REMARK    4  A    between atoms: O_10  and  C_11
REMARK    5  A    between atoms: C_25  and  C_26
REMARK                            x       y       z     vdW  Elec       q    Type
REMARK                         _______ _______ _______ _____ _____    ______ ____
ROOT
ATOM      1  C   UNL     1      -0.039  11.856  19.145  0.00  0.00    +0.000 A 
ATOM      2  C   UNL     1       1.255  11.301  18.856  0.00  0.00    +0.000 A 
ATOM      3  N   UNL     1       2.144  12.269  18.560  0.00  0.00    +0.000 NA
ATOM      4  N   UNL     1       1.461  13.408  18.736  0.00  0.00    +0.000 N 
ATOM      5  C   UNL     1       0.124  13.220  18.979  0.00  0.00    +0.000 A 
ATOM      6  N   UNL     1      -0.711  14.285  19.075  0.00  0.00    +0.000 N 
ATOM      7  C   UNL     1      -0.270  15.602  18.644  0.00  0.00    +0.000 C 
ATOM      8  C   UNL     1       1.164  15.840  19.104  0.00  0.00    +0.000 C 
ATOM      9  C   UNL     1       2.091  14.725  18.580  0.00  0.00    +0.000 C 
ATOM     10  H   UNL     1      -1.699  14.176  19.297  0.00  0.00    +0.000 HD
ENDROOT
BRANCH   2  11
ATOM     11  C   UNL     1       1.664   9.896  18.796  0.00  0.00    +0.000 A 
ATOM     12  C   UNL     1       2.245   9.349  17.644  0.00  0.00    +0.000 A 
ATOM     13  C   UNL     1       2.643   8.011  17.612  0.00  0.00    +0.000 A 
ATOM     14  C   UNL     1       2.490   7.212  18.742  0.00  0.00    +0.000 A 
ATOM     15  C   UNL     1       1.873   7.733  19.882  0.00  0.00    +0.000 A 
ATOM     16  C   UNL     1       1.492   9.076  19.918  0.00  0.00    +0.000 A 
BRANCH  14  17
ATOM     17  O   UNL     1       2.939   5.916  18.631  0.00  0.00    +0.000 OA
BRANCH  17  18
ATOM     18  C   UNL     1       2.380   4.936  19.421  0.00  0.00    +0.000 A 
ATOM     19  C   UNL     1       1.438   4.116  18.796  0.00  0.00    +0.000 A 
ATOM     20  C   UNL     1       0.801   3.107  19.519  0.00  0.00    +0.000 A 
ATOM     21  C   UNL     1       1.104   2.916  20.867  0.00  0.00    +0.000 A 
ATOM     22  C   UNL     1       2.067   3.711  21.485  0.00  0.00    +0.000 A 
ATOM     23  C   UNL     1       2.726   4.699  20.755  0.00  0.00    +0.000 A 
ENDBRANCH  17  18
ENDBRANCH  14  17
ENDBRANCH   2  11
BRANCH   9  24
ATOM     24  C   UNL     1       3.452  14.790  19.246  0.00  0.00    +0.000 A 
ATOM     25  C   UNL     1       3.613  14.728  20.636  0.00  0.00    +0.000 A 
ATOM     26  C   UNL     1       4.886  14.791  21.194  0.00  0.00    +0.000 A 
ATOM     27  C   UNL     1       5.968  14.918  20.341  0.00  0.00    +0.000 A 
ATOM     28  N   UNL     1       5.860  14.982  18.997  0.00  0.00    +0.000 NA
ATOM     29  C   UNL     1       4.611  14.903  18.482  0.00  0.00    +0.000 A 
ENDBRANCH   9  24
BRANCH   1  31
ATOM     30  N   UNL     1      -1.726  11.459  20.782  0.00  0.00    +0.000 N 
ATOM     31  C   UNL     1      -1.245  11.156  19.536  0.00  0.00    +0.000 C 
ATOM     32  O   UNL     1      -1.864  10.376  18.822  0.00  0.00    +0.000 OA
ATOM     33  H   UNL     1      -2.656  11.124  20.981  0.00  0.00    +0.000 HD
ATOM     34  H   UNL     1      -1.393  12.290  21.251  0.00  0.00    +0.000 HD
ENDBRANCH   1  31
TORSDOF 5
ENDMDL
