MODEL 1
REMARK VINA RESULT:      -8.8      0.000      0.000
REMARK  Name = 
REMARK  8 active torsions:
REMARK  status: ('A' for Active; 'I' for Inactive)
REMARK    1  A    between atoms: C_1  and  C_2
REMARK    2  A    between atoms: C_6  and  C_7
REMARK    3  A    between atoms: C_11  and  C_12
REMARK    4  A    between atoms: N_14  and  C_15
REMARK    5  A    between atoms: N_18  and  C_19
REMARK    6  A    between atoms: C_19  and  C_20
REMARK    7  A    between atoms: C_20  and  O_21
REMARK    8  A    between atoms: O_21  and  C_22
REMARK                            x       y       z     vdW  Elec       q    Type
REMARK                         _______ _______ _______ _____ _____    ______ ____
ROOT
ATOM      1  C   UNL     1       3.828   2.590  17.881  0.00  0.00    +0.000 A 
ATOM      2  C   UNL     1       2.571   2.032  17.587  0.00  0.00    +0.000 A 
ATOM      3  N   UNL     1       1.841   1.841  18.688  0.00  0.00    +0.000 NA
ATOM      4  N   UNL     1       2.604   2.365  19.672  0.00  0.00    +0.000 N 
ATOM      5  C   UNL     1       3.850   2.735  19.246  0.00  0.00    +0.000 A 
ENDROOT
BRANCH   1   8
ATOM      6  C   UNL     1       4.610   4.078  16.200  0.00  0.00    +0.000 C 
ATOM      7  O   UNL     1       3.585   4.754  16.216  0.00  0.00    +0.000 OA
ATOM      8  N   UNL     1       4.828   2.991  17.024  0.00  0.00    +0.000 N 
ATOM      9  H   UNL     1       5.794   2.765  17.221  0.00  0.00    +0.000 HD
BRANCH   6  14
ATOM     10  C   UNL     1       6.890   5.061  15.705  0.00  0.00    +0.000 A 
ATOM     11  O   UNL     1       7.700   5.116  14.599  0.00  0.00    +0.000 OA
ATOM     12  C   UNL     1       6.976   4.510  13.621  0.00  0.00    +0.000 A 
ATOM     13  N   UNL     1       5.798   4.056  13.989  0.00  0.00    +0.000 NA
ATOM     14  C   UNL     1       5.740   4.384  15.337  0.00  0.00    +0.000 A 
BRANCH  10  20
ATOM     15  C   UNL     1       8.174   9.344  17.884  0.00  0.00    +0.000 C 
ATOM     16  C   UNL     1       8.004   7.858  17.984  0.00  0.00    +0.000 A 
ATOM     17  C   UNL     1       8.284   7.155  19.154  0.00  0.00    +0.000 A 
ATOM     18  C   UNL     1       8.108   5.770  19.202  0.00  0.00    +0.000 A 
ATOM     19  C   UNL     1       7.647   5.075  18.078  0.00  0.00    +0.000 A 
ATOM     20  C   UNL     1       7.359   5.761  16.895  0.00  0.00    +0.000 A 
ATOM     21  C   UNL     1       7.552   7.149  16.866  0.00  0.00    +0.000 A 
ENDBRANCH  10  20
ENDBRANCH   6  14
ENDBRANCH   1   8
BRANCH   4  22
ATOM     22  C   UNL     1       2.049   2.571  20.996  0.00  0.00    +0.000 C 
BRANCH  22  23
ATOM     23  C   UNL     1       1.349   3.915  21.137  0.00  0.00    +0.000 C 
BRANCH  23  24
ATOM     24  O   UNL     1       2.271   4.955  21.501  0.00  0.00    +0.000 OA
BRANCH  24  25
ATOM     25  C   UNL     1       2.154   6.022  20.627  0.00  0.00    +0.000 A 
ATOM     26  C   UNL     1       2.705   5.928  19.365  0.00  0.00    +0.000 A 
ATOM     27  N   UNL     1       2.626   6.939  18.461  0.00  0.00    +0.000 NA
ATOM     28  C   UNL     1       1.969   8.051  18.861  0.00  0.00    +0.000 A 
ATOM     29  C   UNL     1       1.829   9.141  18.009  0.00  0.00    +0.000 A 
ATOM     30  C   UNL     1       1.151  10.298  18.405  0.00  0.00    +0.000 A 
ATOM     31  C   UNL     1       0.595  10.368  19.676  0.00  0.00    +0.000 A 
ATOM     32  C   UNL     1       0.727   9.286  20.542  0.00  0.00    +0.000 A 
ATOM     33  C   UNL     1       1.401   8.138  20.156  0.00  0.00    +0.000 A 
ATOM     34  N   UNL     1       1.499   7.129  21.030  0.00  0.00    +0.000 NA
ENDBRANCH  24  25
ENDBRANCH  23  24
ENDBRANCH  22  23
ENDBRANCH   4  22
TORSDOF 7
ENDMDL
MODEL 2
REMARK VINA RESULT:      -8.4      3.394      5.920
REMARK  Name = 
REMARK  8 active torsions:
REMARK  status: ('A' for Active; 'I' for Inactive)
REMARK    1  A    between atoms: C_1  and  C_2
REMARK    2  A    between atoms: C_6  and  C_7
REMARK    3  A    between atoms: C_11  and  C_12
REMARK    4  A    between atoms: N_14  and  C_15
REMARK    5  A    between atoms: N_18  and  C_19
REMARK    6  A    between atoms: C_19  and  C_20
REMARK    7  A    between atoms: C_20  and  O_21
REMARK    8  A    between atoms: O_21  and  C_22
REMARK                            x       y       z     vdW  Elec       q    Type
REMARK                         _______ _______ _______ _____ _____    ______ ____
ROOT
ATOM      1  C   UNL     1       2.225   7.290  19.932  0.00  0.00    +0.000 A 
ATOM      2  C   UNL     1       2.065   8.182  18.857  0.00  0.00    +0.000 A 
ATOM      3  N   UNL     1       1.271   9.208  19.173  0.00  0.00    +0.000 NA
ATOM      4  N   UNL     1       1.004   9.011  20.482  0.00  0.00    +0.000 N 
ATOM      5  C   UNL     1       1.473   7.816  20.954  0.00  0.00    +0.000 A 
ENDROOT
BRANCH   1   8
ATOM      6  C   UNL     1       2.442   4.929  19.762  0.00  0.00    +0.000 C 
ATOM      7  O   UNL     1       1.279   4.773  19.401  0.00  0.00    +0.000 OA
ATOM      8  N   UNL     1       3.008   6.162  20.021  0.00  0.00    +0.000 N 
ATOM      9  H   UNL     1       4.012   6.224  19.916  0.00  0.00    +0.000 HD
BRANCH   6  14
ATOM     10  C   UNL     1       4.644   3.746  19.358  0.00  0.00    +0.000 A 
ATOM     11  O   UNL     1       5.185   2.550  19.754  0.00  0.00    +0.000 OA
ATOM     12  C   UNL     1       4.200   1.957  20.480  0.00  0.00    +0.000 A 
ATOM     13  N   UNL     1       3.093   2.656  20.606  0.00  0.00    +0.000 NA
ATOM     14  C   UNL     1       3.375   3.823  19.906  0.00  0.00    +0.000 A 
BRANCH  10  20
ATOM     15  C   UNL     1       5.862   4.899  14.676  0.00  0.00    +0.000 C 
ATOM     16  C   UNL     1       6.060   5.129  16.143  0.00  0.00    +0.000 A 
ATOM     17  C   UNL     1       6.968   6.067  16.632  0.00  0.00    +0.000 A 
ATOM     18  C   UNL     1       7.117   6.251  18.009  0.00  0.00    +0.000 A 
ATOM     19  C   UNL     1       6.357   5.498  18.910  0.00  0.00    +0.000 A 
ATOM     20  C   UNL     1       5.439   4.553  18.442  0.00  0.00    +0.000 A 
ATOM     21  C   UNL     1       5.313   4.379  17.056  0.00  0.00    +0.000 A 
ENDBRANCH  10  20
ENDBRANCH   6  14
ENDBRANCH   1   8
BRANCH   4  22
ATOM     22  C   UNL     1       0.364  10.053  21.262  0.00  0.00    +0.000 C 
BRANCH  22  23
ATOM     23  C   UNL     1       0.425  11.415  20.584  0.00  0.00    +0.000 C 
BRANCH  23  24
ATOM     24  O   UNL     1      -0.760  12.186  20.842  0.00  0.00    +0.000 OA
BRANCH  24  25
ATOM     25  C   UNL     1      -1.704  11.950  19.858  0.00  0.00    +0.000 A 
ATOM     26  C   UNL     1      -2.996  12.404  20.035  0.00  0.00    +0.000 A 
ATOM     27  N   UNL     1      -3.969  12.205  19.109  0.00  0.00    +0.000 NA
ATOM     28  C   UNL     1      -3.605  11.537  17.992  0.00  0.00    +0.000 A 
ATOM     29  C   UNL     1      -4.527  11.283  16.982  0.00  0.00    +0.000 A 
ATOM     30  C   UNL     1      -4.168  10.596  15.818  0.00  0.00    +0.000 A 
ATOM     31  C   UNL     1      -2.862  10.156  15.655  0.00  0.00    +0.000 A 
ATOM     32  C   UNL     1      -1.926  10.400  16.657  0.00  0.00    +0.000 A 
ATOM     33  C   UNL     1      -2.277  11.078  17.814  0.00  0.00    +0.000 A 
ATOM     34  N   UNL     1      -1.338  11.282  18.746  0.00  0.00    +0.000 NA
ENDBRANCH  24  25
ENDBRANCH  23  24
ENDBRANCH  22  23
ENDBRANCH   4  22
TORSDOF 7
ENDMDL
MODEL 3
REMARK VINA RESULT:      -8.2      4.173      6.569
REMARK  Name = 
REMARK  8 active torsions:
REMARK  status: ('A' for Active; 'I' for Inactive)
REMARK    1  A    between atoms: C_1  and  C_2
REMARK    2  A    between atoms: C_6  and  C_7
REMARK    3  A    between atoms: C_11  and  C_12
REMARK    4  A    between atoms: N_14  and  C_15
REMARK    5  A    between atoms: N_18  and  C_19
REMARK    6  A    between atoms: C_19  and  C_20
REMARK    7  A    between atoms: C_20  and  O_21
REMARK    8  A    between atoms: O_21  and  C_22
REMARK                            x       y       z     vdW  Elec       q    Type
REMARK                         _______ _______ _______ _____ _____    ______ ____
ROOT
ATOM      1  C   UNL     1       2.259   7.374  19.973  0.00  0.00    +0.000 A 
ATOM      2  C   UNL     1       1.383   7.978  20.892  0.00  0.00    +0.000 A 
ATOM      3  N   UNL     1       0.776   9.048  20.373  0.00  0.00    +0.000 NA
ATOM      4  N   UNL     1       1.203   9.066  19.091  0.00  0.00    +0.000 N 
ATOM      5  C   UNL     1       2.174   8.138  18.835  0.00  0.00    +0.000 A 
ENDROOT
BRANCH   1   8
ATOM      6  C   UNL     1       2.492   5.031  19.649  0.00  0.00    +0.000 C 
ATOM      7  O   UNL     1       1.411   4.927  19.077  0.00  0.00    +0.000 OA
ATOM      8  N   UNL     1       3.009   6.227  20.106  0.00  0.00    +0.000 N 
ATOM      9  H   UNL     1       4.017   6.279  20.185  0.00  0.00    +0.000 HD
BRANCH   6  14
ATOM     10  C   UNL     1       4.620   3.710  19.278  0.00  0.00    +0.000 A 
ATOM     11  O   UNL     1       5.123   2.530  19.766  0.00  0.00    +0.000 OA
ATOM     12  C   UNL     1       4.144   2.057  20.581  0.00  0.00    +0.000 A 
ATOM     13  N   UNL     1       3.075   2.818  20.681  0.00  0.00    +0.000 NA
ATOM     14  C   UNL     1       3.380   3.899  19.864  0.00  0.00    +0.000 A 
BRANCH  10  20
ATOM     15  C   UNL     1       5.681   4.369  14.464  0.00  0.00    +0.000 C 
ATOM     16  C   UNL     1       5.957   4.720  15.895  0.00  0.00    +0.000 A 
ATOM     17  C   UNL     1       6.931   5.649  16.258  0.00  0.00    +0.000 A 
ATOM     18  C   UNL     1       7.150   5.948  17.604  0.00  0.00    +0.000 A 
ATOM     19  C   UNL     1       6.395   5.321  18.602  0.00  0.00    +0.000 A 
ATOM     20  C   UNL     1       5.412   4.387  18.260  0.00  0.00    +0.000 A 
ATOM     21  C   UNL     1       5.215   4.096  16.902  0.00  0.00    +0.000 A 
ENDBRANCH  10  20
ENDBRANCH   6  14
ENDBRANCH   1   8
BRANCH   4  22
ATOM     22  C   UNL     1       0.574   9.944  18.123  0.00  0.00    +0.000 C 
BRANCH  22  23
ATOM     23  C   UNL     1      -0.903  10.173  18.412  0.00  0.00    +0.000 C 
BRANCH  23  24
ATOM     24  O   UNL     1      -1.335  11.467  17.961  0.00  0.00    +0.000 OA
BRANCH  24  25
ATOM     25  C   UNL     1      -2.550  11.791  18.539  0.00  0.00    +0.000 A 
ATOM     26  C   UNL     1      -2.572  12.362  19.796  0.00  0.00    +0.000 A 
ATOM     27  N   UNL     1      -3.730  12.703  20.419  0.00  0.00    +0.000 NA
ATOM     28  C   UNL     1      -4.872  12.456  19.738  0.00  0.00    +0.000 A 
ATOM     29  C   UNL     1      -6.110  12.771  20.287  0.00  0.00    +0.000 A 
ATOM     30  C   UNL     1      -7.301  12.526  19.596  0.00  0.00    +0.000 A 
ATOM     31  C   UNL     1      -7.256  11.959  18.329  0.00  0.00    +0.000 A 
ATOM     32  C   UNL     1      -6.025  11.637  17.765  0.00  0.00    +0.000 A 
ATOM     33  C   UNL     1      -4.841  11.876  18.446  0.00  0.00    +0.000 A 
ATOM     34  N   UNL     1      -3.686  11.543  17.857  0.00  0.00    +0.000 NA
ENDBRANCH  24  25
ENDBRANCH  23  24
ENDBRANCH  22  23
ENDBRANCH   4  22
TORSDOF 7
ENDMDL
MODEL 4
REMARK VINA RESULT:      -8.2      4.119      6.468
REMARK  Name = 
REMARK  8 active torsions:
REMARK  status: ('A' for Active; 'I' for Inactive)
REMARK    1  A    between atoms: C_1  and  C_2
REMARK    2  A    between atoms: C_6  and  C_7
REMARK    3  A    between atoms: C_11  and  C_12
REMARK    4  A    between atoms: N_14  and  C_15
REMARK    5  A    between atoms: N_18  and  C_19
REMARK    6  A    between atoms: C_19  and  C_20
REMARK    7  A    between atoms: C_20  and  O_21
REMARK    8  A    between atoms: O_21  and  C_22
REMARK                            x       y       z     vdW  Elec       q    Type
REMARK                         _______ _______ _______ _____ _____    ______ ____
ROOT
ATOM      1  C   UNL     1       2.276   7.744  19.019  0.00  0.00    +0.000 A 
ATOM      2  C   UNL     1       2.448   8.520  17.859  0.00  0.00    +0.000 A 
ATOM      3  N   UNL     1       1.702   9.626  17.883  0.00  0.00    +0.000 NA
ATOM      4  N   UNL     1       1.126   9.595  19.104  0.00  0.00    +0.000 N 
ATOM      5  C   UNL     1       1.362   8.430  19.781  0.00  0.00    +0.000 A 
ENDROOT
BRANCH   1   8
ATOM      6  C   UNL     1       2.463   5.378  18.885  0.00  0.00    +0.000 C 
ATOM      7  O   UNL     1       1.555   5.278  18.065  0.00  0.00    +0.000 OA
ATOM      8  N   UNL     1       2.910   6.581  19.395  0.00  0.00    +0.000 N 
ATOM      9  H   UNL     1       3.867   6.601  19.723  0.00  0.00    +0.000 HD
BRANCH   6  14
ATOM     10  C   UNL     1       4.482   3.852  18.976  0.00  0.00    +0.000 A 
ATOM     11  O   UNL     1       4.816   2.733  19.695  0.00  0.00    +0.000 OA
ATOM     12  C   UNL     1       3.715   2.476  20.451  0.00  0.00    +0.000 A 
ATOM     13  N   UNL     1       2.720   3.324  20.305  0.00  0.00    +0.000 NA
ATOM     14  C   UNL     1       3.211   4.230  19.374  0.00  0.00    +0.000 A 
BRANCH  10  20
ATOM     15  C   UNL     1       5.861   3.976  14.199  0.00  0.00    +0.000 C 
ATOM     16  C   UNL     1       6.140   4.357  15.622  0.00  0.00    +0.000 A 
ATOM     17  C   UNL     1       7.265   5.094  15.987  0.00  0.00    +0.000 A 
ATOM     18  C   UNL     1       7.482   5.430  17.325  0.00  0.00    +0.000 A 
ATOM     19  C   UNL     1       6.574   5.031  18.312  0.00  0.00    +0.000 A 
ATOM     20  C   UNL     1       5.438   4.292  17.968  0.00  0.00    +0.000 A 
ATOM     21  C   UNL     1       5.245   3.959  16.619  0.00  0.00    +0.000 A 
ENDBRANCH  10  20
ENDBRANCH   6  14
ENDBRANCH   1   8
BRANCH   4  22
ATOM     22  C   UNL     1       0.424  10.759  19.611  0.00  0.00    +0.000 C 
BRANCH  22  23
ATOM     23  C   UNL     1      -0.455  11.419  18.558  0.00  0.00    +0.000 C 
BRANCH  23  24
ATOM     24  O   UNL     1      -1.286  10.458  17.887  0.00  0.00    +0.000 OA
BRANCH  24  25
ATOM     25  C   UNL     1      -2.573  10.951  17.758  0.00  0.00    +0.000 A 
ATOM     26  C   UNL     1      -3.199  10.898  16.528  0.00  0.00    +0.000 A 
ATOM     27  N   UNL     1      -4.459  11.366  16.335  0.00  0.00    +0.000 NA
ATOM     28  C   UNL     1      -5.079  11.887  17.418  0.00  0.00    +0.000 A 
ATOM     29  C   UNL     1      -6.372  12.389  17.326  0.00  0.00    +0.000 A 
ATOM     30  C   UNL     1      -7.029  12.929  18.436  0.00  0.00    +0.000 A 
ATOM     31  C   UNL     1      -6.385  12.964  19.666  0.00  0.00    +0.000 A 
ATOM     32  C   UNL     1      -5.089  12.467  19.776  0.00  0.00    +0.000 A 
ATOM     33  C   UNL     1      -4.432  11.933  18.677  0.00  0.00    +0.000 A 
ATOM     34  N   UNL     1      -3.186  11.471  18.840  0.00  0.00    +0.000 NA
ENDBRANCH  24  25
ENDBRANCH  23  24
ENDBRANCH  22  23
ENDBRANCH   4  22
TORSDOF 7
ENDMDL
MODEL 5
REMARK VINA RESULT:      -8.2      4.163      6.579
REMARK  Name = 
REMARK  8 active torsions:
REMARK  status: ('A' for Active; 'I' for Inactive)
REMARK    1  A    between atoms: C_1  and  C_2
REMARK    2  A    between atoms: C_6  and  C_7
REMARK    3  A    between atoms: C_11  and  C_12
REMARK    4  A    between atoms: N_14  and  C_15
REMARK    5  A    between atoms: N_18  and  C_19
REMARK    6  A    between atoms: C_19  and  C_20
REMARK    7  A    between atoms: C_20  and  O_21
REMARK    8  A    between atoms: O_21  and  C_22
REMARK                            x       y       z     vdW  Elec       q    Type
REMARK                         _______ _______ _______ _____ _____    ______ ____
ROOT
ATOM      1  C   UNL     1       2.539   7.517  18.818  0.00  0.00    +0.000 A 
ATOM      2  C   UNL     1       2.606   8.225  17.605  0.00  0.00    +0.000 A 
ATOM      3  N   UNL     1       1.896   9.355  17.647  0.00  0.00    +0.000 NA
ATOM      4  N   UNL     1       1.453   9.405  18.922  0.00  0.00    +0.000 N 
ATOM      5  C   UNL     1       1.731   8.270  19.634  0.00  0.00    +0.000 A 
ENDROOT
BRANCH   1   8
ATOM      6  C   UNL     1       2.531   5.148  19.016  0.00  0.00    +0.000 C 
ATOM      7  O   UNL     1       1.424   5.033  18.499  0.00  0.00    +0.000 OA
ATOM      8  N   UNL     1       3.179   6.355  19.188  0.00  0.00    +0.000 N 
ATOM      9  H   UNL     1       4.189   6.319  19.237  0.00  0.00    +0.000 HD
BRANCH   6  14
ATOM     10  C   UNL     1       4.560   3.633  18.988  0.00  0.00    +0.000 A 
ATOM     11  O   UNL     1       4.943   2.516  19.686  0.00  0.00    +0.000 OA
ATOM     12  C   UNL     1       3.890   2.254  20.506  0.00  0.00    +0.000 A 
ATOM     13  N   UNL     1       2.883   3.096  20.419  0.00  0.00    +0.000 NA
ATOM     14  C   UNL     1       3.313   4.005  19.460  0.00  0.00    +0.000 A 
BRANCH  10  20
ATOM     15  C   UNL     1       5.487   4.052  14.119  0.00  0.00    +0.000 C 
ATOM     16  C   UNL     1       5.932   4.285  15.531  0.00  0.00    +0.000 A 
ATOM     17  C   UNL     1       7.149   4.894  15.836  0.00  0.00    +0.000 A 
ATOM     18  C   UNL     1       7.521   5.094  17.167  0.00  0.00    +0.000 A 
ATOM     19  C   UNL     1       6.678   4.688  18.207  0.00  0.00    +0.000 A 
ATOM     20  C   UNL     1       5.453   4.078  17.925  0.00  0.00    +0.000 A 
ATOM     21  C   UNL     1       5.103   3.878  16.581  0.00  0.00    +0.000 A 
ENDBRANCH  10  20
ENDBRANCH   6  14
ENDBRANCH   1   8
BRANCH   4  22
ATOM     22  C   UNL     1       0.841  10.616  19.436  0.00  0.00    +0.000 C 
BRANCH  22  23
ATOM     23  C   UNL     1      -0.679  10.583  19.356  0.00  0.00    +0.000 C 
BRANCH  23  24
ATOM     24  O   UNL     1      -1.195  11.723  18.650  0.00  0.00    +0.000 OA
BRANCH  24  25
ATOM     25  C   UNL     1      -2.506  11.961  19.024  0.00  0.00    +0.000 A 
ATOM     26  C   UNL     1      -2.764  12.579  20.231  0.00  0.00    +0.000 A 
ATOM     27  N   UNL     1      -4.027  12.840  20.657  0.00  0.00    +0.000 NA
ATOM     28  C   UNL     1      -5.029  12.466  19.829  0.00  0.00    +0.000 A 
ATOM     29  C   UNL     1      -6.357  12.692  20.172  0.00  0.00    +0.000 A 
ATOM     30  C   UNL     1      -7.406  12.313  19.327  0.00  0.00    +0.000 A 
ATOM     31  C   UNL     1      -7.124  11.702  18.113  0.00  0.00    +0.000 A 
ATOM     32  C   UNL     1      -5.799  11.468  17.755  0.00  0.00    +0.000 A 
ATOM     33  C   UNL     1      -4.756  11.838  18.590  0.00  0.00    +0.000 A 
ATOM     34  N   UNL     1      -3.501  11.585  18.197  0.00  0.00    +0.000 NA
ENDBRANCH  24  25
ENDBRANCH  23  24
ENDBRANCH  22  23
ENDBRANCH   4  22
TORSDOF 7
ENDMDL
MODEL 6
REMARK VINA RESULT:      -8.2      4.003      6.453
REMARK  Name = 
REMARK  8 active torsions:
REMARK  status: ('A' for Active; 'I' for Inactive)
REMARK    1  A    between atoms: C_1  and  C_2
REMARK    2  A    between atoms: C_6  and  C_7
REMARK    3  A    between atoms: C_11  and  C_12
REMARK    4  A    between atoms: N_14  and  C_15
REMARK    5  A    between atoms: N_18  and  C_19
REMARK    6  A    between atoms: C_19  and  C_20
REMARK    7  A    between atoms: C_20  and  O_21
REMARK    8  A    between atoms: O_21  and  C_22
REMARK                            x       y       z     vdW  Elec       q    Type
REMARK                         _______ _______ _______ _____ _____    ______ ____
ROOT
ATOM      1  C   UNL     1       2.240   7.319  19.803  0.00  0.00    +0.000 A 
ATOM      2  C   UNL     1       2.155   8.175  18.690  0.00  0.00    +0.000 A 
ATOM      3  N   UNL     1       1.347   9.212  18.918  0.00  0.00    +0.000 NA
ATOM      4  N   UNL     1       0.992   9.059  20.213  0.00  0.00    +0.000 N 
ATOM      5  C   UNL     1       1.424   7.880  20.754  0.00  0.00    +0.000 A 
ENDROOT
BRANCH   1   8
ATOM      6  C   UNL     1       2.531   4.974  19.546  0.00  0.00    +0.000 C 
ATOM      7  O   UNL     1       1.466   4.831  18.952  0.00  0.00    +0.000 OA
ATOM      8  N   UNL     1       3.011   6.193  19.982  0.00  0.00    +0.000 N 
ATOM      9  H   UNL     1       4.015   6.269  20.082  0.00  0.00    +0.000 HD
BRANCH   6  14
ATOM     10  C   UNL     1       4.691   3.687  19.250  0.00  0.00    +0.000 A 
ATOM     11  O   UNL     1       5.210   2.534  19.782  0.00  0.00    +0.000 OA
ATOM     12  C   UNL     1       4.227   2.065  20.596  0.00  0.00    +0.000 A 
ATOM     13  N   UNL     1       3.142   2.807  20.655  0.00  0.00    +0.000 NA
ATOM     14  C   UNL     1       3.438   3.868  19.809  0.00  0.00    +0.000 A 
BRANCH  10  20
ATOM     15  C   UNL     1       5.734   4.309  14.427  0.00  0.00    +0.000 C 
ATOM     16  C   UNL     1       6.022   4.664  15.854  0.00  0.00    +0.000 A 
ATOM     17  C   UNL     1       7.009   5.582  16.207  0.00  0.00    +0.000 A 
ATOM     18  C   UNL     1       7.240   5.885  17.551  0.00  0.00    +0.000 A 
ATOM     19  C   UNL     1       6.483   5.272  18.556  0.00  0.00    +0.000 A 
ATOM     20  C   UNL     1       5.486   4.349  18.224  0.00  0.00    +0.000 A 
ATOM     21  C   UNL     1       5.278   4.054  16.869  0.00  0.00    +0.000 A 
ENDBRANCH  10  20
ENDBRANCH   6  14
ENDBRANCH   1   8
BRANCH   4  22
ATOM     22  C   UNL     1       0.306  10.129  20.913  0.00  0.00    +0.000 C 
BRANCH  22  23
ATOM     23  C   UNL     1       0.045  11.338  20.026  0.00  0.00    +0.000 C 
BRANCH  23  24
ATOM     24  O   UNL     1      -0.192  12.522  20.805  0.00  0.00    +0.000 OA
BRANCH  24  25
ATOM     25  C   UNL     1      -1.533  12.615  21.133  0.00  0.00    +0.000 A 
ATOM     26  C   UNL     1      -2.466  12.781  20.129  0.00  0.00    +0.000 A 
ATOM     27  N   UNL     1      -3.797  12.880  20.384  0.00  0.00    +0.000 NA
ATOM     28  C   UNL     1      -4.166  12.803  21.683  0.00  0.00    +0.000 A 
ATOM     29  C   UNL     1      -5.505  12.890  22.049  0.00  0.00    +0.000 A 
ATOM     30  C   UNL     1      -5.904  12.811  23.387  0.00  0.00    +0.000 A 
ATOM     31  C   UNL     1      -4.951  12.635  24.380  0.00  0.00    +0.000 A 
ATOM     32  C   UNL     1      -3.606  12.547  24.031  0.00  0.00    +0.000 A 
ATOM     33  C   UNL     1      -3.203  12.628  22.707  0.00  0.00    +0.000 A 
ATOM     34  N   UNL     1      -1.897  12.540  22.429  0.00  0.00    +0.000 NA
ENDBRANCH  24  25
ENDBRANCH  23  24
ENDBRANCH  22  23
ENDBRANCH   4  22
TORSDOF 7
ENDMDL
MODEL 7
REMARK VINA RESULT:      -8.1      3.785      6.269
REMARK  Name = 
REMARK  8 active torsions:
REMARK  status: ('A' for Active; 'I' for Inactive)
REMARK    1  A    between atoms: C_1  and  C_2
REMARK    2  A    between atoms: C_6  and  C_7
REMARK    3  A    between atoms: C_11  and  C_12
REMARK    4  A    between atoms: N_14  and  C_15
REMARK    5  A    between atoms: N_18  and  C_19
REMARK    6  A    between atoms: C_19  and  C_20
REMARK    7  A    between atoms: C_20  and  O_21
REMARK    8  A    between atoms: O_21  and  C_22
REMARK                            x       y       z     vdW  Elec       q    Type
REMARK                         _______ _______ _______ _____ _____    ______ ____
ROOT
ATOM      1  C   UNL     1       2.142   7.421  20.142  0.00  0.00    +0.000 A 
ATOM      2  C   UNL     1       1.247   7.958  21.084  0.00  0.00    +0.000 A 
ATOM      3  N   UNL     1       0.625   9.044  20.619  0.00  0.00    +0.000 NA
ATOM      4  N   UNL     1       1.062   9.139  19.344  0.00  0.00    +0.000 N 
ATOM      5  C   UNL     1       2.052   8.245  19.046  0.00  0.00    +0.000 A 
ENDROOT
BRANCH   1   8
ATOM      6  C   UNL     1       2.441   5.115  19.649  0.00  0.00    +0.000 C 
ATOM      7  O   UNL     1       1.387   5.035  19.025  0.00  0.00    +0.000 OA
ATOM      8  N   UNL     1       2.911   6.283  20.218  0.00  0.00    +0.000 N 
ATOM      9  H   UNL     1       3.913   6.347  20.343  0.00  0.00    +0.000 HD
BRANCH   6  14
ATOM     10  C   UNL     1       4.531   3.784  19.131  0.00  0.00    +0.000 A 
ATOM     11  O   UNL     1       5.075   2.615  19.601  0.00  0.00    +0.000 OA
ATOM     12  C   UNL     1       4.168   2.162  20.506  0.00  0.00    +0.000 A 
ATOM     13  N   UNL     1       3.111   2.926  20.678  0.00  0.00    +0.000 NA
ATOM     14  C   UNL     1       3.344   3.987  19.814  0.00  0.00    +0.000 A 
BRANCH  10  20
ATOM     15  C   UNL     1       7.571   7.411  17.599  0.00  0.00    +0.000 C 
ATOM     16  C   UNL     1       6.723   6.223  17.259  0.00  0.00    +0.000 A 
ATOM     17  C   UNL     1       6.594   5.751  15.953  0.00  0.00    +0.000 A 
ATOM     18  C   UNL     1       5.795   4.638  15.683  0.00  0.00    +0.000 A 
ATOM     19  C   UNL     1       5.118   3.983  16.718  0.00  0.00    +0.000 A 
ATOM     20  C   UNL     1       5.235   4.438  18.035  0.00  0.00    +0.000 A 
ATOM     21  C   UNL     1       6.035   5.563  18.282  0.00  0.00    +0.000 A 
ENDBRANCH  10  20
ENDBRANCH   6  14
ENDBRANCH   1   8
BRANCH   4  22
ATOM     22  C   UNL     1       0.424  10.059  18.421  0.00  0.00    +0.000 C 
BRANCH  22  23
ATOM     23  C   UNL     1      -0.919  10.564  18.929  0.00  0.00    +0.000 C 
BRANCH  23  24
ATOM     24  O   UNL     1      -0.830  11.922  19.392  0.00  0.00    +0.000 OA
BRANCH  24  25
ATOM     25  C   UNL     1      -1.562  12.075  20.557  0.00  0.00    +0.000 A 
ATOM     26  C   UNL     1      -0.965  11.804  21.772  0.00  0.00    +0.000 A 
ATOM     27  N   UNL     1      -1.628  11.933  22.951  0.00  0.00    +0.000 NA
ATOM     28  C   UNL     1      -2.912  12.349  22.874  0.00  0.00    +0.000 A 
ATOM     29  C   UNL     1      -3.676  12.516  24.024  0.00  0.00    +0.000 A 
ATOM     30  C   UNL     1      -5.005  12.948  23.964  0.00  0.00    +0.000 A 
ATOM     31  C   UNL     1      -5.583  13.224  22.732  0.00  0.00    +0.000 A 
ATOM     32  C   UNL     1      -4.833  13.061  21.571  0.00  0.00    +0.000 A 
ATOM     33  C   UNL     1      -3.516  12.631  21.624  0.00  0.00    +0.000 A 
ATOM     34  N   UNL     1      -2.842  12.488  20.476  0.00  0.00    +0.000 NA
ENDBRANCH  24  25
ENDBRANCH  23  24
ENDBRANCH  22  23
ENDBRANCH   4  22
TORSDOF 7
ENDMDL
MODEL 8
REMARK VINA RESULT:      -8.1      4.095      6.432
REMARK  Name = 
REMARK  8 active torsions:
REMARK  status: ('A' for Active; 'I' for Inactive)
REMARK    1  A    between atoms: C_1  and  C_2
REMARK    2  A    between atoms: C_6  and  C_7
REMARK    3  A    between atoms: C_11  and  C_12
REMARK    4  A    between atoms: N_14  and  C_15
REMARK    5  A    between atoms: N_18  and  C_19
REMARK    6  A    between atoms: C_19  and  C_20
REMARK    7  A    between atoms: C_20  and  O_21
REMARK    8  A    between atoms: O_21  and  C_22
REMARK                            x       y       z     vdW  Elec       q    Type
REMARK                         _______ _______ _______ _____ _____    ______ ____
ROOT
ATOM      1  C   UNL     1       1.982   7.463  20.156  0.00  0.00    +0.000 A 
ATOM      2  C   UNL     1       1.942   8.399  19.108  0.00  0.00    +0.000 A 
ATOM      3  N   UNL     1       1.127   9.420  19.381  0.00  0.00    +0.000 NA
ATOM      4  N   UNL     1       0.722   9.173  20.647  0.00  0.00    +0.000 N 
ATOM      5  C   UNL     1       1.132   7.955  21.115  0.00  0.00    +0.000 A 
ENDROOT
BRANCH   1   8
ATOM      6  C   UNL     1       2.529   5.273  19.409  0.00  0.00    +0.000 C 
ATOM      7  O   UNL     1       1.725   5.308  18.482  0.00  0.00    +0.000 OA
ATOM      8  N   UNL     1       2.744   6.323  20.281  0.00  0.00    +0.000 N 
ATOM      9  H   UNL     1       3.654   6.359  20.722  0.00  0.00    +0.000 HD
BRANCH   6  14
ATOM     10  C   UNL     1       4.619   3.884  19.071  0.00  0.00    +0.000 A 
ATOM     11  O   UNL     1       5.097   2.713  19.601  0.00  0.00    +0.000 OA
ATOM     12  C   UNL     1       4.115   2.298  20.444  0.00  0.00    +0.000 A 
ATOM     13  N   UNL     1       3.067   3.089  20.523  0.00  0.00    +0.000 NA
ATOM     14  C   UNL     1       3.390   4.128  19.660  0.00  0.00    +0.000 A 
BRANCH  10  20
ATOM     15  C   UNL     1       7.726   7.505  17.667  0.00  0.00    +0.000 C 
ATOM     16  C   UNL     1       6.940   6.281  17.305  0.00  0.00    +0.000 A 
ATOM     17  C   UNL     1       6.954   5.743  16.019  0.00  0.00    +0.000 A 
ATOM     18  C   UNL     1       6.209   4.597  15.728  0.00  0.00    +0.000 A 
ATOM     19  C   UNL     1       5.444   3.978  16.722  0.00  0.00    +0.000 A 
ATOM     20  C   UNL     1       5.417   4.501  18.019  0.00  0.00    +0.000 A 
ATOM     21  C   UNL     1       6.165   5.656  18.286  0.00  0.00    +0.000 A 
ENDBRANCH  10  20
ENDBRANCH   6  14
ENDBRANCH   1   8
BRANCH   4  22
ATOM     22  C   UNL     1       0.012  10.191  21.398  0.00  0.00    +0.000 C 
BRANCH  22  23
ATOM     23  C   UNL     1       0.449  11.602  21.032  0.00  0.00    +0.000 C 
BRANCH  23  24
ATOM     24  O   UNL     1       0.058  12.553  22.036  0.00  0.00    +0.000 OA
BRANCH  24  25
ATOM     25  C   UNL     1      -1.319  12.689  22.051  0.00  0.00    +0.000 A 
ATOM     26  C   UNL     1      -1.982  13.006  20.882  0.00  0.00    +0.000 A 
ATOM     27  N   UNL     1      -3.331  13.155  20.830  0.00  0.00    +0.000 NA
ATOM     28  C   UNL     1      -4.000  12.971  21.990  0.00  0.00    +0.000 A 
ATOM     29  C   UNL     1      -5.384  13.098  22.042  0.00  0.00    +0.000 A 
ATOM     30  C   UNL     1      -6.092  12.909  23.233  0.00  0.00    +0.000 A 
ATOM     31  C   UNL     1      -5.408  12.582  24.396  0.00  0.00    +0.000 A 
ATOM     32  C   UNL     1      -4.022  12.452  24.362  0.00  0.00    +0.000 A 
ATOM     33  C   UNL     1      -3.314  12.641  23.185  0.00  0.00    +0.000 A 
ATOM     34  N   UNL     1      -1.982  12.507  23.211  0.00  0.00    +0.000 NA
ENDBRANCH  24  25
ENDBRANCH  23  24
ENDBRANCH  22  23
ENDBRANCH   4  22
TORSDOF 7
ENDMDL
MODEL 9
REMARK VINA RESULT:      -8.1      4.100      6.569
REMARK  Name = 
REMARK  8 active torsions:
REMARK  status: ('A' for Active; 'I' for Inactive)
REMARK    1  A    between atoms: C_1  and  C_2
REMARK    2  A    between atoms: C_6  and  C_7
REMARK    3  A    between atoms: C_11  and  C_12
REMARK    4  A    between atoms: N_14  and  C_15
REMARK    5  A    between atoms: N_18  and  C_19
REMARK    6  A    between atoms: C_19  and  C_20
REMARK    7  A    between atoms: C_20  and  O_21
REMARK    8  A    between atoms: O_21  and  C_22
REMARK                            x       y       z     vdW  Elec       q    Type
REMARK                         _______ _______ _______ _____ _____    ______ ____
ROOT
ATOM      1  C   UNL     1       2.305   7.468  19.427  0.00  0.00    +0.000 A 
ATOM      2  C   UNL     1       2.172   8.180  18.222  0.00  0.00    +0.000 A 
ATOM      3  N   UNL     1       1.438   9.285  18.374  0.00  0.00    +0.000 NA
ATOM      4  N   UNL     1       1.184   9.318  19.700  0.00  0.00    +0.000 N 
ATOM      5  C   UNL     1       1.600   8.192  20.356  0.00  0.00    +0.000 A 
ENDROOT
BRANCH   1   8
ATOM      6  C   UNL     1       2.500   5.100  19.351  0.00  0.00    +0.000 C 
ATOM      7  O   UNL     1       1.429   4.955  18.770  0.00  0.00    +0.000 OA
ATOM      8  N   UNL     1       3.031   6.329  19.693  0.00  0.00    +0.000 N 
ATOM      9  H   UNL     1       4.037   6.371  19.788  0.00  0.00    +0.000 HD
BRANCH   6  14
ATOM     10  C   UNL     1       4.624   3.732  19.189  0.00  0.00    +0.000 A 
ATOM     11  O   UNL     1       5.090   2.593  19.796  0.00  0.00    +0.000 OA
ATOM     12  C   UNL     1       4.069   2.200  20.603  0.00  0.00    +0.000 A 
ATOM     13  N   UNL     1       3.008   2.977  20.591  0.00  0.00    +0.000 NA
ATOM     14  C   UNL     1       3.362   3.982  19.700  0.00  0.00    +0.000 A 
BRANCH  10  20
ATOM     15  C   UNL     1       5.711   4.198  14.358  0.00  0.00    +0.000 C 
ATOM     16  C   UNL     1       6.027   4.549  15.780  0.00  0.00    +0.000 A 
ATOM     17  C   UNL     1       7.086   5.390  16.120  0.00  0.00    +0.000 A 
ATOM     18  C   UNL     1       7.341   5.693  17.460  0.00  0.00    +0.000 A 
ATOM     19  C   UNL     1       6.537   5.157  18.473  0.00  0.00    +0.000 A 
ATOM     20  C   UNL     1       5.470   4.313  18.154  0.00  0.00    +0.000 A 
ATOM     21  C   UNL     1       5.237   4.016  16.803  0.00  0.00    +0.000 A 
ENDBRANCH  10  20
ENDBRANCH   6  14
ENDBRANCH   1   8
BRANCH   4  22
ATOM     22  C   UNL     1       0.612  10.507  20.305  0.00  0.00    +0.000 C 
BRANCH  22  23
ATOM     23  C   UNL     1      -0.793  10.803  19.802  0.00  0.00    +0.000 C 
BRANCH  23  24
ATOM     24  O   UNL     1      -1.146  12.181  20.003  0.00  0.00    +0.000 OA
BRANCH  24  25
ATOM     25  C   UNL     1      -2.018  12.297  21.072  0.00  0.00    +0.000 A 
ATOM     26  C   UNL     1      -1.547  12.101  22.355  0.00  0.00    +0.000 A 
ATOM     27  N   UNL     1      -2.350  12.199  23.446  0.00  0.00    +0.000 NA
ATOM     28  C   UNL     1      -3.646  12.507  23.211  0.00  0.00    +0.000 A 
ATOM     29  C   UNL     1      -4.549  12.634  24.261  0.00  0.00    +0.000 A 
ATOM     30  C   UNL     1      -5.892  12.953  24.037  0.00  0.00    +0.000 A 
ATOM     31  C   UNL     1      -6.343  13.156  22.739  0.00  0.00    +0.000 A 
ATOM     32  C   UNL     1      -5.452  13.031  21.677  0.00  0.00    +0.000 A 
ATOM     33  C   UNL     1      -4.120  12.712  21.893  0.00  0.00    +0.000 A 
ATOM     34  N   UNL     1      -3.309  12.602  20.833  0.00  0.00    +0.000 NA
ENDBRANCH  24  25
ENDBRANCH  23  24
ENDBRANCH  22  23
ENDBRANCH   4  22
TORSDOF 7
ENDMDL
