MODEL 1
REMARK VINA RESULT:      -6.7      0.000      0.000
REMARK  Name = 
REMARK  7 active torsions:
REMARK  status: ('A' for Active; 'I' for Inactive)
REMARK    1  A    between atoms: C_1  and  N_2
REMARK    2  A    between atoms: N_2  and  C_3
REMARK    3  A    between atoms: N_2  and  C_4
REMARK    4  A    between atoms: C_4  and  C_5
REMARK    5  A    between atoms: C_8  and  C_9
REMARK    6  A    between atoms: C_9  and  N_10
REMARK    7  A    between atoms: C_14  and  C_15
REMARK                            x       y       z     vdW  Elec       q    Type
REMARK                         _______ _______ _______ _____ _____    ______ ____
ROOT
ATOM      1  N   UNL     1       2.249   4.918  18.857  0.00  0.00    +0.000 NA
ATOM      2  C   UNL     1       2.149   3.715  19.691  0.00  0.00    +0.000 C 
ATOM      3  C   UNL     1       3.508   3.079  20.041  0.00  0.00    +0.000 C 
ATOM      4  O   UNL     1       4.580   3.147  19.086  0.00  0.00    +0.000 OA
ATOM      5  C   UNL     1       4.453   3.987  17.926  0.00  0.00    +0.000 C 
ATOM      6  C   UNL     1       2.999   4.472  17.658  0.00  0.00    +0.000 C 
ENDROOT
BRANCH   5   7
ATOM      7  C   UNL     1       5.459   5.133  17.870  0.00  0.00    +0.000 A 
ATOM      8  C   UNL     1       6.517   5.201  18.794  0.00  0.00    +0.000 A 
ATOM      9  C   UNL     1       7.525   6.150  18.651  0.00  0.00    +0.000 A 
ATOM     10  C   UNL     1       7.430   7.048  17.613  0.00  0.00    +0.000 A 
ATOM     11  N   UNL     1       6.396   7.079  16.748  0.00  0.00    +0.000 NA
ATOM     12  C   UNL     1       5.432   6.136  16.899  0.00  0.00    +0.000 A 
ENDBRANCH   5   7
BRANCH   1  13
ATOM     13  C   UNL     1       2.957   6.022  19.546  0.00  0.00    +0.000 C 
BRANCH  13  17
ATOM     14  C   UNL     1       1.034   9.287  20.051  0.00  0.00    +0.000 A 
ATOM     15  C   UNL     1       1.351   9.513  18.730  0.00  0.00    +0.000 A 
ATOM     16  S   UNL     1       2.263   8.253  18.039  0.00  0.00    +0.000 S 
ATOM     17  C   UNL     1       2.264   7.357  19.508  0.00  0.00    +0.000 A 
ATOM     18  C   UNL     1       1.552   8.011  20.485  0.00  0.00    +0.000 A 
BRANCH  14  19
ATOM     19  C   UNL     1       0.281  10.228  20.942  0.00  0.00    +0.000 C 
BRANCH  19  21
ATOM     20  C   UNL     1      -1.400  11.737  20.053  0.00  0.00    +0.000 C 
ATOM     21  N   UNL     1       0.032  11.488  20.226  0.00  0.00    +0.000 NA
ATOM     22  C   UNL     1       0.672  12.602  20.918  0.00  0.00    +0.000 C 
ENDBRANCH  19  21
ENDBRANCH  14  19
ENDBRANCH  13  17
ENDBRANCH   1  13
TORSDOF 5
ENDMDL
MODEL 2
REMARK VINA RESULT:      -6.7      1.634      3.830
REMARK  Name = 
REMARK  7 active torsions:
REMARK  status: ('A' for Active; 'I' for Inactive)
REMARK    1  A    between atoms: C_1  and  N_2
REMARK    2  A    between atoms: N_2  and  C_3
REMARK    3  A    between atoms: N_2  and  C_4
REMARK    4  A    between atoms: C_4  and  C_5
REMARK    5  A    between atoms: C_8  and  C_9
REMARK    6  A    between atoms: C_9  and  N_10
REMARK    7  A    between atoms: C_14  and  C_15
REMARK                            x       y       z     vdW  Elec       q    Type
REMARK                         _______ _______ _______ _____ _____    ______ ____
ROOT
ATOM      1  N   UNL     1       4.645   6.443  17.989  0.00  0.00    +0.000 NA
ATOM      2  C   UNL     1       5.391   6.227  16.745  0.00  0.00    +0.000 C 
ATOM      3  C   UNL     1       5.171   4.841  16.111  0.00  0.00    +0.000 C 
ATOM      4  O   UNL     1       4.951   3.707  16.968  0.00  0.00    +0.000 OA
ATOM      5  C   UNL     1       4.717   3.905  18.372  0.00  0.00    +0.000 C 
ATOM      6  C   UNL     1       5.078   5.334  18.874  0.00  0.00    +0.000 C 
ENDROOT
BRANCH   5   7
ATOM      7  C   UNL     1       3.336   3.463  18.845  0.00  0.00    +0.000 A 
ATOM      8  C   UNL     1       2.946   3.644  20.184  0.00  0.00    +0.000 A 
ATOM      9  C   UNL     1       1.638   3.392  20.584  0.00  0.00    +0.000 A 
ATOM     10  C   UNL     1       0.752   2.912  19.646  0.00  0.00    +0.000 A 
ATOM     11  N   UNL     1       1.094   2.644  18.370  0.00  0.00    +0.000 NA
ATOM     12  C   UNL     1       2.371   2.910  17.999  0.00  0.00    +0.000 A 
ENDBRANCH   5   7
BRANCH   1  13
ATOM     13  C   UNL     1       3.178   6.411  17.777  0.00  0.00    +0.000 C 
BRANCH  13  17
ATOM     14  C   UNL     1       1.226   9.462  18.997  0.00  0.00    +0.000 A 
ATOM     15  C   UNL     1       1.242   8.810  20.211  0.00  0.00    +0.000 A 
ATOM     16  S   UNL     1       2.049   7.313  20.152  0.00  0.00    +0.000 S 
ATOM     17  C   UNL     1       2.401   7.493  18.477  0.00  0.00    +0.000 A 
ATOM     18  C   UNL     1       1.930   8.693  18.000  0.00  0.00    +0.000 A 
BRANCH  14  19
ATOM     19  C   UNL     1       0.556  10.774  18.719  0.00  0.00    +0.000 C 
BRANCH  19  21
ATOM     20  C   UNL     1      -1.219  11.873  19.956  0.00  0.00    +0.000 C 
ATOM     21  N   UNL     1      -0.849  10.709  19.151  0.00  0.00    +0.000 NA
ATOM     22  C   UNL     1      -1.731  10.576  17.996  0.00  0.00    +0.000 C 
ENDBRANCH  19  21
ENDBRANCH  14  19
ENDBRANCH  13  17
ENDBRANCH   1  13
TORSDOF 5
ENDMDL
MODEL 3
REMARK VINA RESULT:      -6.7      1.182      1.585
REMARK  Name = 
REMARK  7 active torsions:
REMARK  status: ('A' for Active; 'I' for Inactive)
REMARK    1  A    between atoms: C_1  and  N_2
REMARK    2  A    between atoms: N_2  and  C_3
REMARK    3  A    between atoms: N_2  and  C_4
REMARK    4  A    between atoms: C_4  and  C_5
REMARK    5  A    between atoms: C_8  and  C_9
REMARK    6  A    between atoms: C_9  and  N_10
REMARK    7  A    between atoms: C_14  and  C_15
REMARK                            x       y       z     vdW  Elec       q    Type
REMARK                         _______ _______ _______ _____ _____    ______ ____
ROOT
ATOM      1  N   UNL     1       2.249   5.207  18.655  0.00  0.00    +0.000 NA
ATOM      2  C   UNL     1       2.045   4.081  19.573  0.00  0.00    +0.000 C 
ATOM      3  C   UNL     1       3.350   3.436  20.076  0.00  0.00    +0.000 C 
ATOM      4  O   UNL     1       4.492   3.393  19.204  0.00  0.00    +0.000 OA
ATOM      5  C   UNL     1       4.482   4.138  17.974  0.00  0.00    +0.000 C 
ATOM      6  C   UNL     1       3.070   4.642  17.557  0.00  0.00    +0.000 C 
ENDROOT
BRANCH   5   7
ATOM      7  C   UNL     1       5.530   5.245  17.904  0.00  0.00    +0.000 A 
ATOM      8  C   UNL     1       6.570   5.305  18.848  0.00  0.00    +0.000 A 
ATOM      9  C   UNL     1       7.615   6.211  18.697  0.00  0.00    +0.000 A 
ATOM     10  C   UNL     1       7.574   7.079  17.629  0.00  0.00    +0.000 A 
ATOM     11  N   UNL     1       6.560   7.118  16.742  0.00  0.00    +0.000 NA
ATOM     12  C   UNL     1       5.559   6.216  16.901  0.00  0.00    +0.000 A 
ENDBRANCH   5   7
BRANCH   1  13
ATOM     13  C   UNL     1       2.944   6.343  19.306  0.00  0.00    +0.000 C 
BRANCH  13  17
ATOM     14  C   UNL     1       0.997   9.631  19.205  0.00  0.00    +0.000 A 
ATOM     15  C   UNL     1       0.703   9.332  20.518  0.00  0.00    +0.000 A 
ATOM     16  S   UNL     1       1.394   7.867  21.039  0.00  0.00    +0.000 S 
ATOM     17  C   UNL     1       2.113   7.582  19.501  0.00  0.00    +0.000 A 
ATOM     18  C   UNL     1       1.844   8.612  18.632  0.00  0.00    +0.000 A 
BRANCH  14  19
ATOM     19  C   UNL     1       0.500  10.825  18.448  0.00  0.00    +0.000 C 
BRANCH  19  21
ATOM     20  C   UNL     1      -1.426  12.297  18.571  0.00  0.00    +0.000 C 
ATOM     21  N   UNL     1      -0.964  10.909  18.571  0.00  0.00    +0.000 NA
ATOM     22  C   UNL     1      -1.609  10.148  17.507  0.00  0.00    +0.000 C 
ENDBRANCH  19  21
ENDBRANCH  14  19
ENDBRANCH  13  17
ENDBRANCH   1  13
TORSDOF 5
ENDMDL
MODEL 4
REMARK VINA RESULT:      -6.6      1.674      3.855
REMARK  Name = 
REMARK  7 active torsions:
REMARK  status: ('A' for Active; 'I' for Inactive)
REMARK    1  A    between atoms: C_1  and  N_2
REMARK    2  A    between atoms: N_2  and  C_3
REMARK    3  A    between atoms: N_2  and  C_4
REMARK    4  A    between atoms: C_4  and  C_5
REMARK    5  A    between atoms: C_8  and  C_9
REMARK    6  A    between atoms: C_9  and  N_10
REMARK    7  A    between atoms: C_14  and  C_15
REMARK                            x       y       z     vdW  Elec       q    Type
REMARK                         _______ _______ _______ _____ _____    ______ ____
ROOT
ATOM      1  N   UNL     1       4.612   6.453  18.012  0.00  0.00    +0.000 NA
ATOM      2  C   UNL     1       5.361   6.251  16.768  0.00  0.00    +0.000 C 
ATOM      3  C   UNL     1       5.136   4.874  16.115  0.00  0.00    +0.000 C 
ATOM      4  O   UNL     1       4.906   3.730  16.955  0.00  0.00    +0.000 OA
ATOM      5  C   UNL     1       4.668   3.911  18.362  0.00  0.00    +0.000 C 
ATOM      6  C   UNL     1       5.035   5.330  18.883  0.00  0.00    +0.000 C 
ENDROOT
BRANCH   5   7
ATOM      7  C   UNL     1       3.282   3.470  18.823  0.00  0.00    +0.000 A 
ATOM      8  C   UNL     1       2.879   3.661  20.157  0.00  0.00    +0.000 A 
ATOM      9  C   UNL     1       1.566   3.410  20.545  0.00  0.00    +0.000 A 
ATOM     10  C   UNL     1       0.691   2.922  19.601  0.00  0.00    +0.000 A 
ATOM     11  N   UNL     1       1.047   2.644  18.330  0.00  0.00    +0.000 NA
ATOM     12  C   UNL     1       2.328   2.910  17.972  0.00  0.00    +0.000 A 
ENDBRANCH   5   7
BRANCH   1  13
ATOM     13  C   UNL     1       3.146   6.433  17.794  0.00  0.00    +0.000 C 
BRANCH  13  17
ATOM     14  C   UNL     1       1.246   9.550  18.926  0.00  0.00    +0.000 A 
ATOM     15  C   UNL     1       1.201   8.907  20.144  0.00  0.00    +0.000 A 
ATOM     16  S   UNL     1       1.964   7.386  20.122  0.00  0.00    +0.000 S 
ATOM     17  C   UNL     1       2.378   7.543  18.460  0.00  0.00    +0.000 A 
ATOM     18  C   UNL     1       1.960   8.753  17.958  0.00  0.00    +0.000 A 
BRANCH  14  19
ATOM     19  C   UNL     1       0.626  10.879  18.617  0.00  0.00    +0.000 C 
BRANCH  19  21
ATOM     20  C   UNL     1       2.400  12.501  18.272  0.00  0.00    +0.000 C 
ATOM     21  N   UNL     1       1.433  11.950  19.222  0.00  0.00    +0.000 NA
ATOM     22  C   UNL     1       0.569  13.001  19.751  0.00  0.00    +0.000 C 
ENDBRANCH  19  21
ENDBRANCH  14  19
ENDBRANCH  13  17
ENDBRANCH   1  13
TORSDOF 5
ENDMDL
MODEL 5
REMARK VINA RESULT:      -6.5      1.702      3.977
REMARK  Name = 
REMARK  7 active torsions:
REMARK  status: ('A' for Active; 'I' for Inactive)
REMARK    1  A    between atoms: C_1  and  N_2
REMARK    2  A    between atoms: N_2  and  C_3
REMARK    3  A    between atoms: N_2  and  C_4
REMARK    4  A    between atoms: C_4  and  C_5
REMARK    5  A    between atoms: C_8  and  C_9
REMARK    6  A    between atoms: C_9  and  N_10
REMARK    7  A    between atoms: C_14  and  C_15
REMARK                            x       y       z     vdW  Elec       q    Type
REMARK                         _______ _______ _______ _____ _____    ______ ____
ROOT
ATOM      1  N   UNL     1       4.611   6.471  17.917  0.00  0.00    +0.000 NA
ATOM      2  C   UNL     1       5.332   6.184  16.672  0.00  0.00    +0.000 C 
ATOM      3  C   UNL     1       5.098   4.765  16.122  0.00  0.00    +0.000 C 
ATOM      4  O   UNL     1       4.893   3.681  17.044  0.00  0.00    +0.000 OA
ATOM      5  C   UNL     1       4.686   3.959  18.440  0.00  0.00    +0.000 C 
ATOM      6  C   UNL     1       5.058   5.412  18.854  0.00  0.00    +0.000 C 
ENDROOT
BRANCH   5   7
ATOM      7  C   UNL     1       3.313   3.548  18.963  0.00  0.00    +0.000 A 
ATOM      8  C   UNL     1       2.388   2.909  18.118  0.00  0.00    +0.000 A 
ATOM      9  C   UNL     1       1.201   2.390  18.627  0.00  0.00    +0.000 A 
ATOM     10  C   UNL     1       0.937   2.564  19.967  0.00  0.00    +0.000 A 
ATOM     11  N   UNL     1       1.750   3.240  20.803  0.00  0.00    +0.000 NA
ATOM     12  C   UNL     1       2.907   3.725  20.288  0.00  0.00    +0.000 A 
ENDBRANCH   5   7
BRANCH   1  13
ATOM     13  C   UNL     1       3.140   6.431  17.734  0.00  0.00    +0.000 C 
BRANCH  13  17
ATOM     14  C   UNL     1       1.218   9.512  18.929  0.00  0.00    +0.000 A 
ATOM     15  C   UNL     1       1.228   8.870  20.149  0.00  0.00    +0.000 A 
ATOM     16  S   UNL     1       2.020   7.364  20.101  0.00  0.00    +0.000 S 
ATOM     17  C   UNL     1       2.374   7.527  18.425  0.00  0.00    +0.000 A 
ATOM     18  C   UNL     1       1.914   8.727  17.938  0.00  0.00    +0.000 A 
BRANCH  14  19
ATOM     19  C   UNL     1       0.562  10.828  18.641  0.00  0.00    +0.000 C 
BRANCH  19  21
ATOM     20  C   UNL     1      -1.492  11.984  19.219  0.00  0.00    +0.000 C 
ATOM     21  N   UNL     1      -0.891  10.706  18.838  0.00  0.00    +0.000 NA
ATOM     22  C   UNL     1      -1.525  10.172  17.638  0.00  0.00    +0.000 C 
ENDBRANCH  19  21
ENDBRANCH  14  19
ENDBRANCH  13  17
ENDBRANCH   1  13
TORSDOF 5
ENDMDL
MODEL 6
REMARK VINA RESULT:      -6.5      1.372      1.737
REMARK  Name = 
REMARK  7 active torsions:
REMARK  status: ('A' for Active; 'I' for Inactive)
REMARK    1  A    between atoms: C_1  and  N_2
REMARK    2  A    between atoms: N_2  and  C_3
REMARK    3  A    between atoms: N_2  and  C_4
REMARK    4  A    between atoms: C_4  and  C_5
REMARK    5  A    between atoms: C_8  and  C_9
REMARK    6  A    between atoms: C_9  and  N_10
REMARK    7  A    between atoms: C_14  and  C_15
REMARK                            x       y       z     vdW  Elec       q    Type
REMARK                         _______ _______ _______ _____ _____    ______ ____
ROOT
ATOM      1  N   UNL     1       1.667   4.669  19.596  0.00  0.00    +0.000 NA
ATOM      2  C   UNL     1       1.577   3.727  20.717  0.00  0.00    +0.000 C 
ATOM      3  C   UNL     1       2.850   2.888  20.938  0.00  0.00    +0.000 C 
ATOM      4  O   UNL     1       3.642   2.506  19.801  0.00  0.00    +0.000 OA
ATOM      5  C   UNL     1       3.373   3.087  18.513  0.00  0.00    +0.000 C 
ATOM      6  C   UNL     1       2.003   3.820  18.428  0.00  0.00    +0.000 C 
ENDROOT
BRANCH   5   7
ATOM      7  C   UNL     1       4.513   3.935  17.958  0.00  0.00    +0.000 A 
ATOM      8  C   UNL     1       4.493   4.375  16.623  0.00  0.00    +0.000 A 
ATOM      9  C   UNL     1       5.445   5.277  16.157  0.00  0.00    +0.000 A 
ATOM     10  C   UNL     1       6.432   5.685  17.025  0.00  0.00    +0.000 A 
ATOM     11  N   UNL     1       6.545   5.233  18.290  0.00  0.00    +0.000 NA
ATOM     12  C   UNL     1       5.599   4.364  18.725  0.00  0.00    +0.000 A 
ENDBRANCH   5   7
BRANCH   1  13
ATOM     13  C   UNL     1       2.705   5.705  19.816  0.00  0.00    +0.000 C 
BRANCH  13  17
ATOM     14  C   UNL     1       1.460   9.267  19.205  0.00  0.00    +0.000 A 
ATOM     15  C   UNL     1       2.111   9.136  17.998  0.00  0.00    +0.000 A 
ATOM     16  S   UNL     1       2.866   7.622  17.810  0.00  0.00    +0.000 S 
ATOM     17  C   UNL     1       2.340   7.092  19.360  0.00  0.00    +0.000 A 
ATOM     18  C   UNL     1       1.580   8.055  19.980  0.00  0.00    +0.000 A 
BRANCH  14  19
ATOM     19  C   UNL     1       0.743  10.493  19.682  0.00  0.00    +0.000 C 
BRANCH  19  21
ATOM     20  C   UNL     1      -1.436  10.384  18.617  0.00  0.00    +0.000 C 
ATOM     21  N   UNL     1      -0.114  11.011  18.604  0.00  0.00    +0.000 NA
ATOM     22  C   UNL     1      -0.229  12.463  18.697  0.00  0.00    +0.000 C 
ENDBRANCH  19  21
ENDBRANCH  14  19
ENDBRANCH  13  17
ENDBRANCH   1  13
TORSDOF 5
ENDMDL
MODEL 7
REMARK VINA RESULT:      -6.4      1.462      1.782
REMARK  Name = 
REMARK  7 active torsions:
REMARK  status: ('A' for Active; 'I' for Inactive)
REMARK    1  A    between atoms: C_1  and  N_2
REMARK    2  A    between atoms: N_2  and  C_3
REMARK    3  A    between atoms: N_2  and  C_4
REMARK    4  A    between atoms: C_4  and  C_5
REMARK    5  A    between atoms: C_8  and  C_9
REMARK    6  A    between atoms: C_9  and  N_10
REMARK    7  A    between atoms: C_14  and  C_15
REMARK                            x       y       z     vdW  Elec       q    Type
REMARK                         _______ _______ _______ _____ _____    ______ ____
ROOT
ATOM      1  N   UNL     1       1.563   4.591  19.838  0.00  0.00    +0.000 NA
ATOM      2  C   UNL     1       1.498   3.687  20.991  0.00  0.00    +0.000 C 
ATOM      3  C   UNL     1       2.744   2.798  21.165  0.00  0.00    +0.000 C 
ATOM      4  O   UNL     1       3.451   2.348  19.997  0.00  0.00    +0.000 OA
ATOM      5  C   UNL     1       3.133   2.903  18.709  0.00  0.00    +0.000 C 
ATOM      6  C   UNL     1       1.794   3.695  18.680  0.00  0.00    +0.000 C 
ENDROOT
BRANCH   5   7
ATOM      7  C   UNL     1       4.274   3.682  18.064  0.00  0.00    +0.000 A 
ATOM      8  C   UNL     1       5.370   4.113  18.832  0.00  0.00    +0.000 A 
ATOM      9  C   UNL     1       6.485   4.682  18.224  0.00  0.00    +0.000 A 
ATOM     10  C   UNL     1       6.463   4.857  16.859  0.00  0.00    +0.000 A 
ATOM     11  N   UNL     1       5.406   4.536  16.085  0.00  0.00    +0.000 NA
ATOM     12  C   UNL     1       4.336   3.971  16.698  0.00  0.00    +0.000 A 
ENDBRANCH   5   7
BRANCH   1  13
ATOM     13  C   UNL     1       2.656   5.585  19.965  0.00  0.00    +0.000 C 
BRANCH  13  17
ATOM     14  C   UNL     1       1.601   9.142  19.044  0.00  0.00    +0.000 A 
ATOM     15  C   UNL     1       2.237   8.870  17.852  0.00  0.00    +0.000 A 
ATOM     16  S   UNL     1       2.908   7.307  17.797  0.00  0.00    +0.000 S 
ATOM     17  C   UNL     1       2.364   6.944  19.389  0.00  0.00    +0.000 A 
ATOM     18  C   UNL     1       1.660   7.998  19.922  0.00  0.00    +0.000 A 
BRANCH  14  19
ATOM     19  C   UNL     1       0.954  10.442  19.412  0.00  0.00    +0.000 C 
BRANCH  19  21
ATOM     20  C   UNL     1      -0.658  10.824  21.186  0.00  0.00    +0.000 C 
ATOM     21  N   UNL     1      -0.415  10.192  19.889  0.00  0.00    +0.000 NA
ATOM     22  C   UNL     1      -1.389  10.644  18.901  0.00  0.00    +0.000 C 
ENDBRANCH  19  21
ENDBRANCH  14  19
ENDBRANCH  13  17
ENDBRANCH   1  13
TORSDOF 5
ENDMDL
MODEL 8
REMARK VINA RESULT:      -6.4      1.640      3.767
REMARK  Name = 
REMARK  7 active torsions:
REMARK  status: ('A' for Active; 'I' for Inactive)
REMARK    1  A    between atoms: C_1  and  N_2
REMARK    2  A    between atoms: N_2  and  C_3
REMARK    3  A    between atoms: N_2  and  C_4
REMARK    4  A    between atoms: C_4  and  C_5
REMARK    5  A    between atoms: C_8  and  C_9
REMARK    6  A    between atoms: C_9  and  N_10
REMARK    7  A    between atoms: C_14  and  C_15
REMARK                            x       y       z     vdW  Elec       q    Type
REMARK                         _______ _______ _______ _____ _____    ______ ____
ROOT
ATOM      1  N   UNL     1       4.597   6.222  17.998  0.00  0.00    +0.000 NA
ATOM      2  C   UNL     1       5.253   5.875  16.733  0.00  0.00    +0.000 C 
ATOM      3  C   UNL     1       4.917   4.464  16.216  0.00  0.00    +0.000 C 
ATOM      4  O   UNL     1       4.685   3.408  17.164  0.00  0.00    +0.000 OA
ATOM      5  C   UNL     1       4.547   3.718  18.562  0.00  0.00    +0.000 C 
ATOM      6  C   UNL     1       5.017   5.154  18.936  0.00  0.00    +0.000 C 
ENDROOT
BRANCH   5   7
ATOM      7  C   UNL     1       3.173   3.396  19.142  0.00  0.00    +0.000 A 
ATOM      8  C   UNL     1       2.821   3.831  20.432  0.00  0.00    +0.000 A 
ATOM      9  C   UNL     1       1.521   3.680  20.903  0.00  0.00    +0.000 A 
ATOM     10  C   UNL     1       0.606   3.047  20.093  0.00  0.00    +0.000 A 
ATOM     11  N   UNL     1       0.910   2.539  18.882  0.00  0.00    +0.000 NA
ATOM     12  C   UNL     1       2.180   2.710  18.438  0.00  0.00    +0.000 A 
ENDBRANCH   5   7
BRANCH   1  13
ATOM     13  C   UNL     1       3.120   6.266  17.871  0.00  0.00    +0.000 C 
BRANCH  13  17
ATOM     14  C   UNL     1       1.480   8.665  20.353  0.00  0.00    +0.000 A 
ATOM     15  C   UNL     1       1.230   9.428  19.233  0.00  0.00    +0.000 A 
ATOM     16  S   UNL     1       1.817   8.720  17.801  0.00  0.00    +0.000 S 
ATOM     17  C   UNL     1       2.436   7.357  18.649  0.00  0.00    +0.000 A 
ATOM     18  C   UNL     1       2.162   7.445  19.993  0.00  0.00    +0.000 A 
BRANCH  14  19
ATOM     19  C   UNL     1       1.127   9.039  21.761  0.00  0.00    +0.000 C 
BRANCH  19  21
ATOM     20  C   UNL     1      -0.775   9.880  23.012  0.00  0.00    +0.000 C 
ATOM     21  N   UNL     1      -0.033   9.943  21.753  0.00  0.00    +0.000 NA
ATOM     22  C   UNL     1       0.390  11.311  21.469  0.00  0.00    +0.000 C 
ENDBRANCH  19  21
ENDBRANCH  14  19
ENDBRANCH  13  17
ENDBRANCH   1  13
TORSDOF 5
ENDMDL
MODEL 9
REMARK VINA RESULT:      -6.4      0.864      1.269
REMARK  Name = 
REMARK  7 active torsions:
REMARK  status: ('A' for Active; 'I' for Inactive)
REMARK    1  A    between atoms: C_1  and  N_2
REMARK    2  A    between atoms: N_2  and  C_3
REMARK    3  A    between atoms: N_2  and  C_4
REMARK    4  A    between atoms: C_4  and  C_5
REMARK    5  A    between atoms: C_8  and  C_9
REMARK    6  A    between atoms: C_9  and  N_10
REMARK    7  A    between atoms: C_14  and  C_15
REMARK                            x       y       z     vdW  Elec       q    Type
REMARK                         _______ _______ _______ _____ _____    ______ ____
ROOT
ATOM      1  N   UNL     1       1.940   4.750  18.874  0.00  0.00    +0.000 NA
ATOM      2  C   UNL     1       1.787   3.799  19.980  0.00  0.00    +0.000 C 
ATOM      3  C   UNL     1       3.076   3.036  20.336  0.00  0.00    +0.000 C 
ATOM      4  O   UNL     1       4.007   2.706  19.291  0.00  0.00    +0.000 OA
ATOM      5  C   UNL     1       3.843   3.277  17.981  0.00  0.00    +0.000 C 
ATOM      6  C   UNL     1       2.449   3.929  17.750  0.00  0.00    +0.000 C 
ENDROOT
BRANCH   5   7
ATOM      7  C   UNL     1       4.983   4.194  17.550  0.00  0.00    +0.000 A 
ATOM      8  C   UNL     1       4.966   4.811  16.287  0.00  0.00    +0.000 A 
ATOM      9  C   UNL     1       5.918   5.769  15.952  0.00  0.00    +0.000 A 
ATOM     10  C   UNL     1       6.903   6.056  16.869  0.00  0.00    +0.000 A 
ATOM     11  N   UNL     1       7.013   5.435  18.061  0.00  0.00    +0.000 NA
ATOM     12  C   UNL     1       6.067   4.515  18.371  0.00  0.00    +0.000 A 
ENDBRANCH   5   7
BRANCH   1  13
ATOM     13  C   UNL     1       2.886   5.844  19.202  0.00  0.00    +0.000 C 
BRANCH  13  17
ATOM     14  C   UNL     1       1.204   9.182  20.005  0.00  0.00    +0.000 A 
ATOM     15  C   UNL     1       1.474   9.473  18.686  0.00  0.00    +0.000 A 
ATOM     16  S   UNL     1       2.269   8.207  17.873  0.00  0.00    +0.000 S 
ATOM     17  C   UNL     1       2.280   7.219  19.282  0.00  0.00    +0.000 A 
ATOM     18  C   UNL     1       1.657   7.851  20.333  0.00  0.00    +0.000 A 
BRANCH  14  19
ATOM     19  C   UNL     1       0.556  10.108  20.989  0.00  0.00    +0.000 C 
BRANCH  19  21
ATOM     20  C   UNL     1      -1.243  11.653  20.473  0.00  0.00    +0.000 C 
ATOM     21  N   UNL     1       0.181  11.359  20.313  0.00  0.00    +0.000 NA
ATOM     22  C   UNL     1       0.997  12.466  20.802  0.00  0.00    +0.000 C 
ENDBRANCH  19  21
ENDBRANCH  14  19
ENDBRANCH  13  17
ENDBRANCH   1  13
TORSDOF 5
ENDMDL
