MODEL 1
REMARK VINA RESULT:      -5.5      0.000      0.000
REMARK  Name = 
REMARK  15 active torsions:
REMARK  status: ('A' for Active; 'I' for Inactive)
REMARK    1  A    between atoms: C_1  and  C_2
REMARK    2  A    between atoms: C_2  and  C_3
REMARK    3  A    between atoms: C_3  and  O_4
REMARK    4  A    between atoms: O_4  and  C_5
REMARK    5  A    between atoms: C_5  and  C_7
REMARK    6  A    between atoms: C_8  and  C_9
REMARK    7  A    between atoms: C_9  and  C_10
REMARK    8  A    between atoms: C_11  and  C_12
REMARK    9  A    between atoms: C_12  and  S_14
REMARK   10  A    between atoms: S_14  and  C_15
REMARK   11  A    between atoms: C_15  and  C_16
REMARK   12  A    between atoms: C_17  and  C_18
REMARK   13  A    between atoms: C_18  and  C_19
REMARK   14  A    between atoms: N_20  and  C_21
REMARK   15  A    between atoms: C_22  and  C_23
REMARK                            x       y       z     vdW  Elec       q    Type
REMARK                         _______ _______ _______ _____ _____    ______ ____
ROOT
ATOM      1  C   UNL     1      -2.961  12.265  19.719  0.00  0.00    +0.000 A 
ATOM      2  C   UNL     1      -3.313  12.896  20.953  0.00  0.00    +0.000 A 
ATOM      3  C   UNL     1      -4.687  13.080  21.188  0.00  0.00    +0.000 A 
ATOM      4  C   UNL     1      -5.672  12.431  20.369  0.00  0.00    +0.000 A 
ATOM      5  N   UNL     1      -5.255  11.618  19.324  0.00  0.00    +0.000 N 
ATOM      6  C   UNL     1      -6.230  10.649  18.726  0.00  0.00    +0.000 C 
ATOM      7  C   UNL     1      -3.940  11.614  18.887  0.00  0.00    +0.000 A 
ENDROOT
BRANCH   7   8
ATOM      8  C   UNL     1      -3.664  10.985  17.544  0.00  0.00    +0.000 A 
ATOM      9  C   UNL     1      -4.074  11.588  16.330  0.00  0.00    +0.000 A 
ATOM     10  C   UNL     1      -3.783  11.025  15.075  0.00  0.00    +0.000 A 
ATOM     11  C   UNL     1      -2.970   9.903  14.984  0.00  0.00    +0.000 A 
ATOM     12  C   UNL     1      -2.549   9.285  16.149  0.00  0.00    +0.000 A 
ATOM     13  C   UNL     1      -2.961   9.775  17.396  0.00  0.00    +0.000 A 
ENDBRANCH   7   8
BRANCH   1  14
ATOM     14  C   UNL     1      -1.520  12.125  19.405  0.00  0.00    +0.000 C 
ATOM     15  O   UNL     1      -0.985  12.900  18.630  0.00  0.00    +0.000 OA
BRANCH  14  16
ATOM     16  O   UNL     1      -1.014  10.936  19.818  0.00  0.00    +0.000 OA
BRANCH  16  17
ATOM     17  C   UNL     1       0.348  11.025  20.295  0.00  0.00    +0.000 C 
BRANCH  17  19
ATOM     18  C   UNL     1       1.078   8.764  21.073  0.00  0.00    +0.000 C 
ATOM     19  C   UNL     1       0.555  10.127  21.501  0.00  0.00    +0.000 C 
ENDBRANCH  17  19
ENDBRANCH  16  17
ENDBRANCH  14  16
ENDBRANCH   1  14
BRANCH   2  20
ATOM     20  C   UNL     1      -2.175  13.348  21.859  0.00  0.00    +0.000 C 
ATOM     21  C   UNL     1      -1.706  12.570  23.086  0.00  0.00    +0.000 C 
ENDBRANCH   2  20
BRANCH   3  22
ATOM     22  C   UNL     1      -5.166  13.957  22.295  0.00  0.00    +0.000 C 
ATOM     23  O   UNL     1      -5.360  15.143  22.091  0.00  0.00    +0.000 OA
BRANCH  22  24
ATOM     24  S   UNL     1      -5.306  13.220  23.890  0.00  0.00    +0.000 S 
BRANCH  24  25
ATOM     25  C   UNL     1      -7.088  12.826  23.944  0.00  0.00    +0.000 C 
ATOM     26  C   UNL     1      -7.914  14.034  24.372  0.00  0.00    +0.000 C 
ENDBRANCH  24  25
ENDBRANCH  22  24
ENDBRANCH   3  22
BRANCH   4  27
ATOM     27  C   UNL     1      -7.165  12.742  20.495  0.00  0.00    +0.000 C 
ATOM     28  C   UNL     1      -7.745  13.888  19.667  0.00  0.00    +0.000 C 
ENDBRANCH   4  27
TORSDOF 10
ENDMDL
MODEL 2
REMARK VINA RESULT:      -5.4      2.226      4.790
REMARK  Name = 
REMARK  15 active torsions:
REMARK  status: ('A' for Active; 'I' for Inactive)
REMARK    1  A    between atoms: C_1  and  C_2
REMARK    2  A    between atoms: C_2  and  C_3
REMARK    3  A    between atoms: C_3  and  O_4
REMARK    4  A    between atoms: O_4  and  C_5
REMARK    5  A    between atoms: C_5  and  C_7
REMARK    6  A    between atoms: C_8  and  C_9
REMARK    7  A    between atoms: C_9  and  C_10
REMARK    8  A    between atoms: C_11  and  C_12
REMARK    9  A    between atoms: C_12  and  S_14
REMARK   10  A    between atoms: S_14  and  C_15
REMARK   11  A    between atoms: C_15  and  C_16
REMARK   12  A    between atoms: C_17  and  C_18
REMARK   13  A    between atoms: C_18  and  C_19
REMARK   14  A    between atoms: N_20  and  C_21
REMARK   15  A    between atoms: C_22  and  C_23
REMARK                            x       y       z     vdW  Elec       q    Type
REMARK                         _______ _______ _______ _____ _____    ______ ____
ROOT
ATOM      1  C   UNL     1      -5.376  11.798  19.421  0.00  0.00    +0.000 A 
ATOM      2  C   UNL     1      -5.675  12.412  20.677  0.00  0.00    +0.000 A 
ATOM      3  C   UNL     1      -4.575  12.720  21.498  0.00  0.00    +0.000 A 
ATOM      4  C   UNL     1      -3.233  12.669  20.987  0.00  0.00    +0.000 A 
ATOM      5  N   UNL     1      -3.025  12.300  19.665  0.00  0.00    +0.000 N 
ATOM      6  C   UNL     1      -1.707  12.615  19.024  0.00  0.00    +0.000 C 
ATOM      7  C   UNL     1      -4.034  11.737  18.900  0.00  0.00    +0.000 A 
ENDROOT
BRANCH   7   8
ATOM      8  C   UNL     1      -3.625  11.051  17.620  0.00  0.00    +0.000 A 
ATOM      9  C   UNL     1      -3.826  11.642  16.350  0.00  0.00    +0.000 A 
ATOM     10  C   UNL     1      -3.409  11.023  15.158  0.00  0.00    +0.000 A 
ATOM     11  C   UNL     1      -2.673   9.847  15.202  0.00  0.00    +0.000 A 
ATOM     12  C   UNL     1      -2.456   9.238  16.426  0.00  0.00    +0.000 A 
ATOM     13  C   UNL     1      -2.997   9.792  17.595  0.00  0.00    +0.000 A 
ENDBRANCH   7   8
BRANCH   1  14
ATOM     14  C   UNL     1      -6.516  11.391  18.566  0.00  0.00    +0.000 C 
ATOM     15  O   UNL     1      -7.044  10.305  18.729  0.00  0.00    +0.000 OA
BRANCH  14  16
ATOM     16  O   UNL     1      -6.658  12.192  17.480  0.00  0.00    +0.000 OA
BRANCH  16  17
ATOM     17  C   UNL     1      -7.301  13.453  17.775  0.00  0.00    +0.000 C 
BRANCH  17  19
ATOM     18  C   UNL     1      -7.076  15.762  16.842  0.00  0.00    +0.000 C 
ATOM     19  C   UNL     1      -7.402  14.309  16.527  0.00  0.00    +0.000 C 
ENDBRANCH  17  19
ENDBRANCH  16  17
ENDBRANCH  14  16
ENDBRANCH   1  14
BRANCH   2  20
ATOM     20  C   UNL     1      -7.143  12.626  21.022  0.00  0.00    +0.000 C 
ATOM     21  C   UNL     1      -7.913  11.771  22.025  0.00  0.00    +0.000 C 
ENDBRANCH   2  20
BRANCH   3  22
ATOM     22  C   UNL     1      -4.766  13.107  22.924  0.00  0.00    +0.000 C 
ATOM     23  O   UNL     1      -4.932  12.245  23.771  0.00  0.00    +0.000 OA
BRANCH  22  24
ATOM     24  S   UNL     1      -4.858  14.832  23.276  0.00  0.00    +0.000 S 
BRANCH  24  25
ATOM     25  C   UNL     1      -6.616  15.007  23.736  0.00  0.00    +0.000 C 
ATOM     26  C   UNL     1      -7.364  15.898  22.751  0.00  0.00    +0.000 C 
ENDBRANCH  24  25
ENDBRANCH  22  24
ENDBRANCH   3  22
BRANCH   4  27
ATOM     27  C   UNL     1      -2.013  12.835  21.895  0.00  0.00    +0.000 C 
ATOM     28  C   UNL     1      -1.486  11.610  22.642  0.00  0.00    +0.000 C 
ENDBRANCH   4  27
TORSDOF 10
ENDMDL
MODEL 3
REMARK VINA RESULT:      -5.4      2.301      4.960
REMARK  Name = 
REMARK  15 active torsions:
REMARK  status: ('A' for Active; 'I' for Inactive)
REMARK    1  A    between atoms: C_1  and  C_2
REMARK    2  A    between atoms: C_2  and  C_3
REMARK    3  A    between atoms: C_3  and  O_4
REMARK    4  A    between atoms: O_4  and  C_5
REMARK    5  A    between atoms: C_5  and  C_7
REMARK    6  A    between atoms: C_8  and  C_9
REMARK    7  A    between atoms: C_9  and  C_10
REMARK    8  A    between atoms: C_11  and  C_12
REMARK    9  A    between atoms: C_12  and  S_14
REMARK   10  A    between atoms: S_14  and  C_15
REMARK   11  A    between atoms: C_15  and  C_16
REMARK   12  A    between atoms: C_17  and  C_18
REMARK   13  A    between atoms: C_18  and  C_19
REMARK   14  A    between atoms: N_20  and  C_21
REMARK   15  A    between atoms: C_22  and  C_23
REMARK                            x       y       z     vdW  Elec       q    Type
REMARK                         _______ _______ _______ _____ _____    ______ ____
ROOT
ATOM      1  C   UNL     1      -5.290  11.857  19.453  0.00  0.00    +0.000 A 
ATOM      2  C   UNL     1      -5.621  12.457  20.708  0.00  0.00    +0.000 A 
ATOM      3  C   UNL     1      -4.540  12.762  21.556  0.00  0.00    +0.000 A 
ATOM      4  C   UNL     1      -3.188  12.723  21.075  0.00  0.00    +0.000 A 
ATOM      5  N   UNL     1      -2.948  12.369  19.754  0.00  0.00    +0.000 N 
ATOM      6  C   UNL     1      -1.618  12.696  19.145  0.00  0.00    +0.000 C 
ATOM      7  C   UNL     1      -3.937  11.808  18.961  0.00  0.00    +0.000 A 
ENDROOT
BRANCH   7   8
ATOM      8  C   UNL     1      -3.497  11.137  17.684  0.00  0.00    +0.000 A 
ATOM      9  C   UNL     1      -2.792   9.909  17.681  0.00  0.00    +0.000 A 
ATOM     10  C   UNL     1      -2.415   9.261  16.491  0.00  0.00    +0.000 A 
ATOM     11  C   UNL     1      -2.833   9.756  15.264  0.00  0.00    +0.000 A 
ATOM     12  C   UNL     1      -3.525  10.954  15.225  0.00  0.00    +0.000 A 
ATOM     13  C   UNL     1      -3.774  11.663  16.409  0.00  0.00    +0.000 A 
ENDBRANCH   7   8
BRANCH   1  14
ATOM     14  C   UNL     1      -6.409  11.452  18.569  0.00  0.00    +0.000 C 
ATOM     15  O   UNL     1      -6.927  10.357  18.702  0.00  0.00    +0.000 OA
BRANCH  14  16
ATOM     16  O   UNL     1      -6.540  12.271  17.495  0.00  0.00    +0.000 OA
BRANCH  16  17
ATOM     17  C   UNL     1      -7.467  13.360  17.713  0.00  0.00    +0.000 C 
BRANCH  17  19
ATOM     18  C   UNL     1      -6.825  15.776  17.758  0.00  0.00    +0.000 C 
ATOM     19  C   UNL     1      -7.086  14.565  16.874  0.00  0.00    +0.000 C 
ENDBRANCH  17  19
ENDBRANCH  16  17
ENDBRANCH  14  16
ENDBRANCH   1  14
BRANCH   2  20
ATOM     20  C   UNL     1      -7.097  12.659  21.023  0.00  0.00    +0.000 C 
ATOM     21  C   UNL     1      -7.916  11.714  21.896  0.00  0.00    +0.000 C 
ENDBRANCH   2  20
BRANCH   3  22
ATOM     22  C   UNL     1      -4.765  13.134  22.982  0.00  0.00    +0.000 C 
ATOM     23  O   UNL     1      -4.903  12.262  23.823  0.00  0.00    +0.000 OA
BRANCH  22  24
ATOM     24  S   UNL     1      -4.936  14.851  23.339  0.00  0.00    +0.000 S 
BRANCH  24  25
ATOM     25  C   UNL     1      -3.626  15.086  24.590  0.00  0.00    +0.000 C 
ATOM     26  C   UNL     1      -2.509  15.982  24.066  0.00  0.00    +0.000 C 
ENDBRANCH  24  25
ENDBRANCH  22  24
ENDBRANCH   3  22
BRANCH   4  27
ATOM     27  C   UNL     1      -1.988  12.886  22.011  0.00  0.00    +0.000 C 
ATOM     28  C   UNL     1      -1.477  11.658  22.764  0.00  0.00    +0.000 C 
ENDBRANCH   4  27
TORSDOF 10
ENDMDL
MODEL 4
REMARK VINA RESULT:      -5.4      2.150      3.432
REMARK  Name = 
REMARK  15 active torsions:
REMARK  status: ('A' for Active; 'I' for Inactive)
REMARK    1  A    between atoms: C_1  and  C_2
REMARK    2  A    between atoms: C_2  and  C_3
REMARK    3  A    between atoms: C_3  and  O_4
REMARK    4  A    between atoms: O_4  and  C_5
REMARK    5  A    between atoms: C_5  and  C_7
REMARK    6  A    between atoms: C_8  and  C_9
REMARK    7  A    between atoms: C_9  and  C_10
REMARK    8  A    between atoms: C_11  and  C_12
REMARK    9  A    between atoms: C_12  and  S_14
REMARK   10  A    between atoms: S_14  and  C_15
REMARK   11  A    between atoms: C_15  and  C_16
REMARK   12  A    between atoms: C_17  and  C_18
REMARK   13  A    between atoms: C_18  and  C_19
REMARK   14  A    between atoms: N_20  and  C_21
REMARK   15  A    between atoms: C_22  and  C_23
REMARK                            x       y       z     vdW  Elec       q    Type
REMARK                         _______ _______ _______ _____ _____    ______ ____
ROOT
ATOM      1  C   UNL     1      -2.174  12.868  21.703  0.00  0.00    +0.000 A 
ATOM      2  C   UNL     1      -3.474  12.896  22.298  0.00  0.00    +0.000 A 
ATOM      3  C   UNL     1      -4.565  12.832  21.414  0.00  0.00    +0.000 A 
ATOM      4  C   UNL     1      -4.379  12.486  20.032  0.00  0.00    +0.000 A 
ATOM      5  N   UNL     1      -3.098  12.221  19.567  0.00  0.00    +0.000 N 
ATOM      6  C   UNL     1      -2.935  11.495  18.266  0.00  0.00    +0.000 C 
ATOM      7  C   UNL     1      -1.974  12.526  20.318  0.00  0.00    +0.000 A 
ENDROOT
BRANCH   7   8
ATOM      8  C   UNL     1      -0.649  12.537  19.599  0.00  0.00    +0.000 A 
ATOM      9  C   UNL     1      -0.030  13.738  19.177  0.00  0.00    +0.000 A 
ATOM     10  C   UNL     1       1.225  13.755  18.542  0.00  0.00    +0.000 A 
ATOM     11  C   UNL     1       1.959  12.584  18.413  0.00  0.00    +0.000 A 
ATOM     12  C   UNL     1       1.387  11.388  18.814  0.00  0.00    +0.000 A 
ATOM     13  C   UNL     1       0.079  11.366  19.318  0.00  0.00    +0.000 A 
ENDBRANCH   7   8
BRANCH   1  14
ATOM     14  C   UNL     1      -1.004  13.011  22.601  0.00  0.00    +0.000 C 
ATOM     15  O   UNL     1      -0.637  14.119  22.955  0.00  0.00    +0.000 OA
BRANCH  14  16
ATOM     16  O   UNL     1      -0.284  11.865  22.698  0.00  0.00    +0.000 OA
BRANCH  16  17
ATOM     17  C   UNL     1      -1.072  10.726  23.113  0.00  0.00    +0.000 C 
BRANCH  17  19
ATOM     18  C   UNL     1       0.678   9.228  22.140  0.00  0.00    +0.000 C 
ATOM     19  C   UNL     1      -0.184   9.520  23.360  0.00  0.00    +0.000 C 
ENDBRANCH  17  19
ENDBRANCH  16  17
ENDBRANCH  14  16
ENDBRANCH   1  14
BRANCH   2  20
ATOM     20  C   UNL     1      -3.549  13.042  23.812  0.00  0.00    +0.000 C 
ATOM     21  C   UNL     1      -4.419  12.165  24.708  0.00  0.00    +0.000 C 
ENDBRANCH   2  20
BRANCH   3  22
ATOM     22  C   UNL     1      -5.950  13.122  21.881  0.00  0.00    +0.000 C 
ATOM     23  O   UNL     1      -6.702  12.204  22.163  0.00  0.00    +0.000 OA
BRANCH  22  24
ATOM     24  S   UNL     1      -6.454  14.811  21.881  0.00  0.00    +0.000 S 
BRANCH  24  25
ATOM     25  C   UNL     1      -6.624  15.131  23.670  0.00  0.00    +0.000 C 
ATOM     26  C   UNL     1      -5.602  16.155  24.153  0.00  0.00    +0.000 C 
ENDBRANCH  24  25
ENDBRANCH  22  24
ENDBRANCH   3  22
BRANCH   4  27
ATOM     27  C   UNL     1      -5.518  12.569  19.014  0.00  0.00    +0.000 C 
ATOM     28  C   UNL     1      -6.391  11.334  18.791  0.00  0.00    +0.000 C 
ENDBRANCH   4  27
TORSDOF 10
ENDMDL
MODEL 5
REMARK VINA RESULT:      -5.4      2.599      6.064
REMARK  Name = 
REMARK  15 active torsions:
REMARK  status: ('A' for Active; 'I' for Inactive)
REMARK    1  A    between atoms: C_1  and  C_2
REMARK    2  A    between atoms: C_2  and  C_3
REMARK    3  A    between atoms: C_3  and  O_4
REMARK    4  A    between atoms: O_4  and  C_5
REMARK    5  A    between atoms: C_5  and  C_7
REMARK    6  A    between atoms: C_8  and  C_9
REMARK    7  A    between atoms: C_9  and  C_10
REMARK    8  A    between atoms: C_11  and  C_12
REMARK    9  A    between atoms: C_12  and  S_14
REMARK   10  A    between atoms: S_14  and  C_15
REMARK   11  A    between atoms: C_15  and  C_16
REMARK   12  A    between atoms: C_17  and  C_18
REMARK   13  A    between atoms: C_18  and  C_19
REMARK   14  A    between atoms: N_20  and  C_21
REMARK   15  A    between atoms: C_22  and  C_23
REMARK                            x       y       z     vdW  Elec       q    Type
REMARK                         _______ _______ _______ _____ _____    ______ ____
ROOT
ATOM      1  C   UNL     1      -1.998  12.485  20.401  0.00  0.00    +0.000 A 
ATOM      2  C   UNL     1      -1.965  11.816  19.138  0.00  0.00    +0.000 A 
ATOM      3  C   UNL     1      -3.212  11.495  18.571  0.00  0.00    +0.000 A 
ATOM      4  C   UNL     1      -4.429  12.048  19.097  0.00  0.00    +0.000 A 
ATOM      5  N   UNL     1      -4.369  12.904  20.189  0.00  0.00    +0.000 N 
ATOM      6  C   UNL     1      -5.550  13.774  20.494  0.00  0.00    +0.000 C 
ATOM      7  C   UNL     1      -3.213  13.040  20.942  0.00  0.00    +0.000 A 
ENDROOT
BRANCH   7   8
ATOM      8  C   UNL     1      -3.346  13.700  22.292  0.00  0.00    +0.000 A 
ATOM      9  C   UNL     1      -3.693  12.973  23.456  0.00  0.00    +0.000 A 
ATOM     10  C   UNL     1      -3.778  13.577  24.722  0.00  0.00    +0.000 A 
ATOM     11  C   UNL     1      -3.405  14.904  24.890  0.00  0.00    +0.000 A 
ATOM     12  C   UNL     1      -3.059  15.648  23.776  0.00  0.00    +0.000 A 
ATOM     13  C   UNL     1      -3.112  15.072  22.499  0.00  0.00    +0.000 A 
ENDBRANCH   7   8
BRANCH   1  14
ATOM     14  C   UNL     1      -0.703  12.769  21.063  0.00  0.00    +0.000 C 
ATOM     15  O   UNL     1      -0.160  13.849  20.904  0.00  0.00    +0.000 OA
BRANCH  14  16
ATOM     16  O   UNL     1      -0.119  11.649  21.557  0.00  0.00    +0.000 OA
BRANCH  16  17
ATOM     17  C   UNL     1      -0.805  11.103  22.708  0.00  0.00    +0.000 C 
BRANCH  17  19
ATOM     18  C   UNL     1      -0.316   8.777  21.932  0.00  0.00    +0.000 C 
ATOM     19  C   UNL     1      -0.220   9.757  23.093  0.00  0.00    +0.000 C 
ENDBRANCH  17  19
ENDBRANCH  16  17
ENDBRANCH  14  16
ENDBRANCH   1  14
BRANCH   2  20
ATOM     20  C   UNL     1      -0.599  11.475  18.560  0.00  0.00    +0.000 C 
ATOM     21  C   UNL     1      -0.030  10.060  18.502  0.00  0.00    +0.000 C 
ENDBRANCH   2  20
BRANCH   3  22
ATOM     22  C   UNL     1      -3.310  10.571  17.406  0.00  0.00    +0.000 C 
ATOM     23  O   UNL     1      -3.327   9.365  17.587  0.00  0.00    +0.000 OA
BRANCH  22  24
ATOM     24  S   UNL     1      -3.276  11.302  15.803  0.00  0.00    +0.000 S 
BRANCH  24  25
ATOM     25  C   UNL     1      -2.945   9.845  14.755  0.00  0.00    +0.000 C 
ATOM     26  C   UNL     1      -3.713   9.918  13.440  0.00  0.00    +0.000 C 
ENDBRANCH  24  25
ENDBRANCH  22  24
ENDBRANCH   3  22
BRANCH   4  27
ATOM     27  C   UNL     1      -5.805  11.590  18.610  0.00  0.00    +0.000 C 
ATOM     28  C   UNL     1      -6.476  12.369  17.479  0.00  0.00    +0.000 C 
ENDBRANCH   4  27
TORSDOF 10
ENDMDL
MODEL 6
REMARK VINA RESULT:      -5.3      0.841      1.340
REMARK  Name = 
REMARK  15 active torsions:
REMARK  status: ('A' for Active; 'I' for Inactive)
REMARK    1  A    between atoms: C_1  and  C_2
REMARK    2  A    between atoms: C_2  and  C_3
REMARK    3  A    between atoms: C_3  and  O_4
REMARK    4  A    between atoms: O_4  and  C_5
REMARK    5  A    between atoms: C_5  and  C_7
REMARK    6  A    between atoms: C_8  and  C_9
REMARK    7  A    between atoms: C_9  and  C_10
REMARK    8  A    between atoms: C_11  and  C_12
REMARK    9  A    between atoms: C_12  and  S_14
REMARK   10  A    between atoms: S_14  and  C_15
REMARK   11  A    between atoms: C_15  and  C_16
REMARK   12  A    between atoms: C_17  and  C_18
REMARK   13  A    between atoms: C_18  and  C_19
REMARK   14  A    between atoms: N_20  and  C_21
REMARK   15  A    between atoms: C_22  and  C_23
REMARK                            x       y       z     vdW  Elec       q    Type
REMARK                         _______ _______ _______ _____ _____    ______ ____
ROOT
ATOM      1  C   UNL     1      -2.771  12.303  19.572  0.00  0.00    +0.000 A 
ATOM      2  C   UNL     1      -3.130  12.928  20.806  0.00  0.00    +0.000 A 
ATOM      3  C   UNL     1      -4.506  13.105  21.038  0.00  0.00    +0.000 A 
ATOM      4  C   UNL     1      -5.485  12.454  20.213  0.00  0.00    +0.000 A 
ATOM      5  N   UNL     1      -5.061  11.646  19.167  0.00  0.00    +0.000 N 
ATOM      6  C   UNL     1      -6.029  10.675  18.563  0.00  0.00    +0.000 C 
ATOM      7  C   UNL     1      -3.745  11.650  18.734  0.00  0.00    +0.000 A 
ENDROOT
BRANCH   7   8
ATOM      8  C   UNL     1      -3.461  11.027  17.390  0.00  0.00    +0.000 A 
ATOM      9  C   UNL     1      -2.742   9.815  17.256  0.00  0.00    +0.000 A 
ATOM     10  C   UNL     1      -2.512   9.212  16.007  0.00  0.00    +0.000 A 
ATOM     11  C   UNL     1      -3.091   9.735  14.860  0.00  0.00    +0.000 A 
ATOM     12  C   UNL     1      -3.803  10.920  14.950  0.00  0.00    +0.000 A 
ATOM     13  C   UNL     1      -3.908  11.587  16.178  0.00  0.00    +0.000 A 
ENDBRANCH   7   8
BRANCH   1  14
ATOM     14  C   UNL     1      -1.328  12.171  19.262  0.00  0.00    +0.000 C 
ATOM     15  O   UNL     1      -0.799  12.940  18.478  0.00  0.00    +0.000 OA
BRANCH  14  16
ATOM     16  O   UNL     1      -0.814  10.990  19.690  0.00  0.00    +0.000 OA
BRANCH  16  17
ATOM     17  C   UNL     1       0.560  10.784  19.289  0.00  0.00    +0.000 C 
BRANCH  17  19
ATOM     18  C   UNL     1       2.013   9.120  18.118  0.00  0.00    +0.000 C 
ATOM     19  C   UNL     1       0.643   9.782  18.153  0.00  0.00    +0.000 C 
ENDBRANCH  17  19
ENDBRANCH  16  17
ENDBRANCH  14  16
ENDBRANCH   1  14
BRANCH   2  20
ATOM     20  C   UNL     1      -1.998  13.382  21.718  0.00  0.00    +0.000 C 
ATOM     21  C   UNL     1      -1.469  12.559  22.889  0.00  0.00    +0.000 C 
ENDBRANCH   2  20
BRANCH   3  22
ATOM     22  C   UNL     1      -4.992  13.975  22.146  0.00  0.00    +0.000 C 
ATOM     23  O   UNL     1      -5.161  15.168  21.954  0.00  0.00    +0.000 OA
BRANCH  22  24
ATOM     24  S   UNL     1      -5.181  13.220  23.728  0.00  0.00    +0.000 S 
BRANCH  24  25
ATOM     25  C   UNL     1      -6.958  13.497  24.044  0.00  0.00    +0.000 C 
ATOM     26  C   UNL     1      -7.801  12.326  23.551  0.00  0.00    +0.000 C 
ENDBRANCH  24  25
ENDBRANCH  22  24
ENDBRANCH   3  22
BRANCH   4  27
ATOM     27  C   UNL     1      -6.980  12.757  20.336  0.00  0.00    +0.000 C 
ATOM     28  C   UNL     1      -7.567  13.889  19.492  0.00  0.00    +0.000 C 
ENDBRANCH   4  27
TORSDOF 10
ENDMDL
MODEL 7
REMARK VINA RESULT:      -5.2      1.211      1.302
REMARK  Name = 
REMARK  15 active torsions:
REMARK  status: ('A' for Active; 'I' for Inactive)
REMARK    1  A    between atoms: C_1  and  C_2
REMARK    2  A    between atoms: C_2  and  C_3
REMARK    3  A    between atoms: C_3  and  O_4
REMARK    4  A    between atoms: O_4  and  C_5
REMARK    5  A    between atoms: C_5  and  C_7
REMARK    6  A    between atoms: C_8  and  C_9
REMARK    7  A    between atoms: C_9  and  C_10
REMARK    8  A    between atoms: C_11  and  C_12
REMARK    9  A    between atoms: C_12  and  S_14
REMARK   10  A    between atoms: S_14  and  C_15
REMARK   11  A    between atoms: C_15  and  C_16
REMARK   12  A    between atoms: C_17  and  C_18
REMARK   13  A    between atoms: C_18  and  C_19
REMARK   14  A    between atoms: N_20  and  C_21
REMARK   15  A    between atoms: C_22  and  C_23
REMARK                            x       y       z     vdW  Elec       q    Type
REMARK                         _______ _______ _______ _____ _____    ______ ____
ROOT
ATOM      1  C   UNL     1      -3.130  12.255  19.790  0.00  0.00    +0.000 A 
ATOM      2  C   UNL     1      -3.527  12.889  21.008  0.00  0.00    +0.000 A 
ATOM      3  C   UNL     1      -4.907  13.093  21.183  0.00  0.00    +0.000 A 
ATOM      4  C   UNL     1      -5.865  12.459  20.320  0.00  0.00    +0.000 A 
ATOM      5  N   UNL     1      -5.414  11.641  19.292  0.00  0.00    +0.000 N 
ATOM      6  C   UNL     1      -6.375  10.688  18.650  0.00  0.00    +0.000 C 
ATOM      7  C   UNL     1      -4.081  11.619  18.913  0.00  0.00    +0.000 A 
ENDROOT
BRANCH   7   8
ATOM      8  C   UNL     1      -3.755  10.988  17.582  0.00  0.00    +0.000 A 
ATOM      9  C   UNL     1      -4.103  11.598  16.354  0.00  0.00    +0.000 A 
ATOM     10  C   UNL     1      -3.764  11.033  15.111  0.00  0.00    +0.000 A 
ATOM     11  C   UNL     1      -2.965   9.899  15.053  0.00  0.00    +0.000 A 
ATOM     12  C   UNL     1      -2.603   9.274  16.235  0.00  0.00    +0.000 A 
ATOM     13  C   UNL     1      -3.063   9.769  17.463  0.00  0.00    +0.000 A 
ENDBRANCH   7   8
BRANCH   1  14
ATOM     14  C   UNL     1      -1.678  12.094  19.539  0.00  0.00    +0.000 C 
ATOM     15  O   UNL     1      -1.104  12.847  18.771  0.00  0.00    +0.000 OA
BRANCH  14  16
ATOM     16  O   UNL     1      -1.203  10.908  19.997  0.00  0.00    +0.000 OA
BRANCH  16  17
ATOM     17  C   UNL     1       0.142  10.992  20.520  0.00  0.00    +0.000 C 
BRANCH  17  19
ATOM     18  C   UNL     1      -0.254   9.323  22.339  0.00  0.00    +0.000 C 
ATOM     19  C   UNL     1       0.574   9.661  21.108  0.00  0.00    +0.000 C 
ENDBRANCH  17  19
ENDBRANCH  16  17
ENDBRANCH  14  16
ENDBRANCH   1  14
BRANCH   2  20
ATOM     20  C   UNL     1      -2.424  13.322  21.965  0.00  0.00    +0.000 C 
ATOM     21  C   UNL     1      -2.011  12.528  23.200  0.00  0.00    +0.000 C 
ENDBRANCH   2  20
BRANCH   3  22
ATOM     22  C   UNL     1      -5.421  13.974  22.269  0.00  0.00    +0.000 C 
ATOM     23  O   UNL     1      -5.798  13.485  23.321  0.00  0.00    +0.000 OA
BRANCH  22  24
ATOM     24  S   UNL     1      -5.561  15.692  21.903  0.00  0.00    +0.000 S 
BRANCH  24  25
ATOM     25  C   UNL     1      -6.918  16.185  23.021  0.00  0.00    +0.000 C 
ATOM     26  C   UNL     1      -7.340  17.630  22.783  0.00  0.00    +0.000 C 
ENDBRANCH  24  25
ENDBRANCH  22  24
ENDBRANCH   3  22
BRANCH   4  27
ATOM     27  C   UNL     1      -7.357  12.792  20.381  0.00  0.00    +0.000 C 
ATOM     28  C   UNL     1      -7.894  13.907  19.484  0.00  0.00    +0.000 C 
ENDBRANCH   4  27
TORSDOF 10
ENDMDL
MODEL 8
REMARK VINA RESULT:      -5.2      1.292      1.499
REMARK  Name = 
REMARK  15 active torsions:
REMARK  status: ('A' for Active; 'I' for Inactive)
REMARK    1  A    between atoms: C_1  and  C_2
REMARK    2  A    between atoms: C_2  and  C_3
REMARK    3  A    between atoms: C_3  and  O_4
REMARK    4  A    between atoms: O_4  and  C_5
REMARK    5  A    between atoms: C_5  and  C_7
REMARK    6  A    between atoms: C_8  and  C_9
REMARK    7  A    between atoms: C_9  and  C_10
REMARK    8  A    between atoms: C_11  and  C_12
REMARK    9  A    between atoms: C_12  and  S_14
REMARK   10  A    between atoms: S_14  and  C_15
REMARK   11  A    between atoms: C_15  and  C_16
REMARK   12  A    between atoms: C_17  and  C_18
REMARK   13  A    between atoms: C_18  and  C_19
REMARK   14  A    between atoms: N_20  and  C_21
REMARK   15  A    between atoms: C_22  and  C_23
REMARK                            x       y       z     vdW  Elec       q    Type
REMARK                         _______ _______ _______ _____ _____    ______ ____
ROOT
ATOM      1  C   UNL     1      -3.105  12.240  19.926  0.00  0.00    +0.000 A 
ATOM      2  C   UNL     1      -3.486  12.834  21.169  0.00  0.00    +0.000 A 
ATOM      3  C   UNL     1      -4.867  12.998  21.382  0.00  0.00    +0.000 A 
ATOM      4  C   UNL     1      -5.829  12.361  20.527  0.00  0.00    +0.000 A 
ATOM      5  N   UNL     1      -5.384  11.580  19.469  0.00  0.00    +0.000 N 
ATOM      6  C   UNL     1      -6.336  10.618  18.827  0.00  0.00    +0.000 C 
ATOM      7  C   UNL     1      -4.060  11.602  19.057  0.00  0.00    +0.000 A 
ENDROOT
BRANCH   7   8
ATOM      8  C   UNL     1      -3.752  11.012  17.704  0.00  0.00    +0.000 A 
ATOM      9  C   UNL     1      -4.207  11.604  16.502  0.00  0.00    +0.000 A 
ATOM     10  C   UNL     1      -3.887  11.080  15.237  0.00  0.00    +0.000 A 
ATOM     11  C   UNL     1      -3.004  10.014  15.125  0.00  0.00    +0.000 A 
ATOM     12  C   UNL     1      -2.537   9.408  16.278  0.00  0.00    +0.000 A 
ATOM     13  C   UNL     1      -2.973   9.852  17.534  0.00  0.00    +0.000 A 
ENDBRANCH   7   8
BRANCH   1  14
ATOM     14  C   UNL     1      -1.656  12.123  19.636  0.00  0.00    +0.000 C 
ATOM     15  O   UNL     1      -1.106  12.949  18.927  0.00  0.00    +0.000 OA
BRANCH  14  16
ATOM     16  O   UNL     1      -1.157  10.909  19.980  0.00  0.00    +0.000 OA
BRANCH  16  17
ATOM     17  C   UNL     1       0.255  10.936  20.292  0.00  0.00    +0.000 C 
BRANCH  17  19
ATOM     18  C   UNL     1       0.736   9.645  18.206  0.00  0.00    +0.000 C 
ATOM     19  C   UNL     1       0.957   9.723  19.709  0.00  0.00    +0.000 C 
ENDBRANCH  17  19
ENDBRANCH  16  17
ENDBRANCH  14  16
ENDBRANCH   1  14
BRANCH   2  20
ATOM     20  C   UNL     1      -2.372  13.273  22.109  0.00  0.00    +0.000 C 
ATOM     21  C   UNL     1      -1.870  14.710  22.219  0.00  0.00    +0.000 C 
ENDBRANCH   2  20
BRANCH   3  22
ATOM     22  C   UNL     1      -5.376  13.840  22.502  0.00  0.00    +0.000 C 
ATOM     23  O   UNL     1      -5.727  13.315  23.546  0.00  0.00    +0.000 OA
BRANCH  22  24
ATOM     24  S   UNL     1      -5.550  15.565  22.188  0.00  0.00    +0.000 S 
BRANCH  24  25
ATOM     25  C   UNL     1      -5.944  16.192  23.856  0.00  0.00    +0.000 C 
ATOM     26  C   UNL     1      -4.683  16.599  24.611  0.00  0.00    +0.000 C 
ENDBRANCH  24  25
ENDBRANCH  22  24
ENDBRANCH   3  22
BRANCH   4  27
ATOM     27  C   UNL     1      -7.328  12.654  20.632  0.00  0.00    +0.000 C 
ATOM     28  C   UNL     1      -7.913  13.781  19.782  0.00  0.00    +0.000 C 
ENDBRANCH   4  27
TORSDOF 10
ENDMDL
MODEL 9
REMARK VINA RESULT:      -5.1      2.089      3.483
REMARK  Name = 
REMARK  15 active torsions:
REMARK  status: ('A' for Active; 'I' for Inactive)
REMARK    1  A    between atoms: C_1  and  C_2
REMARK    2  A    between atoms: C_2  and  C_3
REMARK    3  A    between atoms: C_3  and  O_4
REMARK    4  A    between atoms: O_4  and  C_5
REMARK    5  A    between atoms: C_5  and  C_7
REMARK    6  A    between atoms: C_8  and  C_9
REMARK    7  A    between atoms: C_9  and  C_10
REMARK    8  A    between atoms: C_11  and  C_12
REMARK    9  A    between atoms: C_12  and  S_14
REMARK   10  A    between atoms: S_14  and  C_15
REMARK   11  A    between atoms: C_15  and  C_16
REMARK   12  A    between atoms: C_17  and  C_18
REMARK   13  A    between atoms: C_18  and  C_19
REMARK   14  A    between atoms: N_20  and  C_21
REMARK   15  A    between atoms: C_22  and  C_23
REMARK                            x       y       z     vdW  Elec       q    Type
REMARK                         _______ _______ _______ _____ _____    ______ ____
ROOT
ATOM      1  C   UNL     1      -2.175  12.594  21.567  0.00  0.00    +0.000 A 
ATOM      2  C   UNL     1      -3.515  12.571  22.064  0.00  0.00    +0.000 A 
ATOM      3  C   UNL     1      -4.537  12.558  21.097  0.00  0.00    +0.000 A 
ATOM      4  C   UNL     1      -4.244  12.308  19.713  0.00  0.00    +0.000 A 
ATOM      5  N   UNL     1      -2.929  12.087  19.328  0.00  0.00    +0.000 N 
ATOM      6  C   UNL     1      -2.660  11.453  17.997  0.00  0.00    +0.000 C 
ATOM      7  C   UNL     1      -1.868  12.350  20.180  0.00  0.00    +0.000 A 
ENDROOT
BRANCH   7   8
ATOM      8  C   UNL     1      -0.493  12.422  19.565  0.00  0.00    +0.000 A 
ATOM      9  C   UNL     1       0.275  11.264  19.296  0.00  0.00    +0.000 A 
ATOM     10  C   UNL     1       1.541  11.325  18.686  0.00  0.00    +0.000 A 
ATOM     11  C   UNL     1       2.032  12.535  18.216  0.00  0.00    +0.000 A 
ATOM     12  C   UNL     1       1.309  13.691  18.459  0.00  0.00    +0.000 A 
ATOM     13  C   UNL     1       0.115  13.635  19.192  0.00  0.00    +0.000 A 
ENDBRANCH   7   8
BRANCH   1  14
ATOM     14  C   UNL     1      -1.076  12.686  22.557  0.00  0.00    +0.000 C 
ATOM     15  O   UNL     1      -0.323  13.645  22.548  0.00  0.00    +0.000 OA
BRANCH  14  16
ATOM     16  O   UNL     1      -0.861  11.511  23.200  0.00  0.00    +0.000 OA
BRANCH  16  17
ATOM     17  C   UNL     1       0.059  10.636  22.507  0.00  0.00    +0.000 C 
BRANCH  17  19
ATOM     18  C   UNL     1      -0.436   8.380  21.549  0.00  0.00    +0.000 C 
ATOM     19  C   UNL     1      -0.237   9.183  22.827  0.00  0.00    +0.000 C 
ENDBRANCH  17  19
ENDBRANCH  16  17
ENDBRANCH  14  16
ENDBRANCH   1  14
BRANCH   2  20
ATOM     20  C   UNL     1      -3.705  12.612  23.574  0.00  0.00    +0.000 C 
ATOM     21  C   UNL     1      -3.795  13.903  24.383  0.00  0.00    +0.000 C 
ENDBRANCH   2  20
BRANCH   3  22
ATOM     22  C   UNL     1      -5.957  12.803  21.478  0.00  0.00    +0.000 C 
ATOM     23  O   UNL     1      -6.729  11.865  21.581  0.00  0.00    +0.000 OA
BRANCH  22  24
ATOM     24  S   UNL     1      -6.458  14.485  21.641  0.00  0.00    +0.000 S 
BRANCH  24  25
ATOM     25  C   UNL     1      -7.907  14.318  22.740  0.00  0.00    +0.000 C 
ATOM     26  C   UNL     1      -7.487  14.021  24.175  0.00  0.00    +0.000 C 
ENDBRANCH  24  25
ENDBRANCH  22  24
ENDBRANCH   3  22
BRANCH   4  27
ATOM     27  C   UNL     1      -5.306  12.452  18.620  0.00  0.00    +0.000 C 
ATOM     28  C   UNL     1      -6.120  11.220  18.227  0.00  0.00    +0.000 C 
ENDBRANCH   4  27
TORSDOF 10
ENDMDL
