MODEL 1
REMARK VINA RESULT:      -6.8      0.000      0.000
REMARK  Name = 
REMARK  12 active torsions:
REMARK  status: ('A' for Active; 'I' for Inactive)
REMARK    1  A    between atoms: C_1  and  N_2
REMARK    2  A    between atoms: C_5  and  C_6
REMARK    3  A    between atoms: C_6  and  O_8
REMARK    4  A    between atoms: O_8  and  C_9
REMARK    5  A    between atoms: C_9  and  C_10
REMARK    6  A    between atoms: C_10  and  C_11
REMARK    7  A    between atoms: C_11  and  C_12
REMARK    8  A    between atoms: C_12  and  C_13
REMARK    9  A    between atoms: C_13  and  C_14
REMARK   10  A    between atoms: C_14  and  C_15
REMARK   11  A    between atoms: C_15  and  C_16
REMARK   12  A    between atoms: C_16  and  N_17
REMARK                            x       y       z     vdW  Elec       q    Type
REMARK                         _______ _______ _______ _____ _____    ______ ____
ROOT
ATOM      1  C   UNL     1       2.127   6.414  19.724  0.00  0.00    +0.000 C 
ENDROOT
BRANCH   1   2
ATOM      2  C   UNL     1       1.484   5.143  19.118  0.00  0.00    +0.000 C 
BRANCH   2   3
ATOM      3  C   UNL     1       1.235   4.002  20.134  0.00  0.00    +0.000 C 
BRANCH   3   4
ATOM      4  C   UNL     1       2.432   3.783  21.065  0.00  0.00    +0.000 C 
BRANCH   4   5
ATOM      5  O   UNL     1       3.063   2.589  20.763  0.00  0.00    +0.000 OA
BRANCH   5   6
ATOM      6  C   UNL     1       4.286   2.497  20.166  0.00  0.00    +0.000 C 
ATOM      7  O   UNL     1       5.128   1.713  20.587  0.00  0.00    +0.000 OA
BRANCH   6  12
ATOM      8  C   UNL     1       5.522   5.797  15.653  0.00  0.00    +0.000 C 
ATOM      9  N   UNL     1       5.217   4.957  16.810  0.00  0.00    +0.000 N 
ATOM     10  C   UNL     1       5.859   5.163  17.999  0.00  0.00    +0.000 A 
ATOM     11  C   UNL     1       5.568   4.367  19.107  0.00  0.00    +0.000 A 
ATOM     12  C   UNL     1       4.609   3.348  19.001  0.00  0.00    +0.000 A 
ATOM     13  C   UNL     1       3.964   3.152  17.772  0.00  0.00    +0.000 A 
ATOM     14  C   UNL     1       4.284   3.968  16.686  0.00  0.00    +0.000 A 
ENDBRANCH   6  12
ENDBRANCH   5   6
ENDBRANCH   4   5
ENDBRANCH   3   4
ENDBRANCH   2   3
ENDBRANCH   1   2
BRANCH   1  15
ATOM     15  C   UNL     1       2.998   7.152  18.700  0.00  0.00    +0.000 C 
BRANCH  15  16
ATOM     16  C   UNL     1       2.178   7.934  17.675  0.00  0.00    +0.000 C 
BRANCH  16  17
ATOM     17  C   UNL     1       1.882   9.331  18.239  0.00  0.00    +0.000 C 
BRANCH  17  18
ATOM     18  C   UNL     1       0.399   9.685  18.141  0.00  0.00    +0.000 C 
BRANCH  18  19
ATOM     19  N   UNL     1       0.004  10.597  19.221  0.00  0.00    +0.000 N 
ATOM     20  C   UNL     1      -0.197  11.928  19.060  0.00  0.00    +0.000 A 
ATOM     21  C   UNL     1      -0.559  12.516  20.263  0.00  0.00    +0.000 A 
ATOM     22  C   UNL     1      -0.578  11.494  21.183  0.00  0.00    +0.000 A 
ATOM     23  C   UNL     1      -0.878  11.521  22.544  0.00  0.00    +0.000 A 
ATOM     24  C   UNL     1      -0.821  10.310  23.252  0.00  0.00    +0.000 A 
ATOM     25  C   UNL     1      -0.474   9.112  22.592  0.00  0.00    +0.000 A 
ATOM     26  C   UNL     1      -0.180   9.113  21.214  0.00  0.00    +0.000 A 
ATOM     27  C   UNL     1      -0.236  10.334  20.528  0.00  0.00    +0.000 A 
ENDBRANCH  18  19
ENDBRANCH  17  18
ENDBRANCH  16  17
ENDBRANCH  15  16
ENDBRANCH   1  15
TORSDOF 11
ENDMDL
MODEL 2
REMARK VINA RESULT:      -6.7      1.924      3.022
REMARK  Name = 
REMARK  12 active torsions:
REMARK  status: ('A' for Active; 'I' for Inactive)
REMARK    1  A    between atoms: C_1  and  N_2
REMARK    2  A    between atoms: C_5  and  C_6
REMARK    3  A    between atoms: C_6  and  O_8
REMARK    4  A    between atoms: O_8  and  C_9
REMARK    5  A    between atoms: C_9  and  C_10
REMARK    6  A    between atoms: C_10  and  C_11
REMARK    7  A    between atoms: C_11  and  C_12
REMARK    8  A    between atoms: C_12  and  C_13
REMARK    9  A    between atoms: C_13  and  C_14
REMARK   10  A    between atoms: C_14  and  C_15
REMARK   11  A    between atoms: C_15  and  C_16
REMARK   12  A    between atoms: C_16  and  N_17
REMARK                            x       y       z     vdW  Elec       q    Type
REMARK                         _______ _______ _______ _____ _____    ______ ____
ROOT
ATOM      1  C   UNL     1       1.948   5.865  20.151  0.00  0.00    +0.000 C 
ENDROOT
BRANCH   1   2
ATOM      2  C   UNL     1       1.702   4.566  20.957  0.00  0.00    +0.000 C 
BRANCH   2   3
ATOM      3  C   UNL     1       1.242   3.359  20.104  0.00  0.00    +0.000 C 
BRANCH   3   4
ATOM      4  C   UNL     1       1.208   3.685  18.607  0.00  0.00    +0.000 C 
BRANCH   4   5
ATOM      5  O   UNL     1       1.918   2.737  17.893  0.00  0.00    +0.000 OA
BRANCH   5   6
ATOM      6  C   UNL     1       3.249   2.489  18.059  0.00  0.00    +0.000 C 
ATOM      7  O   UNL     1       3.643   1.363  18.338  0.00  0.00    +0.000 OA
BRANCH   6  12
ATOM      8  C   UNL     1       7.069   6.713  17.463  0.00  0.00    +0.000 C 
ATOM      9  N   UNL     1       6.088   5.638  17.606  0.00  0.00    +0.000 N 
ATOM     10  C   UNL     1       5.300   5.279  16.548  0.00  0.00    +0.000 A 
ATOM     11  C   UNL     1       4.366   4.252  16.679  0.00  0.00    +0.000 A 
ATOM     12  C   UNL     1       4.233   3.582  17.904  0.00  0.00    +0.000 A 
ATOM     13  C   UNL     1       5.048   3.967  18.977  0.00  0.00    +0.000 A 
ATOM     14  C   UNL     1       5.970   5.001  18.807  0.00  0.00    +0.000 A 
ENDBRANCH   6  12
ENDBRANCH   5   6
ENDBRANCH   4   5
ENDBRANCH   3   4
ENDBRANCH   2   3
ENDBRANCH   1   2
BRANCH   1  15
ATOM     15  C   UNL     1       1.290   7.079  20.818  0.00  0.00    +0.000 C 
BRANCH  15  16
ATOM     16  C   UNL     1       1.662   8.401  20.149  0.00  0.00    +0.000 C 
BRANCH  16  17
ATOM     17  C   UNL     1       0.805   9.521  20.754  0.00  0.00    +0.000 C 
BRANCH  17  18
ATOM     18  C   UNL     1       0.792  10.770  19.874  0.00  0.00    +0.000 C 
BRANCH  18  19
ATOM     19  N   UNL     1      -0.581  11.235  19.642  0.00  0.00    +0.000 N 
ATOM     20  C   UNL     1      -1.229  12.124  20.435  0.00  0.00    +0.000 A 
ATOM     21  C   UNL     1      -2.510  12.360  19.957  0.00  0.00    +0.000 A 
ATOM     22  C   UNL     1      -2.634  11.582  18.830  0.00  0.00    +0.000 A 
ATOM     23  C   UNL     1      -3.711  11.436  17.958  0.00  0.00    +0.000 A 
ATOM     24  C   UNL     1      -3.560  10.563  16.869  0.00  0.00    +0.000 A 
ATOM     25  C   UNL     1      -2.348   9.867  16.675  0.00  0.00    +0.000 A 
ATOM     26  C   UNL     1      -1.272  10.038  17.569  0.00  0.00    +0.000 A 
ATOM     27  C   UNL     1      -1.449  10.909  18.654  0.00  0.00    +0.000 A 
ENDBRANCH  18  19
ENDBRANCH  17  18
ENDBRANCH  16  17
ENDBRANCH  15  16
ENDBRANCH   1  15
TORSDOF 11
ENDMDL
MODEL 3
REMARK VINA RESULT:      -6.6      6.745      8.078
REMARK  Name = 
REMARK  12 active torsions:
REMARK  status: ('A' for Active; 'I' for Inactive)
REMARK    1  A    between atoms: C_1  and  N_2
REMARK    2  A    between atoms: C_5  and  C_6
REMARK    3  A    between atoms: C_6  and  O_8
REMARK    4  A    between atoms: O_8  and  C_9
REMARK    5  A    between atoms: C_9  and  C_10
REMARK    6  A    between atoms: C_10  and  C_11
REMARK    7  A    between atoms: C_11  and  C_12
REMARK    8  A    between atoms: C_12  and  C_13
REMARK    9  A    between atoms: C_13  and  C_14
REMARK   10  A    between atoms: C_14  and  C_15
REMARK   11  A    between atoms: C_15  and  C_16
REMARK   12  A    between atoms: C_16  and  N_17
REMARK                            x       y       z     vdW  Elec       q    Type
REMARK                         _______ _______ _______ _____ _____    ______ ____
ROOT
ATOM      1  C   UNL     1       8.174   8.752  17.887  0.00  0.00    +0.000 C 
ENDROOT
BRANCH   1   2
ATOM      2  C   UNL     1       8.231   7.350  18.541  0.00  0.00    +0.000 C 
BRANCH   2   3
ATOM      3  C   UNL     1       7.027   6.437  18.207  0.00  0.00    +0.000 C 
BRANCH   3   4
ATOM      4  C   UNL     1       7.015   6.004  16.737  0.00  0.00    +0.000 C 
BRANCH   4   5
ATOM      5  O   UNL     1       6.578   4.697  16.624  0.00  0.00    +0.000 OA
BRANCH   5   6
ATOM      6  C   UNL     1       5.341   4.336  16.176  0.00  0.00    +0.000 C 
ATOM      7  O   UNL     1       5.142   4.142  14.983  0.00  0.00    +0.000 OA
BRANCH   6  12
ATOM      8  C   UNL     1       1.005   3.727  19.865  0.00  0.00    +0.000 C 
ATOM      9  N   UNL     1       2.115   3.872  18.926  0.00  0.00    +0.000 N 
ATOM     10  C   UNL     1       2.784   2.769  18.474  0.00  0.00    +0.000 A 
ATOM     11  C   UNL     1       3.842   2.902  17.575  0.00  0.00    +0.000 A 
ATOM     12  C   UNL     1       4.223   4.177  17.131  0.00  0.00    +0.000 A 
ATOM     13  C   UNL     1       3.527   5.296  17.609  0.00  0.00    +0.000 A 
ATOM     14  C   UNL     1       2.475   5.121  18.509  0.00  0.00    +0.000 A 
ENDBRANCH   6  12
ENDBRANCH   5   6
ENDBRANCH   4   5
ENDBRANCH   3   4
ENDBRANCH   2   3
ENDBRANCH   1   2
BRANCH   1  15
ATOM     15  C   UNL     1       8.919   9.798  18.725  0.00  0.00    +0.000 C 
BRANCH  15  16
ATOM     16  C   UNL     1       8.992  11.164  18.044  0.00  0.00    +0.000 C 
BRANCH  16  17
ATOM     17  C   UNL     1      10.466  11.529  17.823  0.00  0.00    +0.000 C 
BRANCH  17  18
ATOM     18  C   UNL     1      11.250  11.563  19.134  0.00  0.00    +0.000 C 
BRANCH  18  19
ATOM     19  N   UNL     1      11.026  12.826  19.848  0.00  0.00    +0.000 N 
ATOM     20  C   UNL     1      11.613  14.003  19.519  0.00  0.00    +0.000 A 
ATOM     21  C   UNL     1      11.204  15.010  20.381  0.00  0.00    +0.000 A 
ATOM     22  C   UNL     1      10.334  14.412  21.262  0.00  0.00    +0.000 A 
ATOM     23  C   UNL     1       9.628  14.960  22.331  0.00  0.00    +0.000 A 
ATOM     24  C   UNL     1       8.795  14.107  23.072  0.00  0.00    +0.000 A 
ATOM     25  C   UNL     1       8.684  12.742  22.730  0.00  0.00    +0.000 A 
ATOM     26  C   UNL     1       9.405  12.216  21.640  0.00  0.00    +0.000 A 
ATOM     27  C   UNL     1      10.236  13.085  20.918  0.00  0.00    +0.000 A 
ENDBRANCH  18  19
ENDBRANCH  17  18
ENDBRANCH  16  17
ENDBRANCH  15  16
ENDBRANCH   1  15
TORSDOF 11
ENDMDL
MODEL 4
REMARK VINA RESULT:      -6.6      1.627      2.532
REMARK  Name = 
REMARK  12 active torsions:
REMARK  status: ('A' for Active; 'I' for Inactive)
REMARK    1  A    between atoms: C_1  and  N_2
REMARK    2  A    between atoms: C_5  and  C_6
REMARK    3  A    between atoms: C_6  and  O_8
REMARK    4  A    between atoms: O_8  and  C_9
REMARK    5  A    between atoms: C_9  and  C_10
REMARK    6  A    between atoms: C_10  and  C_11
REMARK    7  A    between atoms: C_11  and  C_12
REMARK    8  A    between atoms: C_12  and  C_13
REMARK    9  A    between atoms: C_13  and  C_14
REMARK   10  A    between atoms: C_14  and  C_15
REMARK   11  A    between atoms: C_15  and  C_16
REMARK   12  A    between atoms: C_16  and  N_17
REMARK                            x       y       z     vdW  Elec       q    Type
REMARK                         _______ _______ _______ _____ _____    ______ ____
ROOT
ATOM      1  C   UNL     1       1.756   3.722  17.796  0.00  0.00    +0.000 C 
ENDROOT
BRANCH   1   2
ATOM      2  C   UNL     1       1.969   2.505  18.729  0.00  0.00    +0.000 C 
BRANCH   2   3
ATOM      3  C   UNL     1       3.388   1.891  18.669  0.00  0.00    +0.000 C 
BRANCH   3   4
ATOM      4  C   UNL     1       4.340   2.527  19.688  0.00  0.00    +0.000 C 
BRANCH   4   5
ATOM      5  O   UNL     1       4.443   3.889  19.465  0.00  0.00    +0.000 OA
BRANCH   5   6
ATOM      6  C   UNL     1       5.580   4.514  19.045  0.00  0.00    +0.000 C 
ATOM      7  O   UNL     1       6.328   5.055  19.851  0.00  0.00    +0.000 OA
BRANCH   6  12
ATOM      8  C   UNL     1       6.912   4.622  13.477  0.00  0.00    +0.000 C 
ATOM      9  N   UNL     1       6.562   4.598  14.896  0.00  0.00    +0.000 N 
ATOM     10  C   UNL     1       5.253   4.504  15.281  0.00  0.00    +0.000 A 
ATOM     11  C   UNL     1       4.914   4.476  16.634  0.00  0.00    +0.000 A 
ATOM     12  C   UNL     1       5.922   4.545  17.607  0.00  0.00    +0.000 A 
ATOM     13  C   UNL     1       7.257   4.643  17.192  0.00  0.00    +0.000 A 
ATOM     14  C   UNL     1       7.556   4.670  15.829  0.00  0.00    +0.000 A 
ENDBRANCH   6  12
ENDBRANCH   5   6
ENDBRANCH   4   5
ENDBRANCH   3   4
ENDBRANCH   2   3
ENDBRANCH   1   2
BRANCH   1  15
ATOM     15  C   UNL     1       1.778   5.044  18.574  0.00  0.00    +0.000 C 
BRANCH  15  16
ATOM     16  C   UNL     1       2.137   6.244  17.699  0.00  0.00    +0.000 C 
BRANCH  16  17
ATOM     17  C   UNL     1       2.810   7.311  18.574  0.00  0.00    +0.000 C 
BRANCH  17  18
ATOM     18  C   UNL     1       2.106   7.473  19.920  0.00  0.00    +0.000 C 
BRANCH  18  19
ATOM     19  N   UNL     1       1.320   8.712  19.956  0.00  0.00    +0.000 N 
ATOM     20  C   UNL     1       1.129   9.525  18.888  0.00  0.00    +0.000 A 
ATOM     21  C   UNL     1       0.345  10.615  19.239  0.00  0.00    +0.000 A 
ATOM     22  C   UNL     1       0.052  10.446  20.572  0.00  0.00    +0.000 A 
ATOM     23  C   UNL     1      -0.705  11.243  21.429  0.00  0.00    +0.000 A 
ATOM     24  C   UNL     1      -0.845  10.824  22.761  0.00  0.00    +0.000 A 
ATOM     25  C   UNL     1      -0.236   9.629  23.202  0.00  0.00    +0.000 A 
ATOM     26  C   UNL     1       0.519   8.839  22.312  0.00  0.00    +0.000 A 
ATOM     27  C   UNL     1       0.651   9.281  20.988  0.00  0.00    +0.000 A 
ENDBRANCH  18  19
ENDBRANCH  17  18
ENDBRANCH  16  17
ENDBRANCH  15  16
ENDBRANCH   1  15
TORSDOF 11
ENDMDL
MODEL 5
REMARK VINA RESULT:      -6.5      5.952      8.799
REMARK  Name = 
REMARK  12 active torsions:
REMARK  status: ('A' for Active; 'I' for Inactive)
REMARK    1  A    between atoms: C_1  and  N_2
REMARK    2  A    between atoms: C_5  and  C_6
REMARK    3  A    between atoms: C_6  and  O_8
REMARK    4  A    between atoms: O_8  and  C_9
REMARK    5  A    between atoms: C_9  and  C_10
REMARK    6  A    between atoms: C_10  and  C_11
REMARK    7  A    between atoms: C_11  and  C_12
REMARK    8  A    between atoms: C_12  and  C_13
REMARK    9  A    between atoms: C_13  and  C_14
REMARK   10  A    between atoms: C_14  and  C_15
REMARK   11  A    between atoms: C_15  and  C_16
REMARK   12  A    between atoms: C_16  and  N_17
REMARK                            x       y       z     vdW  Elec       q    Type
REMARK                         _______ _______ _______ _____ _____    ______ ____
ROOT
ATOM      1  C   UNL     1       7.365   6.188  18.338  0.00  0.00    +0.000 C 
ENDROOT
BRANCH   1   2
ATOM      2  C   UNL     1       7.723   7.503  17.604  0.00  0.00    +0.000 C 
BRANCH   2   3
ATOM      3  C   UNL     1       8.525   8.516  18.456  0.00  0.00    +0.000 C 
BRANCH   3   4
ATOM      4  C   UNL     1       8.369   9.953  17.948  0.00  0.00    +0.000 C 
BRANCH   4   5
ATOM      5  O   UNL     1       9.512  10.685  18.218  0.00  0.00    +0.000 OA
BRANCH   5   6
ATOM      6  C   UNL     1       9.533  12.037  18.396  0.00  0.00    +0.000 C 
ATOM      7  O   UNL     1       9.780  12.786  17.459  0.00  0.00    +0.000 OA
BRANCH   6  12
ATOM      8  C   UNL     1       8.482  14.268  23.564  0.00  0.00    +0.000 C 
ATOM      9  N   UNL     1       8.743  13.707  22.240  0.00  0.00    +0.000 N 
ATOM     10  C   UNL     1       8.506  14.450  21.117  0.00  0.00    +0.000 A 
ATOM     11  C   UNL     1       8.758  13.919  19.852  0.00  0.00    +0.000 A 
ATOM     12  C   UNL     1       9.258  12.614  19.730  0.00  0.00    +0.000 A 
ATOM     13  C   UNL     1       9.492  11.868  20.893  0.00  0.00    +0.000 A 
ATOM     14  C   UNL     1       9.226  12.433  22.141  0.00  0.00    +0.000 A 
ENDBRANCH   6  12
ENDBRANCH   5   6
ENDBRANCH   4   5
ENDBRANCH   3   4
ENDBRANCH   2   3
ENDBRANCH   1   2
BRANCH   1  15
ATOM     15  C   UNL     1       7.318   4.996  17.375  0.00  0.00    +0.000 C 
BRANCH  15  16
ATOM     16  C   UNL     1       6.832   5.378  15.978  0.00  0.00    +0.000 C 
BRANCH  16  17
ATOM     17  C   UNL     1       5.317   5.621  16.030  0.00  0.00    +0.000 C 
BRANCH  17  18
ATOM     18  C   UNL     1       4.561   4.406  16.566  0.00  0.00    +0.000 C 
BRANCH  18  19
ATOM     19  N   UNL     1       3.728   4.772  17.718  0.00  0.00    +0.000 N 
ATOM     20  C   UNL     1       3.808   5.957  18.371  0.00  0.00    +0.000 A 
ATOM     21  C   UNL     1       2.895   6.002  19.414  0.00  0.00    +0.000 A 
ATOM     22  C   UNL     1       2.238   4.794  19.383  0.00  0.00    +0.000 A 
ATOM     23  C   UNL     1       1.221   4.307  20.202  0.00  0.00    +0.000 A 
ATOM     24  C   UNL     1       0.726   3.020  19.939  0.00  0.00    +0.000 A 
ATOM     25  C   UNL     1       1.249   2.259  18.871  0.00  0.00    +0.000 A 
ATOM     26  C   UNL     1       2.273   2.778  18.055  0.00  0.00    +0.000 A 
ATOM     27  C   UNL     1       2.757   4.062  18.342  0.00  0.00    +0.000 A 
ENDBRANCH  18  19
ENDBRANCH  17  18
ENDBRANCH  16  17
ENDBRANCH  15  16
ENDBRANCH   1  15
TORSDOF 11
ENDMDL
MODEL 6
REMARK VINA RESULT:      -6.5      0.868      1.696
REMARK  Name = 
REMARK  12 active torsions:
REMARK  status: ('A' for Active; 'I' for Inactive)
REMARK    1  A    between atoms: C_1  and  N_2
REMARK    2  A    between atoms: C_5  and  C_6
REMARK    3  A    between atoms: C_6  and  O_8
REMARK    4  A    between atoms: O_8  and  C_9
REMARK    5  A    between atoms: C_9  and  C_10
REMARK    6  A    between atoms: C_10  and  C_11
REMARK    7  A    between atoms: C_11  and  C_12
REMARK    8  A    between atoms: C_12  and  C_13
REMARK    9  A    between atoms: C_13  and  C_14
REMARK   10  A    between atoms: C_14  and  C_15
REMARK   11  A    between atoms: C_15  and  C_16
REMARK   12  A    between atoms: C_16  and  N_17
REMARK                            x       y       z     vdW  Elec       q    Type
REMARK                         _______ _______ _______ _____ _____    ______ ____
ROOT
ATOM      1  C   UNL     1       1.823   5.460  18.534  0.00  0.00    +0.000 C 
ENDROOT
BRANCH   1   2
ATOM      2  C   UNL     1       1.973   5.456  20.075  0.00  0.00    +0.000 C 
BRANCH   2   3
ATOM      3  C   UNL     1       1.335   4.234  20.779  0.00  0.00    +0.000 C 
BRANCH   3   4
ATOM      4  C   UNL     1       2.385   3.312  21.407  0.00  0.00    +0.000 C 
BRANCH   4   5
ATOM      5  O   UNL     1       2.914   2.464  20.451  0.00  0.00    +0.000 OA
BRANCH   5   6
ATOM      6  C   UNL     1       4.214   2.491  20.036  0.00  0.00    +0.000 C 
ATOM      7  O   UNL     1       5.066   1.828  20.614  0.00  0.00    +0.000 OA
BRANCH   6  12
ATOM      8  C   UNL     1       5.723   5.725  15.558  0.00  0.00    +0.000 C 
ATOM      9  N   UNL     1       5.347   4.903  16.707  0.00  0.00    +0.000 N 
ATOM     10  C   UNL     1       5.823   5.202  17.954  0.00  0.00    +0.000 A 
ATOM     11  C   UNL     1       5.464   4.424  19.053  0.00  0.00    +0.000 A 
ATOM     12  C   UNL     1       4.607   3.326  18.880  0.00  0.00    +0.000 A 
ATOM     13  C   UNL     1       4.132   3.034  17.594  0.00  0.00    +0.000 A 
ATOM     14  C   UNL     1       4.516   3.836  16.519  0.00  0.00    +0.000 A 
ENDBRANCH   6  12
ENDBRANCH   5   6
ENDBRANCH   4   5
ENDBRANCH   3   4
ENDBRANCH   2   3
ENDBRANCH   1   2
BRANCH   1  15
ATOM     15  C   UNL     1       2.476   6.697  17.904  0.00  0.00    +0.000 C 
BRANCH  15  16
ATOM     16  C   UNL     1       2.447   7.918  18.823  0.00  0.00    +0.000 C 
BRANCH  16  17
ATOM     17  C   UNL     1       1.225   8.776  18.466  0.00  0.00    +0.000 C 
BRANCH  17  18
ATOM     18  C   UNL     1       1.268  10.143  19.149  0.00  0.00    +0.000 C 
BRANCH  18  19
ATOM     19  N   UNL     1       0.699  10.073  20.500  0.00  0.00    +0.000 N 
ATOM     20  C   UNL     1       1.079   9.176  21.443  0.00  0.00    +0.000 A 
ATOM     21  C   UNL     1       0.358   9.363  22.612  0.00  0.00    +0.000 A 
ATOM     22  C   UNL     1      -0.489  10.417  22.362  0.00  0.00    +0.000 A 
ATOM     23  C   UNL     1      -1.430  11.025  23.189  0.00  0.00    +0.000 A 
ATOM     24  C   UNL     1      -2.165  12.101  22.668  0.00  0.00    +0.000 A 
ATOM     25  C   UNL     1      -1.942  12.544  21.346  0.00  0.00    +0.000 A 
ATOM     26  C   UNL     1      -0.979  11.915  20.533  0.00  0.00    +0.000 A 
ATOM     27  C   UNL     1      -0.262  10.838  21.072  0.00  0.00    +0.000 A 
ENDBRANCH  18  19
ENDBRANCH  17  18
ENDBRANCH  16  17
ENDBRANCH  15  16
ENDBRANCH   1  15
TORSDOF 11
ENDMDL
MODEL 7
REMARK VINA RESULT:      -6.5      3.004      8.610
REMARK  Name = 
REMARK  12 active torsions:
REMARK  status: ('A' for Active; 'I' for Inactive)
REMARK    1  A    between atoms: C_1  and  N_2
REMARK    2  A    between atoms: C_5  and  C_6
REMARK    3  A    between atoms: C_6  and  O_8
REMARK    4  A    between atoms: O_8  and  C_9
REMARK    5  A    between atoms: C_9  and  C_10
REMARK    6  A    between atoms: C_10  and  C_11
REMARK    7  A    between atoms: C_11  and  C_12
REMARK    8  A    between atoms: C_12  and  C_13
REMARK    9  A    between atoms: C_13  and  C_14
REMARK   10  A    between atoms: C_14  and  C_15
REMARK   11  A    between atoms: C_15  and  C_16
REMARK   12  A    between atoms: C_16  and  N_17
REMARK                            x       y       z     vdW  Elec       q    Type
REMARK                         _______ _______ _______ _____ _____    ______ ____
ROOT
ATOM      1  C   UNL     1       2.732   5.867  19.463  0.00  0.00    +0.000 C 
ENDROOT
BRANCH   1   2
ATOM      2  C   UNL     1       2.423   6.676  18.180  0.00  0.00    +0.000 C 
BRANCH   2   3
ATOM      3  C   UNL     1       2.960   8.127  18.191  0.00  0.00    +0.000 C 
BRANCH   3   4
ATOM      4  C   UNL     1       2.008   9.105  17.495  0.00  0.00    +0.000 C 
BRANCH   4   5
ATOM      5  O   UNL     1       0.754   9.052  18.078  0.00  0.00    +0.000 OA
BRANCH   5   6
ATOM      6  C   UNL     1       0.150  10.108  18.696  0.00  0.00    +0.000 C 
ATOM      7  O   UNL     1       0.726  10.723  19.585  0.00  0.00    +0.000 OA
BRANCH   6  12
ATOM      8  C   UNL     1      -5.131  11.692  17.151  0.00  0.00    +0.000 C 
ATOM      9  N   UNL     1      -3.782  11.297  17.552  0.00  0.00    +0.000 N 
ATOM     10  C   UNL     1      -3.202  11.852  18.659  0.00  0.00    +0.000 A 
ATOM     11  C   UNL     1      -1.916  11.475  19.047  0.00  0.00    +0.000 A 
ATOM     12  C   UNL     1      -1.213  10.520  18.297  0.00  0.00    +0.000 A 
ATOM     13  C   UNL     1      -1.824   9.966  17.164  0.00  0.00    +0.000 A 
ATOM     14  C   UNL     1      -3.111  10.370  16.807  0.00  0.00    +0.000 A 
ENDBRANCH   6  12
ENDBRANCH   5   6
ENDBRANCH   4   5
ENDBRANCH   3   4
ENDBRANCH   2   3
ENDBRANCH   1   2
BRANCH   1  15
ATOM     15  C   UNL     1       1.831   4.631  19.584  0.00  0.00    +0.000 C 
BRANCH  15  16
ATOM     16  C   UNL     1       2.253   3.493  18.656  0.00  0.00    +0.000 C 
BRANCH  16  17
ATOM     17  C   UNL     1       3.730   3.165  18.916  0.00  0.00    +0.000 C 
BRANCH  17  18
ATOM     18  C   UNL     1       4.516   2.997  17.617  0.00  0.00    +0.000 C 
BRANCH  18  19
ATOM     19  N   UNL     1       5.049   4.284  17.155  0.00  0.00    +0.000 N 
ATOM     20  C   UNL     1       4.617   4.935  16.047  0.00  0.00    +0.000 A 
ATOM     21  C   UNL     1       5.316   6.121  15.875  0.00  0.00    +0.000 A 
ATOM     22  C   UNL     1       6.203   6.184  16.925  0.00  0.00    +0.000 A 
ATOM     23  C   UNL     1       7.144   7.161  17.243  0.00  0.00    +0.000 A 
ATOM     24  C   UNL     1       7.926   6.968  18.392  0.00  0.00    +0.000 A 
ATOM     25  C   UNL     1       7.749   5.818  19.192  0.00  0.00    +0.000 A 
ATOM     26  C   UNL     1       6.786   4.849  18.850  0.00  0.00    +0.000 A 
ATOM     27  C   UNL     1       6.022   5.059  17.693  0.00  0.00    +0.000 A 
ENDBRANCH  18  19
ENDBRANCH  17  18
ENDBRANCH  16  17
ENDBRANCH  15  16
ENDBRANCH   1  15
TORSDOF 11
ENDMDL
MODEL 8
REMARK VINA RESULT:      -6.4      1.170      1.386
REMARK  Name = 
REMARK  12 active torsions:
REMARK  status: ('A' for Active; 'I' for Inactive)
REMARK    1  A    between atoms: C_1  and  N_2
REMARK    2  A    between atoms: C_5  and  C_6
REMARK    3  A    between atoms: C_6  and  O_8
REMARK    4  A    between atoms: O_8  and  C_9
REMARK    5  A    between atoms: C_9  and  C_10
REMARK    6  A    between atoms: C_10  and  C_11
REMARK    7  A    between atoms: C_11  and  C_12
REMARK    8  A    between atoms: C_12  and  C_13
REMARK    9  A    between atoms: C_13  and  C_14
REMARK   10  A    between atoms: C_14  and  C_15
REMARK   11  A    between atoms: C_15  and  C_16
REMARK   12  A    between atoms: C_16  and  N_17
REMARK                            x       y       z     vdW  Elec       q    Type
REMARK                         _______ _______ _______ _____ _____    ______ ____
ROOT
ATOM      1  C   UNL     1       1.901   6.256  18.789  0.00  0.00    +0.000 C 
ENDROOT
BRANCH   1   2
ATOM      2  C   UNL     1       1.670   5.885  20.274  0.00  0.00    +0.000 C 
BRANCH   2   3
ATOM      3  C   UNL     1       1.552   4.366  20.546  0.00  0.00    +0.000 C 
BRANCH   3   4
ATOM      4  C   UNL     1       1.378   3.558  19.256  0.00  0.00    +0.000 C 
BRANCH   4   5
ATOM      5  O   UNL     1       2.113   2.388  19.318  0.00  0.00    +0.000 OA
BRANCH   5   6
ATOM      6  C   UNL     1       3.319   2.206  18.706  0.00  0.00    +0.000 C 
ATOM      7  O   UNL     1       3.745   1.077  18.492  0.00  0.00    +0.000 OA
BRANCH   6  12
ATOM      8  C   UNL     1       6.435   6.737  17.111  0.00  0.00    +0.000 C 
ATOM      9  N   UNL     1       5.647   5.578  17.527  0.00  0.00    +0.000 N 
ATOM     10  C   UNL     1       5.751   5.096  18.802  0.00  0.00    +0.000 A 
ATOM     11  C   UNL     1       4.998   3.993  19.204  0.00  0.00    +0.000 A 
ATOM     12  C   UNL     1       4.127   3.374  18.295  0.00  0.00    +0.000 A 
ATOM     13  C   UNL     1       4.036   3.883  16.992  0.00  0.00    +0.000 A 
ATOM     14  C   UNL     1       4.807   4.987  16.627  0.00  0.00    +0.000 A 
ENDBRANCH   6  12
ENDBRANCH   5   6
ENDBRANCH   4   5
ENDBRANCH   3   4
ENDBRANCH   2   3
ENDBRANCH   1   2
BRANCH   1  15
ATOM     15  C   UNL     1       2.851   7.452  18.645  0.00  0.00    +0.000 C 
BRANCH  15  16
ATOM     16  C   UNL     1       2.383   8.461  17.597  0.00  0.00    +0.000 C 
BRANCH  16  17
ATOM     17  C   UNL     1       1.093   9.128  18.094  0.00  0.00    +0.000 C 
BRANCH  17  18
ATOM     18  C   UNL     1       1.300   9.854  19.422  0.00  0.00    +0.000 C 
BRANCH  18  19
ATOM     19  N   UNL     1       0.209  10.801  19.680  0.00  0.00    +0.000 N 
ATOM     20  C   UNL     1      -0.313  11.635  18.747  0.00  0.00    +0.000 A 
ATOM     21  C   UNL     1      -1.326  12.408  19.295  0.00  0.00    +0.000 A 
ATOM     22  C   UNL     1      -1.418  12.018  20.611  0.00  0.00    +0.000 A 
ATOM     23  C   UNL     1      -2.270  12.465  21.618  0.00  0.00    +0.000 A 
ATOM     24  C   UNL     1      -2.146  11.882  22.889  0.00  0.00    +0.000 A 
ATOM     25  C   UNL     1      -1.187  10.873  23.121  0.00  0.00    +0.000 A 
ATOM     26  C   UNL     1      -0.341  10.436  22.082  0.00  0.00    +0.000 A 
ATOM     27  C   UNL     1      -0.478  11.038  20.823  0.00  0.00    +0.000 A 
ENDBRANCH  18  19
ENDBRANCH  17  18
ENDBRANCH  16  17
ENDBRANCH  15  16
ENDBRANCH   1  15
TORSDOF 11
ENDMDL
MODEL 9
REMARK VINA RESULT:      -6.4      3.427      6.430
REMARK  Name = 
REMARK  12 active torsions:
REMARK  status: ('A' for Active; 'I' for Inactive)
REMARK    1  A    between atoms: C_1  and  N_2
REMARK    2  A    between atoms: C_5  and  C_6
REMARK    3  A    between atoms: C_6  and  O_8
REMARK    4  A    between atoms: O_8  and  C_9
REMARK    5  A    between atoms: C_9  and  C_10
REMARK    6  A    between atoms: C_10  and  C_11
REMARK    7  A    between atoms: C_11  and  C_12
REMARK    8  A    between atoms: C_12  and  C_13
REMARK    9  A    between atoms: C_13  and  C_14
REMARK   10  A    between atoms: C_14  and  C_15
REMARK   11  A    between atoms: C_15  and  C_16
REMARK   12  A    between atoms: C_16  and  N_17
REMARK                            x       y       z     vdW  Elec       q    Type
REMARK                         _______ _______ _______ _____ _____    ______ ____
ROOT
ATOM      1  C   UNL     1       3.488   8.078  17.736  0.00  0.00    +0.000 C 
ENDROOT
BRANCH   1   2
ATOM      2  C   UNL     1       4.081   6.794  17.107  0.00  0.00    +0.000 C 
BRANCH   2   3
ATOM      3  C   UNL     1       5.226   6.149  17.925  0.00  0.00    +0.000 C 
BRANCH   3   4
ATOM      4  C   UNL     1       6.577   6.823  17.665  0.00  0.00    +0.000 C 
BRANCH   4   5
ATOM      5  O   UNL     1       7.080   6.434  16.436  0.00  0.00    +0.000 OA
BRANCH   5   6
ATOM      6  C   UNL     1       7.313   5.138  16.078  0.00  0.00    +0.000 C 
ATOM      7  O   UNL     1       8.047   4.427  16.753  0.00  0.00    +0.000 OA
BRANCH   6  12
ATOM      8  C   UNL     1       4.872   2.964  11.376  0.00  0.00    +0.000 C 
ATOM      9  N   UNL     1       5.485   3.520  12.581  0.00  0.00    +0.000 N 
ATOM     10  C   UNL     1       4.784   3.562  13.754  0.00  0.00    +0.000 A 
ATOM     11  C   UNL     1       5.366   4.089  14.907  0.00  0.00    +0.000 A 
ATOM     12  C   UNL     1       6.680   4.579  14.864  0.00  0.00    +0.000 A 
ATOM     13  C   UNL     1       7.380   4.530  13.651  0.00  0.00    +0.000 A 
ATOM     14  C   UNL     1       6.763   3.997  12.518  0.00  0.00    +0.000 A 
ENDBRANCH   6  12
ENDBRANCH   5   6
ENDBRANCH   4   5
ENDBRANCH   3   4
ENDBRANCH   2   3
ENDBRANCH   1   2
BRANCH   1  15
ATOM     15  C   UNL     1       2.008   7.900  18.098  0.00  0.00    +0.000 C 
BRANCH  15  16
ATOM     16  C   UNL     1       1.715   8.192  19.569  0.00  0.00    +0.000 C 
BRANCH  16  17
ATOM     17  C   UNL     1       2.270   7.043  20.422  0.00  0.00    +0.000 C 
BRANCH  17  18
ATOM     18  C   UNL     1       1.233   5.943  20.645  0.00  0.00    +0.000 C 
BRANCH  18  19
ATOM     19  N   UNL     1       1.848   4.614  20.545  0.00  0.00    +0.000 N 
ATOM     20  C   UNL     1       2.210   3.859  21.611  0.00  0.00    +0.000 A 
ATOM     21  C   UNL     1       2.764   2.658  21.193  0.00  0.00    +0.000 A 
ATOM     22  C   UNL     1       2.730   2.693  19.819  0.00  0.00    +0.000 A 
ATOM     23  C   UNL     1       3.156   1.747  18.889  0.00  0.00    +0.000 A 
ATOM     24  C   UNL     1       2.997   2.047  17.527  0.00  0.00    +0.000 A 
ATOM     25  C   UNL     1       2.417   3.272  17.129  0.00  0.00    +0.000 A 
ATOM     26  C   UNL     1       1.990   4.208  18.091  0.00  0.00    +0.000 A 
ATOM     27  C   UNL     1       2.166   3.890  19.445  0.00  0.00    +0.000 A 
ENDBRANCH  18  19
ENDBRANCH  17  18
ENDBRANCH  16  17
ENDBRANCH  15  16
ENDBRANCH   1  15
TORSDOF 11
ENDMDL
