MODEL 1
REMARK VINA RESULT:      -7.6      0.000      0.000
REMARK  Name = 
REMARK  9 active torsions:
REMARK  status: ('A' for Active; 'I' for Inactive)
REMARK    1  A    between atoms: C_1  and  C_2
REMARK    2  A    between atoms: C_2  and  N_3
REMARK    3  A    between atoms: C_7  and  S_8
REMARK    4  A    between atoms: S_8  and  C_9
REMARK    5  A    between atoms: C_9  and  C_10
REMARK    6  A    between atoms: C_14  and  O_15
REMARK    7  A    between atoms: O_15  and  C_16
REMARK    8  A    between atoms: N_18  and  C_19
REMARK    9  A    between atoms: C_19  and  C_20
REMARK                            x       y       z     vdW  Elec       q    Type
REMARK                         _______ _______ _______ _____ _____    ______ ____
ROOT
ATOM      1  N   UNL     1       3.852   5.540  18.598  0.00  0.00    +0.000 N 
ATOM      2  C   UNL     1       3.259   5.579  19.835  0.00  0.00    +0.000 A 
ATOM      3  C   UNL     1       2.456   6.687  19.812  0.00  0.00    +0.000 A 
ATOM      4  N   UNL     1       1.563   7.152  20.786  0.00  0.00    +0.000 NA
ATOM      5  C   UNL     1       0.951   8.258  20.468  0.00  0.00    +0.000 A 
ATOM      6  N   UNL     1       1.160   8.994  19.256  0.00  0.00    +0.000 N 
ATOM      7  C   UNL     1       2.051   8.549  18.242  0.00  0.00    +0.000 A 
ATOM      8  O   UNL     1       2.306   9.167  17.209  0.00  0.00    +0.000 OA
ATOM      9  C   UNL     1       2.687   7.301  18.580  0.00  0.00    +0.000 A 
ATOM     10  N   UNL     1       3.551   6.604  17.824  0.00  0.00    +0.000 NA
ENDROOT
BRANCH   1  12
ATOM     11  C   UNL     1       4.235   4.061  16.666  0.00  0.00    +0.000 C 
ATOM     12  C   UNL     1       4.680   4.472  18.061  0.00  0.00    +0.000 C 
ENDBRANCH   1  12
BRANCH   5  13
ATOM     13  S   UNL     1      -0.204   8.935  21.665  0.00  0.00    +0.000 S 
BRANCH  13  14
ATOM     14  C   UNL     1       0.382  10.632  22.176  0.00  0.00    +0.000 C 
BRANCH  14  15
ATOM     15  C   UNL     1      -0.716  11.673  22.564  0.00  0.00    +0.000 A 
ATOM     16  C   UNL     1      -0.542  13.056  22.286  0.00  0.00    +0.000 A 
ATOM     17  C   UNL     1      -1.554  14.010  22.556  0.00  0.00    +0.000 A 
ATOM     18  C   UNL     1      -2.748  13.619  23.143  0.00  0.00    +0.000 A 
ATOM     19  C   UNL     1      -2.927  12.277  23.478  0.00  0.00    +0.000 A 
ATOM     20  C   UNL     1      -1.935  11.327  23.165  0.00  0.00    +0.000 A 
BRANCH  19  21
ATOM     21  O   UNL     1      -4.113  11.971  24.088  0.00  0.00    +0.000 OA
ATOM     22  C   UNL     1      -5.078  13.019  24.005  0.00  0.00    +0.000 C 
ENDBRANCH  19  21
ENDBRANCH  14  15
ENDBRANCH  13  14
ENDBRANCH   5  13
BRANCH   6  23
ATOM     23  C   UNL     1       0.674  10.349  18.998  0.00  0.00    +0.000 C 
BRANCH  23  24
ATOM     24  C   UNL     1      -0.769  10.464  18.538  0.00  0.00    +0.000 A 
ATOM     25  C   UNL     1      -1.601  11.414  19.148  0.00  0.00    +0.000 A 
ATOM     26  C   UNL     1      -2.867  11.694  18.631  0.00  0.00    +0.000 A 
ATOM     27  C   UNL     1      -3.324  11.020  17.502  0.00  0.00    +0.000 A 
ATOM     28 CL   UNL     1      -4.837  11.451  16.808  0.00  0.00    +0.000 Cl
ATOM     29  C   UNL     1      -2.539  10.035  16.911  0.00  0.00    +0.000 A 
ATOM     30  C   UNL     1      -1.267   9.755  17.428  0.00  0.00    +0.000 A 
ENDBRANCH  23  24
ENDBRANCH   6  23
TORSDOF 7
ENDMDL
MODEL 2
REMARK VINA RESULT:      -7.0      7.093      9.059
REMARK  Name = 
REMARK  9 active torsions:
REMARK  status: ('A' for Active; 'I' for Inactive)
REMARK    1  A    between atoms: C_1  and  C_2
REMARK    2  A    between atoms: C_2  and  N_3
REMARK    3  A    between atoms: C_7  and  S_8
REMARK    4  A    between atoms: S_8  and  C_9
REMARK    5  A    between atoms: C_9  and  C_10
REMARK    6  A    between atoms: C_14  and  O_15
REMARK    7  A    between atoms: O_15  and  C_16
REMARK    8  A    between atoms: N_18  and  C_19
REMARK    9  A    between atoms: C_19  and  C_20
REMARK                            x       y       z     vdW  Elec       q    Type
REMARK                         _______ _______ _______ _____ _____    ______ ____
ROOT
ATOM      1  N   UNL     1       6.202   3.920  13.426  0.00  0.00    +0.000 N 
ATOM      2  C   UNL     1       7.242   4.719  13.836  0.00  0.00    +0.000 A 
ATOM      3  C   UNL     1       6.859   5.204  15.057  0.00  0.00    +0.000 A 
ATOM      4  N   UNL     1       7.579   6.002  15.955  0.00  0.00    +0.000 NA
ATOM      5  C   UNL     1       6.925   6.314  17.038  0.00  0.00    +0.000 A 
ATOM      6  N   UNL     1       5.573   5.929  17.321  0.00  0.00    +0.000 N 
ATOM      7  C   UNL     1       4.816   5.114  16.439  0.00  0.00    +0.000 A 
ATOM      8  O   UNL     1       3.638   4.798  16.608  0.00  0.00    +0.000 OA
ATOM      9  C   UNL     1       5.562   4.733  15.267  0.00  0.00    +0.000 A 
ATOM     10  N   UNL     1       5.145   3.943  14.264  0.00  0.00    +0.000 NA
ENDROOT
BRANCH   1  12
ATOM     11  C   UNL     1       4.810   3.040  11.595  0.00  0.00    +0.000 C 
ATOM     12  C   UNL     1       6.177   3.051  12.260  0.00  0.00    +0.000 C 
ENDBRANCH   1  12
BRANCH   5  13
ATOM     13  S   UNL     1       7.766   7.349  18.241  0.00  0.00    +0.000 S 
BRANCH  13  14
ATOM     14  C   UNL     1       8.349   8.907  17.395  0.00  0.00    +0.000 C 
BRANCH  14  15
ATOM     15  C   UNL     1       8.723  10.113  18.315  0.00  0.00    +0.000 A 
ATOM     16  C   UNL     1       9.198   9.903  19.638  0.00  0.00    +0.000 A 
ATOM     17  C   UNL     1       9.617  10.974  20.466  0.00  0.00    +0.000 A 
ATOM     18  C   UNL     1       9.539  12.282  20.012  0.00  0.00    +0.000 A 
ATOM     19  C   UNL     1       9.025  12.525  18.740  0.00  0.00    +0.000 A 
ATOM     20  C   UNL     1       8.653  11.453  17.906  0.00  0.00    +0.000 A 
BRANCH  19  21
ATOM     21  O   UNL     1       8.942  13.842  18.374  0.00  0.00    +0.000 OA
ATOM     22  C   UNL     1       7.642  14.224  17.930  0.00  0.00    +0.000 C 
ENDBRANCH  19  21
ENDBRANCH  14  15
ENDBRANCH  13  14
ENDBRANCH   5  13
BRANCH   6  23
ATOM     23  C   UNL     1       4.752   6.472  18.403  0.00  0.00    +0.000 C 
BRANCH  23  24
ATOM     24  C   UNL     1       4.093   5.454  19.317  0.00  0.00    +0.000 A 
ATOM     25  C   UNL     1       2.878   5.784  19.934  0.00  0.00    +0.000 A 
ATOM     26  C   UNL     1       2.138   4.820  20.621  0.00  0.00    +0.000 A 
ATOM     27  C   UNL     1       2.609   3.512  20.709  0.00  0.00    +0.000 A 
ATOM     28 CL   UNL     1       1.639   2.307  21.459  0.00  0.00    +0.000 Cl
ATOM     29  C   UNL     1       3.838   3.173  20.152  0.00  0.00    +0.000 A 
ATOM     30  C   UNL     1       4.580   4.141  19.461  0.00  0.00    +0.000 A 
ENDBRANCH  23  24
ENDBRANCH   6  23
TORSDOF 7
ENDMDL
MODEL 3
REMARK VINA RESULT:      -7.0      5.689      8.514
REMARK  Name = 
REMARK  9 active torsions:
REMARK  status: ('A' for Active; 'I' for Inactive)
REMARK    1  A    between atoms: C_1  and  C_2
REMARK    2  A    between atoms: C_2  and  N_3
REMARK    3  A    between atoms: C_7  and  S_8
REMARK    4  A    between atoms: S_8  and  C_9
REMARK    5  A    between atoms: C_9  and  C_10
REMARK    6  A    between atoms: C_14  and  O_15
REMARK    7  A    between atoms: O_15  and  C_16
REMARK    8  A    between atoms: N_18  and  C_19
REMARK    9  A    between atoms: C_19  and  C_20
REMARK                            x       y       z     vdW  Elec       q    Type
REMARK                         _______ _______ _______ _____ _____    ______ ____
ROOT
ATOM      1  N   UNL     1       6.051   3.775  13.356  0.00  0.00    +0.000 N 
ATOM      2  C   UNL     1       6.907   4.793  13.700  0.00  0.00    +0.000 A 
ATOM      3  C   UNL     1       6.649   5.046  15.020  0.00  0.00    +0.000 A 
ATOM      4  N   UNL     1       7.294   5.933  15.891  0.00  0.00    +0.000 NA
ATOM      5  C   UNL     1       6.797   5.957  17.096  0.00  0.00    +0.000 A 
ATOM      6  N   UNL     1       5.670   5.189  17.535  0.00  0.00    +0.000 N 
ATOM      7  C   UNL     1       4.997   4.273  16.683  0.00  0.00    +0.000 A 
ATOM      8  O   UNL     1       3.995   3.629  16.992  0.00  0.00    +0.000 OA
ATOM      9  C   UNL     1       5.582   4.216  15.367  0.00  0.00    +0.000 A 
ATOM     10  N   UNL     1       5.201   3.431  14.347  0.00  0.00    +0.000 NA
ENDROOT
BRANCH   1  12
ATOM     11  C   UNL     1       7.432   2.853  11.536  0.00  0.00    +0.000 C 
ATOM     12  C   UNL     1       6.033   3.036  12.104  0.00  0.00    +0.000 C 
ENDBRANCH   1  12
BRANCH   5  13
ATOM     13  S   UNL     1       7.553   7.078  18.278  0.00  0.00    +0.000 S 
BRANCH  13  14
ATOM     14  C   UNL     1       8.293   8.521  17.354  0.00  0.00    +0.000 C 
BRANCH  14  15
ATOM     15  C   UNL     1       8.629   9.798  18.189  0.00  0.00    +0.000 A 
ATOM     16  C   UNL     1       9.153   9.692  19.506  0.00  0.00    +0.000 A 
ATOM     17  C   UNL     1       9.538  10.831  20.256  0.00  0.00    +0.000 A 
ATOM     18  C   UNL     1       9.378  12.104  19.730  0.00  0.00    +0.000 A 
ATOM     19  C   UNL     1       8.814  12.243  18.462  0.00  0.00    +0.000 A 
ATOM     20  C   UNL     1       8.476  11.105  17.704  0.00  0.00    +0.000 A 
BRANCH  19  21
ATOM     21  O   UNL     1       8.652  13.530  18.023  0.00  0.00    +0.000 OA
ATOM     22  C   UNL     1       8.378  14.454  19.074  0.00  0.00    +0.000 C 
ENDBRANCH  19  21
ENDBRANCH  14  15
ENDBRANCH  13  14
ENDBRANCH   5  13
BRANCH   6  23
ATOM     23  C   UNL     1       4.955   5.387  18.796  0.00  0.00    +0.000 C 
BRANCH  23  24
ATOM     24  C   UNL     1       3.782   6.352  18.754  0.00  0.00    +0.000 A 
ATOM     25  C   UNL     1       2.900   6.392  19.843  0.00  0.00    +0.000 A 
ATOM     26  C   UNL     1       1.929   7.391  19.942  0.00  0.00    +0.000 A 
ATOM     27  C   UNL     1       1.821   8.358  18.945  0.00  0.00    +0.000 A 
ATOM     28 CL   UNL     1       0.697   9.647  19.129  0.00  0.00    +0.000 Cl
ATOM     29  C   UNL     1       2.649   8.307  17.829  0.00  0.00    +0.000 A 
ATOM     30  C   UNL     1       3.624   7.305  17.731  0.00  0.00    +0.000 A 
ENDBRANCH  23  24
ENDBRANCH   6  23
TORSDOF 7
ENDMDL
MODEL 4
REMARK VINA RESULT:      -6.6      3.737      7.624
REMARK  Name = 
REMARK  9 active torsions:
REMARK  status: ('A' for Active; 'I' for Inactive)
REMARK    1  A    between atoms: C_1  and  C_2
REMARK    2  A    between atoms: C_2  and  N_3
REMARK    3  A    between atoms: C_7  and  S_8
REMARK    4  A    between atoms: S_8  and  C_9
REMARK    5  A    between atoms: C_9  and  C_10
REMARK    6  A    between atoms: C_14  and  O_15
REMARK    7  A    between atoms: O_15  and  C_16
REMARK    8  A    between atoms: N_18  and  C_19
REMARK    9  A    between atoms: C_19  and  C_20
REMARK                            x       y       z     vdW  Elec       q    Type
REMARK                         _______ _______ _______ _____ _____    ______ ____
ROOT
ATOM      1  N   UNL     1       3.546  15.389  18.902  0.00  0.00    +0.000 N 
ATOM      2  C   UNL     1       3.516  14.227  18.171  0.00  0.00    +0.000 A 
ATOM      3  C   UNL     1       2.631  13.415  18.827  0.00  0.00    +0.000 A 
ATOM      4  N   UNL     1       2.164  12.145  18.467  0.00  0.00    +0.000 NA
ATOM      5  C   UNL     1       1.330  11.619  19.320  0.00  0.00    +0.000 A 
ATOM      6  N   UNL     1       0.919  12.228  20.550  0.00  0.00    +0.000 N 
ATOM      7  C   UNL     1       1.365  13.519  20.944  0.00  0.00    +0.000 A 
ATOM      8  O   UNL     1       1.085  14.065  22.010  0.00  0.00    +0.000 OA
ATOM      9  C   UNL     1       2.248  14.114  19.973  0.00  0.00    +0.000 A 
ATOM     10  N   UNL     1       2.811  15.332  20.032  0.00  0.00    +0.000 NA
ENDROOT
BRANCH   1  12
ATOM     11  C   UNL     1       5.456  16.865  19.392  0.00  0.00    +0.000 C 
ATOM     12  C   UNL     1       4.217  16.628  18.543  0.00  0.00    +0.000 C 
ENDBRANCH   1  12
BRANCH   5  13
ATOM     13  S   UNL     1       0.689   9.983  18.946  0.00  0.00    +0.000 S 
BRANCH  13  14
ATOM     14  C   UNL     1       1.835   9.150  17.730  0.00  0.00    +0.000 C 
BRANCH  14  15
ATOM     15  C   UNL     1       2.531   7.834  18.202  0.00  0.00    +0.000 A 
ATOM     16  C   UNL     1       3.674   7.328  17.523  0.00  0.00    +0.000 A 
ATOM     17  C   UNL     1       4.370   6.181  17.976  0.00  0.00    +0.000 A 
ATOM     18  C   UNL     1       3.928   5.487  19.092  0.00  0.00    +0.000 A 
ATOM     19  C   UNL     1       2.778   5.926  19.747  0.00  0.00    +0.000 A 
ATOM     20  C   UNL     1       2.117   7.093  19.318  0.00  0.00    +0.000 A 
BRANCH  19  21
ATOM     21  O   UNL     1       2.379   5.170  20.817  0.00  0.00    +0.000 OA
ATOM     22  C   UNL     1       1.222   4.379  20.549  0.00  0.00    +0.000 C 
ENDBRANCH  19  21
ENDBRANCH  14  15
ENDBRANCH  13  14
ENDBRANCH   5  13
BRANCH   6  23
ATOM     23  C   UNL     1       0.189  11.553  21.623  0.00  0.00    +0.000 C 
BRANCH  23  24
ATOM     24  C   UNL     1      -1.219  12.056  21.892  0.00  0.00    +0.000 A 
ATOM     25  C   UNL     1      -2.012  12.463  20.810  0.00  0.00    +0.000 A 
ATOM     26  C   UNL     1      -3.369  12.744  20.982  0.00  0.00    +0.000 A 
ATOM     27  C   UNL     1      -3.950  12.631  22.242  0.00  0.00    +0.000 A 
ATOM     28 CL   UNL     1      -5.643  12.870  22.423  0.00  0.00    +0.000 Cl
ATOM     29  C   UNL     1      -3.172  12.281  23.341  0.00  0.00    +0.000 A 
ATOM     30  C   UNL     1      -1.810  11.997  23.169  0.00  0.00    +0.000 A 
ENDBRANCH  23  24
ENDBRANCH   6  23
TORSDOF 7
ENDMDL
MODEL 5
REMARK VINA RESULT:      -6.6      1.335      1.943
REMARK  Name = 
REMARK  9 active torsions:
REMARK  status: ('A' for Active; 'I' for Inactive)
REMARK    1  A    between atoms: C_1  and  C_2
REMARK    2  A    between atoms: C_2  and  N_3
REMARK    3  A    between atoms: C_7  and  S_8
REMARK    4  A    between atoms: S_8  and  C_9
REMARK    5  A    between atoms: C_9  and  C_10
REMARK    6  A    between atoms: C_14  and  O_15
REMARK    7  A    between atoms: O_15  and  C_16
REMARK    8  A    between atoms: N_18  and  C_19
REMARK    9  A    between atoms: C_19  and  C_20
REMARK                            x       y       z     vdW  Elec       q    Type
REMARK                         _______ _______ _______ _____ _____    ______ ____
ROOT
ATOM      1  N   UNL     1       4.312   6.230  17.645  0.00  0.00    +0.000 N 
ATOM      2  C   UNL     1       3.759   5.917  18.862  0.00  0.00    +0.000 A 
ATOM      3  C   UNL     1       2.845   6.906  19.104  0.00  0.00    +0.000 A 
ATOM      4  N   UNL     1       1.941   7.033  20.166  0.00  0.00    +0.000 NA
ATOM      5  C   UNL     1       1.207   8.109  20.120  0.00  0.00    +0.000 A 
ATOM      6  N   UNL     1       1.300   9.124  19.113  0.00  0.00    +0.000 N 
ATOM      7  C   UNL     1       2.198   9.026  18.017  0.00  0.00    +0.000 A 
ATOM      8  O   UNL     1       2.354   9.890  17.155  0.00  0.00    +0.000 OA
ATOM      9  C   UNL     1       2.971   7.810  18.048  0.00  0.00    +0.000 A 
ATOM     10  N   UNL     1       3.877   7.405  17.144  0.00  0.00    +0.000 NA
ENDROOT
BRANCH   1  12
ATOM     11  C   UNL     1       6.671   5.861  17.040  0.00  0.00    +0.000 C 
ATOM     12  C   UNL     1       5.229   5.412  16.867  0.00  0.00    +0.000 C 
ENDBRANCH   1  12
BRANCH   5  13
ATOM     13  S   UNL     1       0.028   8.361  21.451  0.00  0.00    +0.000 S 
BRANCH  13  14
ATOM     14  C   UNL     1       0.603   9.791  22.505  0.00  0.00    +0.000 C 
BRANCH  14  15
ATOM     15  C   UNL     1      -0.322  11.049  22.557  0.00  0.00    +0.000 A 
ATOM     16  C   UNL     1      -1.614  10.981  23.147  0.00  0.00    +0.000 A 
ATOM     17  C   UNL     1      -2.442  12.123  23.276  0.00  0.00    +0.000 A 
ATOM     18  C   UNL     1      -2.022  13.352  22.789  0.00  0.00    +0.000 A 
ATOM     19  C   UNL     1      -0.783  13.439  22.156  0.00  0.00    +0.000 A 
ATOM     20  C   UNL     1       0.054  12.309  22.071  0.00  0.00    +0.000 A 
BRANCH  19  21
ATOM     21  O   UNL     1      -0.451  14.674  21.667  0.00  0.00    +0.000 OA
ATOM     22  C   UNL     1      -0.265  14.690  20.253  0.00  0.00    +0.000 C 
ENDBRANCH  19  21
ENDBRANCH  14  15
ENDBRANCH  13  14
ENDBRANCH   5  13
BRANCH   6  23
ATOM     23  C   UNL     1       0.667  10.441  19.183  0.00  0.00    +0.000 C 
BRANCH  23  24
ATOM     24  C   UNL     1      -0.739  10.538  18.615  0.00  0.00    +0.000 A 
ATOM     25  C   UNL     1      -1.627  11.475  19.161  0.00  0.00    +0.000 A 
ATOM     26  C   UNL     1      -2.855  11.740  18.551  0.00  0.00    +0.000 A 
ATOM     27  C   UNL     1      -3.215  11.062  17.389  0.00  0.00    +0.000 A 
ATOM     28 CL   UNL     1      -4.678  11.473  16.584  0.00  0.00    +0.000 Cl
ATOM     29  C   UNL     1      -2.374  10.089  16.858  0.00  0.00    +0.000 A 
ATOM     30  C   UNL     1      -1.142   9.824  17.470  0.00  0.00    +0.000 A 
ENDBRANCH  23  24
ENDBRANCH   6  23
TORSDOF 7
ENDMDL
MODEL 6
REMARK VINA RESULT:      -6.5      0.965      1.386
REMARK  Name = 
REMARK  9 active torsions:
REMARK  status: ('A' for Active; 'I' for Inactive)
REMARK    1  A    between atoms: C_1  and  C_2
REMARK    2  A    between atoms: C_2  and  N_3
REMARK    3  A    between atoms: C_7  and  S_8
REMARK    4  A    between atoms: S_8  and  C_9
REMARK    5  A    between atoms: C_9  and  C_10
REMARK    6  A    between atoms: C_14  and  O_15
REMARK    7  A    between atoms: O_15  and  C_16
REMARK    8  A    between atoms: N_18  and  C_19
REMARK    9  A    between atoms: C_19  and  C_20
REMARK                            x       y       z     vdW  Elec       q    Type
REMARK                         _______ _______ _______ _____ _____    ______ ____
ROOT
ATOM      1  N   UNL     1       3.355   6.009  19.079  0.00  0.00    +0.000 N 
ATOM      2  C   UNL     1       2.783   6.236  20.307  0.00  0.00    +0.000 A 
ATOM      3  C   UNL     1       2.018   7.359  20.142  0.00  0.00    +0.000 A 
ATOM      4  N   UNL     1       1.156   7.982  21.054  0.00  0.00    +0.000 NA
ATOM      5  C   UNL     1       0.576   9.056  20.596  0.00  0.00    +0.000 A 
ATOM      6  N   UNL     1       0.792   9.614  19.293  0.00  0.00    +0.000 N 
ATOM      7  C   UNL     1       1.651   9.005  18.340  0.00  0.00    +0.000 A 
ATOM      8  O   UNL     1       1.910   9.468  17.229  0.00  0.00    +0.000 OA
ATOM      9  C   UNL     1       2.249   7.792  18.836  0.00  0.00    +0.000 A 
ATOM     10  N   UNL     1       3.078   6.969  18.172  0.00  0.00    +0.000 NA
ENDROOT
BRANCH   1  12
ATOM     11  C   UNL     1       5.593   4.980  19.107  0.00  0.00    +0.000 C 
ATOM     12  C   UNL     1       4.138   4.850  18.683  0.00  0.00    +0.000 C 
ENDBRANCH   1  12
BRANCH   5  13
ATOM     13  S   UNL     1      -0.536   9.929  21.703  0.00  0.00    +0.000 S 
BRANCH  13  14
ATOM     14  C   UNL     1       0.071  11.683  21.910  0.00  0.00    +0.000 C 
BRANCH  14  15
ATOM     15  C   UNL     1      -0.931  12.709  22.527  0.00  0.00    +0.000 A 
ATOM     16  C   UNL     1      -0.531  14.046  22.801  0.00  0.00    +0.000 A 
ATOM     17  C   UNL     1      -1.440  15.017  23.289  0.00  0.00    +0.000 A 
ATOM     18  C   UNL     1      -2.758  14.676  23.550  0.00  0.00    +0.000 A 
ATOM     19  C   UNL     1      -3.167  13.359  23.344  0.00  0.00    +0.000 A 
ATOM     20  C   UNL     1      -2.271  12.410  22.816  0.00  0.00    +0.000 A 
BRANCH  19  21
ATOM     21  O   UNL     1      -4.471  13.086  23.659  0.00  0.00    +0.000 OA
ATOM     22  C   UNL     1      -4.610  12.211  24.776  0.00  0.00    +0.000 C 
ENDBRANCH  19  21
ENDBRANCH  14  15
ENDBRANCH  13  14
ENDBRANCH   5  13
BRANCH   6  23
ATOM     23  C   UNL     1       0.347  10.938  18.860  0.00  0.00    +0.000 C 
BRANCH  23  24
ATOM     24  C   UNL     1      -1.124  11.065  18.502  0.00  0.00    +0.000 A 
ATOM     25  C   UNL     1      -1.719  10.068  17.718  0.00  0.00    +0.000 A 
ATOM     26  C   UNL     1      -3.102  10.035  17.528  0.00  0.00    +0.000 A 
ATOM     27  C   UNL     1      -3.909  11.007  18.113  0.00  0.00    +0.000 A 
ATOM     28 CL   UNL     1      -5.619  10.896  17.966  0.00  0.00    +0.000 Cl
ATOM     29  C   UNL     1      -3.337  12.038  18.851  0.00  0.00    +0.000 A 
ATOM     30  C   UNL     1      -1.949  12.070  19.043  0.00  0.00    +0.000 A 
ENDBRANCH  23  24
ENDBRANCH   6  23
TORSDOF 7
ENDMDL
MODEL 7
REMARK VINA RESULT:      -6.5      6.298      9.039
REMARK  Name = 
REMARK  9 active torsions:
REMARK  status: ('A' for Active; 'I' for Inactive)
REMARK    1  A    between atoms: C_1  and  C_2
REMARK    2  A    between atoms: C_2  and  N_3
REMARK    3  A    between atoms: C_7  and  S_8
REMARK    4  A    between atoms: S_8  and  C_9
REMARK    5  A    between atoms: C_9  and  C_10
REMARK    6  A    between atoms: C_14  and  O_15
REMARK    7  A    between atoms: O_15  and  C_16
REMARK    8  A    between atoms: N_18  and  C_19
REMARK    9  A    between atoms: C_19  and  C_20
REMARK                            x       y       z     vdW  Elec       q    Type
REMARK                         _______ _______ _______ _____ _____    ______ ____
ROOT
ATOM      1  N   UNL     1       5.839   3.859  13.436  0.00  0.00    +0.000 N 
ATOM      2  C   UNL     1       6.600   4.969  13.707  0.00  0.00    +0.000 A 
ATOM      3  C   UNL     1       6.580   5.092  15.070  0.00  0.00    +0.000 A 
ATOM      4  N   UNL     1       7.261   6.006  15.884  0.00  0.00    +0.000 NA
ATOM      5  C   UNL     1       7.018   5.873  17.158  0.00  0.00    +0.000 A 
ATOM      6  N   UNL     1       6.116   4.916  17.727  0.00  0.00    +0.000 N 
ATOM      7  C   UNL     1       5.415   3.968  16.934  0.00  0.00    +0.000 A 
ATOM      8  O   UNL     1       4.592   3.161  17.364  0.00  0.00    +0.000 OA
ATOM      9  C   UNL     1       5.727   4.089  15.532  0.00  0.00    +0.000 A 
ATOM     10  N   UNL     1       5.259   3.325  14.532  0.00  0.00    +0.000 NA
ENDROOT
BRANCH   1  12
ATOM     11  C   UNL     1       6.985   2.667  11.611  0.00  0.00    +0.000 C 
ATOM     12  C   UNL     1       5.669   3.211  12.145  0.00  0.00    +0.000 C 
ENDBRANCH   1  12
BRANCH   5  13
ATOM     13  S   UNL     1       7.838   7.013  18.278  0.00  0.00    +0.000 S 
BRANCH  13  14
ATOM     14  C   UNL     1       7.778   8.729  17.543  0.00  0.00    +0.000 C 
BRANCH  14  15
ATOM     15  C   UNL     1       8.538   9.855  18.315  0.00  0.00    +0.000 A 
ATOM     16  C   UNL     1       9.012   9.641  19.638  0.00  0.00    +0.000 A 
ATOM     17  C   UNL     1       9.770  10.617  20.331  0.00  0.00    +0.000 A 
ATOM     18  C   UNL     1      10.044  11.841  19.741  0.00  0.00    +0.000 A 
ATOM     19  C   UNL     1       9.546  12.102  18.465  0.00  0.00    +0.000 A 
ATOM     20  C   UNL     1       8.832  11.111  17.764  0.00  0.00    +0.000 A 
BRANCH  19  21
ATOM     21  O   UNL     1       9.824  13.344  17.962  0.00  0.00    +0.000 OA
ATOM     22  C   UNL     1      10.784  14.064  18.733  0.00  0.00    +0.000 C 
ENDBRANCH  19  21
ENDBRANCH  14  15
ENDBRANCH  13  14
ENDBRANCH   5  13
BRANCH   6  23
ATOM     23  C   UNL     1       5.648   4.919  19.113  0.00  0.00    +0.000 C 
BRANCH  23  24
ATOM     24  C   UNL     1       4.266   5.503  19.351  0.00  0.00    +0.000 A 
ATOM     25  C   UNL     1       3.407   4.864  20.255  0.00  0.00    +0.000 A 
ATOM     26  C   UNL     1       2.211   5.465  20.655  0.00  0.00    +0.000 A 
ATOM     27  C   UNL     1       1.854   6.711  20.146  0.00  0.00    +0.000 A 
ATOM     28 CL   UNL     1       0.437   7.492  20.728  0.00  0.00    +0.000 Cl
ATOM     29  C   UNL     1       2.663   7.340  19.206  0.00  0.00    +0.000 A 
ATOM     30  C   UNL     1       3.864   6.738  18.806  0.00  0.00    +0.000 A 
ENDBRANCH  23  24
ENDBRANCH   6  23
TORSDOF 7
ENDMDL
MODEL 8
REMARK VINA RESULT:      -6.4      1.171      1.952
REMARK  Name = 
REMARK  9 active torsions:
REMARK  status: ('A' for Active; 'I' for Inactive)
REMARK    1  A    between atoms: C_1  and  C_2
REMARK    2  A    between atoms: C_2  and  N_3
REMARK    3  A    between atoms: C_7  and  S_8
REMARK    4  A    between atoms: S_8  and  C_9
REMARK    5  A    between atoms: C_9  and  C_10
REMARK    6  A    between atoms: C_14  and  O_15
REMARK    7  A    between atoms: O_15  and  C_16
REMARK    8  A    between atoms: N_18  and  C_19
REMARK    9  A    between atoms: C_19  and  C_20
REMARK                            x       y       z     vdW  Elec       q    Type
REMARK                         _______ _______ _______ _____ _____    ______ ____
ROOT
ATOM      1  N   UNL     1       3.347   5.163  19.096  0.00  0.00    +0.000 N 
ATOM      2  C   UNL     1       2.631   5.344  20.254  0.00  0.00    +0.000 A 
ATOM      3  C   UNL     1       2.011   6.556  20.105  0.00  0.00    +0.000 A 
ATOM      4  N   UNL     1       1.094   7.189  20.954  0.00  0.00    +0.000 NA
ATOM      5  C   UNL     1       0.694   8.357  20.535  0.00  0.00    +0.000 A 
ATOM      6  N   UNL     1       1.147   8.999  19.336  0.00  0.00    +0.000 N 
ATOM      7  C   UNL     1       2.069   8.383  18.447  0.00  0.00    +0.000 A 
ATOM      8  O   UNL     1       2.528   8.910  17.434  0.00  0.00    +0.000 OA
ATOM      9  C   UNL     1       2.468   7.073  18.892  0.00  0.00    +0.000 A 
ATOM     10  N   UNL     1       3.297   6.224  18.263  0.00  0.00    +0.000 NA
ENDROOT
BRANCH   1  12
ATOM     11  C   UNL     1       4.368   3.966  17.202  0.00  0.00    +0.000 C 
ATOM     12  C   UNL     1       4.060   3.963  18.691  0.00  0.00    +0.000 C 
ENDBRANCH   1  12
BRANCH   5  13
ATOM     13  S   UNL     1      -0.473   9.249  21.568  0.00  0.00    +0.000 S 
BRANCH  13  14
ATOM     14  C   UNL     1       0.277  10.891  22.047  0.00  0.00    +0.000 C 
BRANCH  14  15
ATOM     15  C   UNL     1      -0.715  12.037  22.424  0.00  0.00    +0.000 A 
ATOM     16  C   UNL     1      -1.982  11.747  22.999  0.00  0.00    +0.000 A 
ATOM     17  C   UNL     1      -2.868  12.769  23.420  0.00  0.00    +0.000 A 
ATOM     18  C   UNL     1      -2.533  14.103  23.247  0.00  0.00    +0.000 A 
ATOM     19  C   UNL     1      -1.321  14.420  22.635  0.00  0.00    +0.000 A 
ATOM     20  C   UNL     1      -0.425  13.400  22.260  0.00  0.00    +0.000 A 
BRANCH  19  21
ATOM     21  O   UNL     1      -1.074  15.755  22.462  0.00  0.00    +0.000 OA
ATOM     22  C   UNL     1      -0.086  16.266  23.356  0.00  0.00    +0.000 C 
ENDBRANCH  19  21
ENDBRANCH  14  15
ENDBRANCH  13  14
ENDBRANCH   5  13
BRANCH   6  23
ATOM     23  C   UNL     1       0.901  10.397  18.985  0.00  0.00    +0.000 C 
BRANCH  23  24
ATOM     24  C   UNL     1      -0.475  10.714  18.424  0.00  0.00    +0.000 A 
ATOM     25  C   UNL     1      -1.099   9.775  17.592  0.00  0.00    +0.000 A 
ATOM     26  C   UNL     1      -2.434   9.928  17.213  0.00  0.00    +0.000 A 
ATOM     27  C   UNL     1      -3.161  11.031  17.655  0.00  0.00    +0.000 A 
ATOM     28 CL   UNL     1      -4.834  11.155  17.276  0.00  0.00    +0.000 Cl
ATOM     29  C   UNL     1      -2.548  12.004  18.437  0.00  0.00    +0.000 A 
ATOM     30  C   UNL     1      -1.208  11.849  18.818  0.00  0.00    +0.000 A 
ENDBRANCH  23  24
ENDBRANCH   6  23
TORSDOF 7
ENDMDL
MODEL 9
REMARK VINA RESULT:      -6.3      3.611      8.124
REMARK  Name = 
REMARK  9 active torsions:
REMARK  status: ('A' for Active; 'I' for Inactive)
REMARK    1  A    between atoms: C_1  and  C_2
REMARK    2  A    between atoms: C_2  and  N_3
REMARK    3  A    between atoms: C_7  and  S_8
REMARK    4  A    between atoms: S_8  and  C_9
REMARK    5  A    between atoms: C_9  and  C_10
REMARK    6  A    between atoms: C_14  and  O_15
REMARK    7  A    between atoms: O_15  and  C_16
REMARK    8  A    between atoms: N_18  and  C_19
REMARK    9  A    between atoms: C_19  and  C_20
REMARK                            x       y       z     vdW  Elec       q    Type
REMARK                         _______ _______ _______ _____ _____    ______ ____
ROOT
ATOM      1  N   UNL     1      -4.095  11.407  17.808  0.00  0.00    +0.000 N 
ATOM      2  C   UNL     1      -3.245  10.354  17.574  0.00  0.00    +0.000 A 
ATOM      3  C   UNL     1      -2.182  10.560  18.411  0.00  0.00    +0.000 A 
ATOM      4  N   UNL     1      -1.066   9.745  18.638  0.00  0.00    +0.000 NA
ATOM      5  C   UNL     1      -0.211  10.233  19.493  0.00  0.00    +0.000 A 
ATOM      6  N   UNL     1      -0.336  11.502  20.147  0.00  0.00    +0.000 N 
ATOM      7  C   UNL     1      -1.458  12.351  19.948  0.00  0.00    +0.000 A 
ATOM      8  O   UNL     1      -1.591  13.470  20.442  0.00  0.00    +0.000 OA
ATOM      9  C   UNL     1      -2.422  11.783  19.039  0.00  0.00    +0.000 A 
ATOM     10  N   UNL     1      -3.597  12.317  18.671  0.00  0.00    +0.000 NA
ENDROOT
BRANCH   1  12
ATOM     11  C   UNL     1      -6.496  11.103  18.268  0.00  0.00    +0.000 C 
ATOM     12  C   UNL     1      -5.440  11.576  17.281  0.00  0.00    +0.000 C 
ENDBRANCH   1  12
BRANCH   5  13
ATOM     13  S   UNL     1       1.259   9.261  19.836  0.00  0.00    +0.000 S 
BRANCH  13  14
ATOM     14  C   UNL     1       2.008   8.707  18.217  0.00  0.00    +0.000 C 
BRANCH  14  15
ATOM     15  C   UNL     1       2.795   7.358  18.227  0.00  0.00    +0.000 A 
ATOM     16  C   UNL     1       3.907   7.155  17.365  0.00  0.00    +0.000 A 
ATOM     17  C   UNL     1       4.684   5.971  17.408  0.00  0.00    +0.000 A 
ATOM     18  C   UNL     1       4.355   4.947  18.282  0.00  0.00    +0.000 A 
ATOM     19  C   UNL     1       3.236   5.093  19.101  0.00  0.00    +0.000 A 
ATOM     20  C   UNL     1       2.495   6.290  19.086  0.00  0.00    +0.000 A 
BRANCH  19  21
ATOM     21  O   UNL     1       2.949   4.026  19.910  0.00  0.00    +0.000 OA
ATOM     22  C   UNL     1       2.226   4.388  21.085  0.00  0.00    +0.000 C 
ENDBRANCH  19  21
ENDBRANCH  14  15
ENDBRANCH  13  14
ENDBRANCH   5  13
BRANCH   6  23
ATOM     23  C   UNL     1       0.722  12.166  20.908  0.00  0.00    +0.000 C 
BRANCH  23  24
ATOM     24  C   UNL     1       1.690  13.017  20.104  0.00  0.00    +0.000 A 
ATOM     25  C   UNL     1       2.488  13.953  20.776  0.00  0.00    +0.000 A 
ATOM     26  C   UNL     1       3.526  14.615  20.116  0.00  0.00    +0.000 A 
ATOM     27  C   UNL     1       3.773  14.355  18.771  0.00  0.00    +0.000 A 
ATOM     28 CL   UNL     1       5.121  15.090  17.997  0.00  0.00    +0.000 Cl
ATOM     29  C   UNL     1       2.961  13.471  18.069  0.00  0.00    +0.000 A 
ATOM     30  C   UNL     1       1.920  12.806  18.731  0.00  0.00    +0.000 A 
ENDBRANCH  23  24
ENDBRANCH   6  23
TORSDOF 7
ENDMDL
