MODEL 1
REMARK VINA RESULT:      -7.7      0.000      0.000
REMARK  Name = 
REMARK  10 active torsions:
REMARK  status: ('A' for Active; 'I' for Inactive)
REMARK    1  A    between atoms: C_1  and  C_2
REMARK    2  A    between atoms: C_5  and  C_6
REMARK    3  A    between atoms: C_6  and  N_7
REMARK    4  A    between atoms: N_7  and  C_8
REMARK    5  A    between atoms: N_7  and  C_9
REMARK    6  A    between atoms: C_9  and  C_10
REMARK    7  A    between atoms: C_10  and  O_11
REMARK    8  A    between atoms: N_15  and  C_16
REMARK    9  A    between atoms: C_16  and  C_17
REMARK   10  A    between atoms: C_17  and  C_18
REMARK                            x       y       z     vdW  Elec       q    Type
REMARK                         _______ _______ _______ _____ _____    ______ ____
ROOT
ATOM      1  C   UNL     1       3.982   4.153  19.195  0.00  0.00    +0.000 C 
ATOM      2  C   UNL     1       3.289   3.307  20.278  0.00  0.00    +0.000 C 
ATOM      3  C   UNL     1       2.433   4.065  21.289  0.00  0.00    +0.000 C 
ATOM      4  C   UNL     1       1.557   5.102  20.609  0.00  0.00    +0.000 C 
ATOM      5  N   UNL     1       2.351   5.904  19.700  0.00  0.00    +0.000 N 
ATOM      6  C   UNL     1       3.004   5.241  18.660  0.00  0.00    +0.000 C 
ATOM      7  O   UNL     1       3.028   5.666  17.505  0.00  0.00    +0.000 OA
ENDROOT
BRANCH   1   8
ATOM      8  O   UNL     1       4.439   3.224  18.212  0.00  0.00    +0.000 OA
ATOM      9  H   UNL     1       3.669   2.665  17.991  0.00  0.00    +0.000 HD
ENDBRANCH   1   8
BRANCH   1  10
ATOM     10  C   UNL     1       5.191   5.085  19.572  0.00  0.00    +0.000 C 
BRANCH  10  11
ATOM     11  N   UNL     1       6.469   5.072  18.816  0.00  0.00    +0.000 NA
ATOM     12  C   UNL     1       7.584   5.467  19.678  0.00  0.00    +0.000 C 
BRANCH  11  13
ATOM     13  C   UNL     1       6.311   6.045  17.684  0.00  0.00    +0.000 C 
BRANCH  13  18
ATOM     14  C   UNL     1       5.922   3.774  13.312  0.00  0.00    +0.000 C 
ATOM     15  C   UNL     1       6.427   4.572  14.445  0.00  0.00    +0.000 A 
ATOM     16  N   UNL     1       7.571   5.263  14.389  0.00  0.00    +0.000 NA
ATOM     17  O   UNL     1       7.643   5.868  15.646  0.00  0.00    +0.000 OA
ATOM     18  C   UNL     1       6.524   5.471  16.325  0.00  0.00    +0.000 A 
ATOM     19  N   UNL     1       5.751   4.662  15.632  0.00  0.00    +0.000 NA
ENDBRANCH  13  18
ENDBRANCH  11  13
ENDBRANCH  10  11
ENDBRANCH   1  10
BRANCH   5  20
ATOM     20  C   UNL     1       2.232   7.351  19.701  0.00  0.00    +0.000 C 
BRANCH  20  21
ATOM     21  C   UNL     1       1.587   7.922  20.948  0.00  0.00    +0.000 C 
BRANCH  21  22
ATOM     22  C   UNL     1       0.145   8.424  20.703  0.00  0.00    +0.000 C 
ATOM     23  C   UNL     1      -0.639   8.443  22.025  0.00  0.00    +0.000 C 
ATOM     24  C   UNL     1      -0.115   9.511  22.986  0.00  0.00    +0.000 C 
ATOM     25  C   UNL     1      -0.096  10.895  22.341  0.00  0.00    +0.000 C 
ATOM     26  C   UNL     1       0.603  10.912  20.983  0.00  0.00    +0.000 C 
ATOM     27  C   UNL     1       0.069   9.820  20.060  0.00  0.00    +0.000 C 
ENDBRANCH  21  22
ENDBRANCH  20  21
ENDBRANCH   5  20
TORSDOF 8
ENDMDL
MODEL 2
REMARK VINA RESULT:      -7.3      2.752      7.142
REMARK  Name = 
REMARK  10 active torsions:
REMARK  status: ('A' for Active; 'I' for Inactive)
REMARK    1  A    between atoms: C_1  and  C_2
REMARK    2  A    between atoms: C_5  and  C_6
REMARK    3  A    between atoms: C_6  and  N_7
REMARK    4  A    between atoms: N_7  and  C_8
REMARK    5  A    between atoms: N_7  and  C_9
REMARK    6  A    between atoms: C_9  and  C_10
REMARK    7  A    between atoms: C_10  and  O_11
REMARK    8  A    between atoms: N_15  and  C_16
REMARK    9  A    between atoms: C_16  and  C_17
REMARK   10  A    between atoms: C_17  and  C_18
REMARK                            x       y       z     vdW  Elec       q    Type
REMARK                         _______ _______ _______ _____ _____    ______ ____
ROOT
ATOM      1  C   UNL     1       2.414   3.533  20.741  0.00  0.00    +0.000 C 
ATOM      2  C   UNL     1       1.001   3.073  20.338  0.00  0.00    +0.000 C 
ATOM      3  C   UNL     1       0.739   2.914  18.843  0.00  0.00    +0.000 C 
ATOM      4  C   UNL     1       1.882   2.195  18.151  0.00  0.00    +0.000 C 
ATOM      5  N   UNL     1       3.147   2.795  18.527  0.00  0.00    +0.000 N 
ATOM      6  C   UNL     1       3.481   2.793  19.882  0.00  0.00    +0.000 C 
ATOM      7  O   UNL     1       4.608   2.512  20.292  0.00  0.00    +0.000 OA
ENDROOT
BRANCH   1   8
ATOM      8  O   UNL     1       2.510   3.300  22.146  0.00  0.00    +0.000 OA
ATOM      9  H   UNL     1       3.410   2.955  22.302  0.00  0.00    +0.000 HD
ENDBRANCH   1   8
BRANCH   1  10
ATOM     10  C   UNL     1       2.873   5.012  20.468  0.00  0.00    +0.000 C 
BRANCH  10  11
ATOM     11  N   UNL     1       1.938   6.056  19.976  0.00  0.00    +0.000 NA
ATOM     12  C   UNL     1       2.659   7.080  19.219  0.00  0.00    +0.000 C 
BRANCH  11  13
ATOM     13  C   UNL     1       1.288   6.658  21.188  0.00  0.00    +0.000 C 
BRANCH  13  18
ATOM     14  C   UNL     1      -0.148  11.272  20.156  0.00  0.00    +0.000 C 
ATOM     15  C   UNL     1       0.504  10.106  20.781  0.00  0.00    +0.000 A 
ATOM     16  N   UNL     1       1.242  10.201  21.893  0.00  0.00    +0.000 NA
ATOM     17  O   UNL     1       1.637   8.883  22.131  0.00  0.00    +0.000 OA
ATOM     18  C   UNL     1       1.086   8.133  21.128  0.00  0.00    +0.000 A 
ATOM     19  N   UNL     1       0.391   8.843  20.265  0.00  0.00    +0.000 NA
ENDBRANCH  13  18
ENDBRANCH  11  13
ENDBRANCH  10  11
ENDBRANCH   1  10
BRANCH   5  20
ATOM     20  C   UNL     1       4.138   3.116  17.516  0.00  0.00    +0.000 C 
BRANCH  20  21
ATOM     21  C   UNL     1       4.188   4.583  17.136  0.00  0.00    +0.000 C 
BRANCH  21  22
ATOM     22  C   UNL     1       5.218   4.880  16.022  0.00  0.00    +0.000 C 
ATOM     23  C   UNL     1       5.350   6.398  15.817  0.00  0.00    +0.000 C 
ATOM     24  C   UNL     1       6.007   7.083  17.017  0.00  0.00    +0.000 C 
ATOM     25  C   UNL     1       7.358   6.457  17.357  0.00  0.00    +0.000 C 
ATOM     26  C   UNL     1       7.295   4.936  17.491  0.00  0.00    +0.000 C 
ATOM     27  C   UNL     1       6.614   4.291  16.287  0.00  0.00    +0.000 C 
ENDBRANCH  21  22
ENDBRANCH  20  21
ENDBRANCH   5  20
TORSDOF 8
ENDMDL
MODEL 3
REMARK VINA RESULT:      -7.3      3.377      5.183
REMARK  Name = 
REMARK  10 active torsions:
REMARK  status: ('A' for Active; 'I' for Inactive)
REMARK    1  A    between atoms: C_1  and  C_2
REMARK    2  A    between atoms: C_5  and  C_6
REMARK    3  A    between atoms: C_6  and  N_7
REMARK    4  A    between atoms: N_7  and  C_8
REMARK    5  A    between atoms: N_7  and  C_9
REMARK    6  A    between atoms: C_9  and  C_10
REMARK    7  A    between atoms: C_10  and  O_11
REMARK    8  A    between atoms: N_15  and  C_16
REMARK    9  A    between atoms: C_16  and  C_17
REMARK   10  A    between atoms: C_17  and  C_18
REMARK                            x       y       z     vdW  Elec       q    Type
REMARK                         _______ _______ _______ _____ _____    ______ ____
ROOT
ATOM      1  C   UNL     1       6.770   6.303  17.184  0.00  0.00    +0.000 C 
ATOM      2  C   UNL     1       5.582   7.242  16.908  0.00  0.00    +0.000 C 
ATOM      3  C   UNL     1       4.201   6.725  17.303  0.00  0.00    +0.000 C 
ATOM      4  C   UNL     1       4.220   6.080  18.677  0.00  0.00    +0.000 C 
ATOM      5  N   UNL     1       5.317   5.138  18.769  0.00  0.00    +0.000 N 
ATOM      6  C   UNL     1       6.607   5.633  18.580  0.00  0.00    +0.000 C 
ATOM      7  O   UNL     1       7.558   5.312  19.294  0.00  0.00    +0.000 OA
ENDROOT
BRANCH   1   8
ATOM      8  O   UNL     1       7.940   7.108  17.040  0.00  0.00    +0.000 OA
ATOM      9  H   UNL     1       8.194   7.049  16.099  0.00  0.00    +0.000 HD
ENDBRANCH   1   8
BRANCH   1  10
ATOM     10  C   UNL     1       6.971   5.005  16.319  0.00  0.00    +0.000 C 
BRANCH  10  11
ATOM     11  N   UNL     1       5.962   4.545  15.331  0.00  0.00    +0.000 NA
ATOM     12  C   UNL     1       5.359   3.282  15.757  0.00  0.00    +0.000 C 
BRANCH  11  13
ATOM     13  C   UNL     1       6.686   4.369  14.027  0.00  0.00    +0.000 C 
BRANCH  13  18
ATOM     14  C   UNL     1       3.408   3.063  10.567  0.00  0.00    +0.000 C 
ATOM     15  C   UNL     1       4.586   3.087  11.455  0.00  0.00    +0.000 A 
ATOM     16  N   UNL     1       5.589   2.209  11.347  0.00  0.00    +0.000 NA
ATOM     17  O   UNL     1       6.474   2.607  12.351  0.00  0.00    +0.000 OA
ATOM     18  C   UNL     1       5.901   3.691  12.958  0.00  0.00    +0.000 A 
ATOM     19  N   UNL     1       4.731   4.016  12.450  0.00  0.00    +0.000 NA
ENDBRANCH  13  18
ENDBRANCH  11  13
ENDBRANCH  10  11
ENDBRANCH   1  10
BRANCH   5  20
ATOM     20  C   UNL     1       5.101   3.811  19.317  0.00  0.00    +0.000 C 
BRANCH  20  21
ATOM     21  C   UNL     1       3.908   3.081  18.731  0.00  0.00    +0.000 C 
BRANCH  21  22
ATOM     22  C   UNL     1       3.120   2.272  19.787  0.00  0.00    +0.000 C 
ATOM     23  C   UNL     1       2.983   3.088  21.082  0.00  0.00    +0.000 C 
ATOM     24  C   UNL     1       2.070   4.303  20.900  0.00  0.00    +0.000 C 
ATOM     25  C   UNL     1       0.699   3.905  20.356  0.00  0.00    +0.000 C 
ATOM     26  C   UNL     1       0.784   3.023  19.111  0.00  0.00    +0.000 C 
ATOM     27  C   UNL     1       1.719   1.836  19.324  0.00  0.00    +0.000 C 
ENDBRANCH  21  22
ENDBRANCH  20  21
ENDBRANCH   5  20
TORSDOF 8
ENDMDL
MODEL 4
REMARK VINA RESULT:      -7.1      2.856      6.993
REMARK  Name = 
REMARK  10 active torsions:
REMARK  status: ('A' for Active; 'I' for Inactive)
REMARK    1  A    between atoms: C_1  and  C_2
REMARK    2  A    between atoms: C_5  and  C_6
REMARK    3  A    between atoms: C_6  and  N_7
REMARK    4  A    between atoms: N_7  and  C_8
REMARK    5  A    between atoms: N_7  and  C_9
REMARK    6  A    between atoms: C_9  and  C_10
REMARK    7  A    between atoms: C_10  and  O_11
REMARK    8  A    between atoms: N_15  and  C_16
REMARK    9  A    between atoms: C_16  and  C_17
REMARK   10  A    between atoms: C_17  and  C_18
REMARK                            x       y       z     vdW  Elec       q    Type
REMARK                         _______ _______ _______ _____ _____    ______ ____
ROOT
ATOM      1  C   UNL     1       2.463   3.528  20.717  0.00  0.00    +0.000 C 
ATOM      2  C   UNL     1       1.014   3.092  20.432  0.00  0.00    +0.000 C 
ATOM      3  C   UNL     1       0.702   2.668  18.999  0.00  0.00    +0.000 C 
ATOM      4  C   UNL     1       1.781   1.758  18.440  0.00  0.00    +0.000 C 
ATOM      5  N   UNL     1       3.089   2.336  18.675  0.00  0.00    +0.000 N 
ATOM      6  C   UNL     1       3.459   2.570  20.000  0.00  0.00    +0.000 C 
ATOM      7  O   UNL     1       4.578   2.301  20.439  0.00  0.00    +0.000 OA
ENDROOT
BRANCH   1   8
ATOM      8  O   UNL     1       2.583   3.561  22.139  0.00  0.00    +0.000 OA
ATOM      9  H   UNL     1       1.695   3.362  22.490  0.00  0.00    +0.000 HD
ENDBRANCH   1   8
BRANCH   1  10
ATOM     10  C   UNL     1       3.003   4.895  20.158  0.00  0.00    +0.000 C 
BRANCH  10  11
ATOM     11  N   UNL     1       2.103   5.932  19.591  0.00  0.00    +0.000 NA
ATOM     12  C   UNL     1       2.203   5.962  18.132  0.00  0.00    +0.000 C 
BRANCH  11  13
ATOM     13  C   UNL     1       2.539   7.245  20.174  0.00  0.00    +0.000 C 
BRANCH  13  18
ATOM     14  C   UNL     1      -0.739  10.898  19.598  0.00  0.00    +0.000 C 
ATOM     15  C   UNL     1       0.016   9.756  20.147  0.00  0.00    +0.000 A 
ATOM     16  N   UNL     1      -0.338   9.132  21.276  0.00  0.00    +0.000 NA
ATOM     17  O   UNL     1       0.623   8.127  21.403  0.00  0.00    +0.000 OA
ATOM     18  C   UNL     1       1.457   8.257  20.326  0.00  0.00    +0.000 A 
ATOM     19  N   UNL     1       1.131   9.255  19.532  0.00  0.00    +0.000 NA
ENDBRANCH  13  18
ENDBRANCH  11  13
ENDBRANCH  10  11
ENDBRANCH   1  10
BRANCH   5  20
ATOM     20  C   UNL     1       4.070   2.393  17.607  0.00  0.00    +0.000 C 
BRANCH  20  21
ATOM     21  C   UNL     1       4.167   3.743  16.922  0.00  0.00    +0.000 C 
BRANCH  21  22
ATOM     22  C   UNL     1       5.604   4.083  16.465  0.00  0.00    +0.000 C 
ATOM     23  C   UNL     1       5.570   5.182  15.391  0.00  0.00    +0.000 C 
ATOM     24  C   UNL     1       5.116   6.527  15.962  0.00  0.00    +0.000 C 
ATOM     25  C   UNL     1       5.970   6.953  17.155  0.00  0.00    +0.000 C 
ATOM     26  C   UNL     1       6.101   5.862  18.216  0.00  0.00    +0.000 C 
ATOM     27  C   UNL     1       6.534   4.532  17.606  0.00  0.00    +0.000 C 
ENDBRANCH  21  22
ENDBRANCH  20  21
ENDBRANCH   5  20
TORSDOF 8
ENDMDL
MODEL 5
REMARK VINA RESULT:      -7.0      1.021      1.788
REMARK  Name = 
REMARK  10 active torsions:
REMARK  status: ('A' for Active; 'I' for Inactive)
REMARK    1  A    between atoms: C_1  and  C_2
REMARK    2  A    between atoms: C_5  and  C_6
REMARK    3  A    between atoms: C_6  and  N_7
REMARK    4  A    between atoms: N_7  and  C_8
REMARK    5  A    between atoms: N_7  and  C_9
REMARK    6  A    between atoms: C_9  and  C_10
REMARK    7  A    between atoms: C_10  and  O_11
REMARK    8  A    between atoms: N_15  and  C_16
REMARK    9  A    between atoms: C_16  and  C_17
REMARK   10  A    between atoms: C_17  and  C_18
REMARK                            x       y       z     vdW  Elec       q    Type
REMARK                         _______ _______ _______ _____ _____    ______ ____
ROOT
ATOM      1  C   UNL     1       3.397   4.544  18.794  0.00  0.00    +0.000 C 
ATOM      2  C   UNL     1       2.740   3.408  19.599  0.00  0.00    +0.000 C 
ATOM      3  C   UNL     1       2.086   3.803  20.921  0.00  0.00    +0.000 C 
ATOM      4  C   UNL     1       1.256   5.066  20.775  0.00  0.00    +0.000 C 
ATOM      5  N   UNL     1       2.027   6.092  20.101  0.00  0.00    +0.000 N 
ATOM      6  C   UNL     1       2.488   5.808  18.815  0.00  0.00    +0.000 C 
ATOM      7  O   UNL     1       2.430   6.618  17.890  0.00  0.00    +0.000 OA
ENDROOT
BRANCH   1   8
ATOM      8  O   UNL     1       3.641   4.005  17.494  0.00  0.00    +0.000 OA
ATOM      9  H   UNL     1       2.807   3.579  17.217  0.00  0.00    +0.000 HD
ENDBRANCH   1   8
BRANCH   1  10
ATOM     10  C   UNL     1       4.732   5.203  19.298  0.00  0.00    +0.000 C 
BRANCH  10  11
ATOM     11  N   UNL     1       5.996   5.129  18.522  0.00  0.00    +0.000 NA
ATOM     12  C   UNL     1       7.132   5.550  19.343  0.00  0.00    +0.000 C 
BRANCH  11  13
ATOM     13  C   UNL     1       5.833   6.044  17.343  0.00  0.00    +0.000 C 
BRANCH  13  18
ATOM     14  C   UNL     1       6.163   3.697  13.007  0.00  0.00    +0.000 C 
ATOM     15  C   UNL     1       6.463   4.543  14.178  0.00  0.00    +0.000 A 
ATOM     16  N   UNL     1       7.556   5.310  14.254  0.00  0.00    +0.000 NA
ATOM     17  O   UNL     1       7.426   5.933  15.497  0.00  0.00    +0.000 OA
ATOM     18  C   UNL     1       6.257   5.470  16.036  0.00  0.00    +0.000 A 
ATOM     19  N   UNL     1       5.635   4.601  15.267  0.00  0.00    +0.000 NA
ENDBRANCH  13  18
ENDBRANCH  11  13
ENDBRANCH  10  11
ENDBRANCH   1  10
BRANCH   5  20
ATOM     20  C   UNL     1       2.064   7.446  20.623  0.00  0.00    +0.000 C 
BRANCH  20  21
ATOM     21  C   UNL     1       0.736   8.175  20.560  0.00  0.00    +0.000 C 
BRANCH  21  22
ATOM     22  C   UNL     1       0.896   9.697  20.342  0.00  0.00    +0.000 C 
ATOM     23  C   UNL     1       1.493   9.971  18.953  0.00  0.00    +0.000 C 
ATOM     24  C   UNL     1       0.518   9.613  17.830  0.00  0.00    +0.000 C 
ATOM     25  C   UNL     1      -0.826  10.321  17.997  0.00  0.00    +0.000 C 
ATOM     26  C   UNL     1      -1.423  10.146  19.393  0.00  0.00    +0.000 C 
ATOM     27  C   UNL     1      -0.415  10.491  20.485  0.00  0.00    +0.000 C 
ENDBRANCH  21  22
ENDBRANCH  20  21
ENDBRANCH   5  20
TORSDOF 8
ENDMDL
MODEL 6
REMARK VINA RESULT:      -7.0      2.587      7.400
REMARK  Name = 
REMARK  10 active torsions:
REMARK  status: ('A' for Active; 'I' for Inactive)
REMARK    1  A    between atoms: C_1  and  C_2
REMARK    2  A    between atoms: C_5  and  C_6
REMARK    3  A    between atoms: C_6  and  N_7
REMARK    4  A    between atoms: N_7  and  C_8
REMARK    5  A    between atoms: N_7  and  C_9
REMARK    6  A    between atoms: C_9  and  C_10
REMARK    7  A    between atoms: C_10  and  O_11
REMARK    8  A    between atoms: N_15  and  C_16
REMARK    9  A    between atoms: C_16  and  C_17
REMARK   10  A    between atoms: C_17  and  C_18
REMARK                            x       y       z     vdW  Elec       q    Type
REMARK                         _______ _______ _______ _____ _____    ______ ____
ROOT
ATOM      1  C   UNL     1       2.509   3.916  20.344  0.00  0.00    +0.000 C 
ATOM      2  C   UNL     1       1.147   3.412  19.834  0.00  0.00    +0.000 C 
ATOM      3  C   UNL     1       1.032   3.166  18.332  0.00  0.00    +0.000 C 
ATOM      4  C   UNL     1       2.246   2.428  17.796  0.00  0.00    +0.000 C 
ATOM      5  N   UNL     1       3.461   3.068  18.258  0.00  0.00    +0.000 N 
ATOM      6  C   UNL     1       3.662   3.146  19.636  0.00  0.00    +0.000 C 
ATOM      7  O   UNL     1       4.746   2.907  20.168  0.00  0.00    +0.000 OA
ENDROOT
BRANCH   1   8
ATOM      8  O   UNL     1       2.471   3.763  21.763  0.00  0.00    +0.000 OA
ATOM      9  H   UNL     1       3.377   3.940  22.079  0.00  0.00    +0.000 HD
ENDBRANCH   1   8
BRANCH   1  10
ATOM     10  C   UNL     1       2.976   5.385  20.033  0.00  0.00    +0.000 C 
BRANCH  10  11
ATOM     11  N   UNL     1       2.061   6.406  19.461  0.00  0.00    +0.000 NA
ATOM     12  C   UNL     1       2.293   6.562  18.025  0.00  0.00    +0.000 C 
BRANCH  11  13
ATOM     13  C   UNL     1       2.346   7.691  20.183  0.00  0.00    +0.000 C 
BRANCH  13  18
ATOM     14  C   UNL     1      -0.704  10.321  23.047  0.00  0.00    +0.000 C 
ATOM     15  C   UNL     1      -0.122   9.243  22.225  0.00  0.00    +0.000 A 
ATOM     16  N   UNL     1      -0.792   8.126  21.920  0.00  0.00    +0.000 NA
ATOM     17  O   UNL     1       0.113   7.414  21.131  0.00  0.00    +0.000 OA
ATOM     18  C   UNL     1       1.238   8.188  21.046  0.00  0.00    +0.000 A 
ATOM     19  N   UNL     1       1.146   9.318  21.714  0.00  0.00    +0.000 NA
ENDBRANCH  13  18
ENDBRANCH  11  13
ENDBRANCH  10  11
ENDBRANCH   1  10
BRANCH   5  20
ATOM     20  C   UNL     1       4.543   3.348  17.330  0.00  0.00    +0.000 C 
BRANCH  20  21
ATOM     21  C   UNL     1       5.208   4.694  17.538  0.00  0.00    +0.000 C 
BRANCH  21  22
ATOM     22  C   UNL     1       6.632   4.760  16.938  0.00  0.00    +0.000 C 
ATOM     23  C   UNL     1       6.856   6.120  16.259  0.00  0.00    +0.000 C 
ATOM     24  C   UNL     1       6.910   7.264  17.272  0.00  0.00    +0.000 C 
ATOM     25  C   UNL     1       7.958   7.014  18.355  0.00  0.00    +0.000 C 
ATOM     26  C   UNL     1       7.827   5.639  19.006  0.00  0.00    +0.000 C 
ATOM     27  C   UNL     1       7.755   4.526  17.964  0.00  0.00    +0.000 C 
ENDBRANCH  21  22
ENDBRANCH  20  21
ENDBRANCH   5  20
TORSDOF 8
ENDMDL
MODEL 7
REMARK VINA RESULT:      -6.9      2.742      7.445
REMARK  Name = 
REMARK  10 active torsions:
REMARK  status: ('A' for Active; 'I' for Inactive)
REMARK    1  A    between atoms: C_1  and  C_2
REMARK    2  A    between atoms: C_5  and  C_6
REMARK    3  A    between atoms: C_6  and  N_7
REMARK    4  A    between atoms: N_7  and  C_8
REMARK    5  A    between atoms: N_7  and  C_9
REMARK    6  A    between atoms: C_9  and  C_10
REMARK    7  A    between atoms: C_10  and  O_11
REMARK    8  A    between atoms: N_15  and  C_16
REMARK    9  A    between atoms: C_16  and  C_17
REMARK   10  A    between atoms: C_17  and  C_18
REMARK                            x       y       z     vdW  Elec       q    Type
REMARK                         _______ _______ _______ _____ _____    ______ ____
ROOT
ATOM      1  C   UNL     1       1.658   4.007  19.800  0.00  0.00    +0.000 C 
ATOM      2  C   UNL     1       1.299   4.040  18.303  0.00  0.00    +0.000 C 
ATOM      3  C   UNL     1       2.453   4.278  17.333  0.00  0.00    +0.000 C 
ATOM      4  C   UNL     1       3.667   3.442  17.696  0.00  0.00    +0.000 C 
ATOM      5  N   UNL     1       3.966   3.586  19.107  0.00  0.00    +0.000 N 
ATOM      6  C   UNL     1       2.977   3.207  20.015  0.00  0.00    +0.000 C 
ATOM      7  O   UNL     1       3.216   2.553  21.031  0.00  0.00    +0.000 OA
ENDROOT
BRANCH   1   8
ATOM      8  O   UNL     1       0.514   3.464  20.459  0.00  0.00    +0.000 OA
ATOM      9  H   UNL     1       0.177   2.757  19.877  0.00  0.00    +0.000 HD
ENDBRANCH   1   8
BRANCH   1  10
ATOM     10  C   UNL     1       2.059   5.331  20.547  0.00  0.00    +0.000 C 
BRANCH  10  11
ATOM     11  N   UNL     1       1.546   6.662  20.135  0.00  0.00    +0.000 NA
ATOM     12  C   UNL     1       2.539   7.373  19.328  0.00  0.00    +0.000 C 
BRANCH  11  13
ATOM     13  C   UNL     1       1.253   7.421  21.397  0.00  0.00    +0.000 C 
BRANCH  13  18
ATOM     14  C   UNL     1      -1.044  11.617  20.157  0.00  0.00    +0.000 C 
ATOM     15  C   UNL     1      -0.104  10.648  20.751  0.00  0.00    +0.000 A 
ATOM     16  N   UNL     1       0.840  11.003  21.631  0.00  0.00    +0.000 NA
ATOM     17  O   UNL     1       1.468   9.793  21.934  0.00  0.00    +0.000 OA
ATOM     18  C   UNL     1       0.826   8.835  21.198  0.00  0.00    +0.000 A 
ATOM     19  N   UNL     1      -0.140   9.314  20.444  0.00  0.00    +0.000 NA
ENDBRANCH  13  18
ENDBRANCH  11  13
ENDBRANCH  10  11
ENDBRANCH   1  10
BRANCH   5  20
ATOM     20  C   UNL     1       5.326   3.835  19.549  0.00  0.00    +0.000 C 
BRANCH  20  21
ATOM     21  C   UNL     1       5.832   5.233  19.250  0.00  0.00    +0.000 C 
BRANCH  21  22
ATOM     22  C   UNL     1       7.313   5.255  18.808  0.00  0.00    +0.000 C 
ATOM     23  C   UNL     1       7.484   4.473  17.496  0.00  0.00    +0.000 C 
ATOM     24  C   UNL     1       6.815   5.181  16.316  0.00  0.00    +0.000 C 
ATOM     25  C   UNL     1       7.307   6.619  16.165  0.00  0.00    +0.000 C 
ATOM     26  C   UNL     1       7.233   7.416  17.466  0.00  0.00    +0.000 C 
ATOM     27  C   UNL     1       7.891   6.669  18.623  0.00  0.00    +0.000 C 
ENDBRANCH  21  22
ENDBRANCH  20  21
ENDBRANCH   5  20
TORSDOF 8
ENDMDL
MODEL 8
REMARK VINA RESULT:      -6.8      0.925      1.488
REMARK  Name = 
REMARK  10 active torsions:
REMARK  status: ('A' for Active; 'I' for Inactive)
REMARK    1  A    between atoms: C_1  and  C_2
REMARK    2  A    between atoms: C_5  and  C_6
REMARK    3  A    between atoms: C_6  and  N_7
REMARK    4  A    between atoms: N_7  and  C_8
REMARK    5  A    between atoms: N_7  and  C_9
REMARK    6  A    between atoms: C_9  and  C_10
REMARK    7  A    between atoms: C_10  and  O_11
REMARK    8  A    between atoms: N_15  and  C_16
REMARK    9  A    between atoms: C_16  and  C_17
REMARK   10  A    between atoms: C_17  and  C_18
REMARK                            x       y       z     vdW  Elec       q    Type
REMARK                         _______ _______ _______ _____ _____    ______ ____
ROOT
ATOM      1  C   UNL     1       3.715   4.123  19.072  0.00  0.00    +0.000 C 
ATOM      2  C   UNL     1       3.121   3.183  20.137  0.00  0.00    +0.000 C 
ATOM      3  C   UNL     1       2.358   3.847  21.280  0.00  0.00    +0.000 C 
ATOM      4  C   UNL     1       1.425   4.930  20.770  0.00  0.00    +0.000 C 
ATOM      5  N   UNL     1       2.134   5.812  19.865  0.00  0.00    +0.000 N 
ATOM      6  C   UNL     1       2.693   5.243  18.719  0.00  0.00    +0.000 C 
ATOM      7  O   UNL     1       2.613   5.765  17.607  0.00  0.00    +0.000 OA
ENDROOT
BRANCH   1   8
ATOM      8  O   UNL     1       4.083   3.283  17.977  0.00  0.00    +0.000 OA
ATOM      9  H   UNL     1       3.352   3.344  17.333  0.00  0.00    +0.000 HD
ENDBRANCH   1   8
BRANCH   1  10
ATOM     10  C   UNL     1       4.952   5.029  19.417  0.00  0.00    +0.000 C 
BRANCH  10  11
ATOM     11  N   UNL     1       6.197   5.017  18.607  0.00  0.00    +0.000 NA
ATOM     12  C   UNL     1       7.356   5.354  19.434  0.00  0.00    +0.000 C 
BRANCH  11  13
ATOM     13  C   UNL     1       6.014   6.035  17.519  0.00  0.00    +0.000 C 
BRANCH  13  18
ATOM     14  C   UNL     1       7.571   4.763  13.005  0.00  0.00    +0.000 C 
ATOM     15  C   UNL     1       6.759   4.900  14.229  0.00  0.00    +0.000 A 
ATOM     16  N   UNL     1       5.605   4.246  14.407  0.00  0.00    +0.000 NA
ATOM     17  O   UNL     1       5.199   4.651  15.681  0.00  0.00    +0.000 OA
ATOM     18  C   UNL     1       6.163   5.511  16.133  0.00  0.00    +0.000 A 
ATOM     19  N   UNL     1       7.136   5.706  15.269  0.00  0.00    +0.000 NA
ENDBRANCH  13  18
ENDBRANCH  11  13
ENDBRANCH  10  11
ENDBRANCH   1  10
BRANCH   5  20
ATOM     20  C   UNL     1       2.015   7.253  19.998  0.00  0.00    +0.000 C 
BRANCH  20  21
ATOM     21  C   UNL     1       1.128   7.702  21.143  0.00  0.00    +0.000 C 
BRANCH  21  22
ATOM     22  C   UNL     1       1.506   9.100  21.684  0.00  0.00    +0.000 C 
ATOM     23  C   UNL     1       1.064  10.187  20.693  0.00  0.00    +0.000 C 
ATOM     24  C   UNL     1      -0.460  10.304  20.613  0.00  0.00    +0.000 C 
ATOM     25  C   UNL     1      -1.084  10.531  21.989  0.00  0.00    +0.000 C 
ATOM     26  C   UNL     1      -0.610   9.522  23.033  0.00  0.00    +0.000 C 
ATOM     27  C   UNL     1       0.912   9.417  23.068  0.00  0.00    +0.000 C 
ENDBRANCH  21  22
ENDBRANCH  20  21
ENDBRANCH   5  20
TORSDOF 8
ENDMDL
MODEL 9
REMARK VINA RESULT:      -6.8      1.357      1.796
REMARK  Name = 
REMARK  10 active torsions:
REMARK  status: ('A' for Active; 'I' for Inactive)
REMARK    1  A    between atoms: C_1  and  C_2
REMARK    2  A    between atoms: C_5  and  C_6
REMARK    3  A    between atoms: C_6  and  N_7
REMARK    4  A    between atoms: N_7  and  C_8
REMARK    5  A    between atoms: N_7  and  C_9
REMARK    6  A    between atoms: C_9  and  C_10
REMARK    7  A    between atoms: C_10  and  O_11
REMARK    8  A    between atoms: N_15  and  C_16
REMARK    9  A    between atoms: C_16  and  C_17
REMARK   10  A    between atoms: C_17  and  C_18
REMARK                            x       y       z     vdW  Elec       q    Type
REMARK                         _______ _______ _______ _____ _____    ______ ____
ROOT
ATOM      1  C   UNL     1       3.526   4.837  18.963  0.00  0.00    +0.000 C 
ATOM      2  C   UNL     1       2.791   3.917  19.954  0.00  0.00    +0.000 C 
ATOM      3  C   UNL     1       2.101   4.601  21.132  0.00  0.00    +0.000 C 
ATOM      4  C   UNL     1       1.332   5.832  20.688  0.00  0.00    +0.000 C 
ATOM      5  N   UNL     1       2.170   6.668  19.853  0.00  0.00    +0.000 N 
ATOM      6  C   UNL     1       2.670   6.107  18.677  0.00  0.00    +0.000 C 
ATOM      7  O   UNL     1       2.683   6.707  17.602  0.00  0.00    +0.000 OA
ENDROOT
BRANCH   1   8
ATOM      8  O   UNL     1       3.799   4.030  17.817  0.00  0.00    +0.000 OA
ATOM      9  H   UNL     1       3.025   4.124  17.229  0.00  0.00    +0.000 HD
ENDBRANCH   1   8
BRANCH   1  10
ATOM     10  C   UNL     1       4.866   5.543  19.383  0.00  0.00    +0.000 C 
BRANCH  10  11
ATOM     11  N   UNL     1       6.147   5.302  18.671  0.00  0.00    +0.000 NA
ATOM     12  C   UNL     1       7.286   5.580  19.547  0.00  0.00    +0.000 C 
BRANCH  11  13
ATOM     13  C   UNL     1       6.161   6.222  17.485  0.00  0.00    +0.000 C 
BRANCH  13  18
ATOM     14  C   UNL     1       6.071   3.651  13.266  0.00  0.00    +0.000 C 
ATOM     15  C   UNL     1       6.491   4.540  14.365  0.00  0.00    +0.000 A 
ATOM     16  N   UNL     1       7.615   5.265  14.319  0.00  0.00    +0.000 NA
ATOM     17  O   UNL     1       7.603   5.955  15.533  0.00  0.00    +0.000 OA
ATOM     18  C   UNL     1       6.462   5.567  16.182  0.00  0.00    +0.000 A 
ATOM     19  N   UNL     1       5.752   4.687  15.508  0.00  0.00    +0.000 NA
ENDBRANCH  13  18
ENDBRANCH  11  13
ENDBRANCH  10  11
ENDBRANCH   1  10
BRANCH   5  20
ATOM     20  C   UNL     1       2.244   8.099  20.084  0.00  0.00    +0.000 C 
BRANCH  20  21
ATOM     21  C   UNL     1       0.937   8.835  19.855  0.00  0.00    +0.000 C 
BRANCH  21  22
ATOM     22  C   UNL     1       0.789   9.362  18.409  0.00  0.00    +0.000 C 
ATOM     23  C   UNL     1      -0.570  10.058  18.239  0.00  0.00    +0.000 C 
ATOM     24  C   UNL     1      -0.650  11.362  19.036  0.00  0.00    +0.000 C 
ATOM     25  C   UNL     1       0.498  12.309  18.691  0.00  0.00    +0.000 C 
ATOM     26  C   UNL     1       1.869  11.638  18.767  0.00  0.00    +0.000 C 
ATOM     27  C   UNL     1       1.902  10.332  17.978  0.00  0.00    +0.000 C 
ENDBRANCH  21  22
ENDBRANCH  20  21
ENDBRANCH   5  20
TORSDOF 8
ENDMDL
