MODEL 1
REMARK VINA RESULT:      -7.1      0.000      0.000
REMARK  Name = 
REMARK  9 active torsions:
REMARK  status: ('A' for Active; 'I' for Inactive)
REMARK    1  A    between atoms: C_1  and  C_2
REMARK    2  A    between atoms: C_2  and  C_3
REMARK    3  A    between atoms: C_3  and  C_4
REMARK    4  A    between atoms: C_5  and  C_6
REMARK    5  A    between atoms: C_7  and  C_8
REMARK    6  A    between atoms: C_10  and  O_11
REMARK    7  A    between atoms: C_12  and  O_13
REMARK    8  A    between atoms: C_16  and  C_17
REMARK    9  A    between atoms: C_17  and  O_18
REMARK                            x       y       z     vdW  Elec       q    Type
REMARK                         _______ _______ _______ _____ _____    ______ ____
ROOT
ATOM      1  C   UNL     1       5.812   6.096  16.073  0.00  0.00    +0.000 C 
ATOM      2  C   UNL     1       4.632   5.877  17.037  0.00  0.00    +0.000 C 
ATOM      3  C   UNL     1       4.739   4.537  17.772  0.00  0.00    +0.000 C 
ATOM      4  C   UNL     1       6.062   4.390  18.542  0.00  0.00    +0.000 C 
ATOM      5  C   UNL     1       7.255   4.782  17.662  0.00  0.00    +0.000 C 
ATOM      6  O   UNL     1       8.294   4.116  17.647  0.00  0.00    +0.000 OA
ATOM      7  C   UNL     1       7.153   6.062  16.845  0.00  0.00    +0.000 C 
ENDROOT
BRANCH   1   9
ATOM      8  C   UNL     1       6.689   4.737  14.085  0.00  0.00    +0.000 C 
ATOM      9  C   UNL     1       5.705   5.094  14.924  0.00  0.00    +0.000 C 
BRANCH   8  11
ATOM     10  C   UNL     1       5.394   3.456  12.493  0.00  0.00    +0.000 C 
ATOM     11  C   UNL     1       6.575   3.721  13.064  0.00  0.00    +0.000 C 
BRANCH  10  12
ATOM     12  C   UNL     1       5.184   2.425  11.423  0.00  0.00    +0.000 C 
BRANCH  12  14
ATOM     13  C   UNL     1       6.141   0.109  11.265  0.00  0.00    +0.000 C 
ATOM     14  C   UNL     1       6.448   1.596  11.191  0.00  0.00    +0.000 C 
ENDBRANCH  12  14
ENDBRANCH  10  12
ENDBRANCH   8  11
ENDBRANCH   1   9
BRANCH   3  15
ATOM     15  O   UNL     1       3.620   4.437  18.658  0.00  0.00    +0.000 OA
ATOM     16  H   UNL     1       2.969   5.118  18.405  0.00  0.00    +0.000 HD
ENDBRANCH   3  15
BRANCH   4  17
ATOM     17  O   UNL     1       6.012   5.123  19.767  0.00  0.00    +0.000 OA
ATOM     18  H   UNL     1       6.545   5.930  19.693  0.00  0.00    +0.000 HD
ENDBRANCH   4  17
BRANCH   7  19
ATOM     19  C   UNL     1       7.401   7.262  17.760  0.00  0.00    +0.000 C 
BRANCH  19  20
ATOM     20  O   UNL     1       8.291   6.926  18.812  0.00  0.00    +0.000 OA
ATOM     21  H   UNL     1       7.755   6.583  19.555  0.00  0.00    +0.000 HD
ENDBRANCH  19  20
ENDBRANCH   7  19
TORSDOF 8
ENDMDL
MODEL 2
REMARK VINA RESULT:      -6.7      2.555      3.693
REMARK  Name = 
REMARK  9 active torsions:
REMARK  status: ('A' for Active; 'I' for Inactive)
REMARK    1  A    between atoms: C_1  and  C_2
REMARK    2  A    between atoms: C_2  and  C_3
REMARK    3  A    between atoms: C_3  and  C_4
REMARK    4  A    between atoms: C_5  and  C_6
REMARK    5  A    between atoms: C_7  and  C_8
REMARK    6  A    between atoms: C_10  and  O_11
REMARK    7  A    between atoms: C_12  and  O_13
REMARK    8  A    between atoms: C_16  and  C_17
REMARK    9  A    between atoms: C_17  and  O_18
REMARK                            x       y       z     vdW  Elec       q    Type
REMARK                         _______ _______ _______ _____ _____    ______ ____
ROOT
ATOM      1  C   UNL     1       3.246   4.545  17.738  0.00  0.00    +0.000 C 
ATOM      2  C   UNL     1       1.888   3.821  17.746  0.00  0.00    +0.000 C 
ATOM      3  C   UNL     1       2.033   2.343  18.123  0.00  0.00    +0.000 C 
ATOM      4  C   UNL     1       2.724   2.146  19.483  0.00  0.00    +0.000 C 
ATOM      5  C   UNL     1       3.992   3.003  19.582  0.00  0.00    +0.000 C 
ATOM      6  O   UNL     1       5.039   2.557  20.059  0.00  0.00    +0.000 OA
ATOM      7  C   UNL     1       3.913   4.455  19.132  0.00  0.00    +0.000 C 
ENDROOT
BRANCH   1   9
ATOM      8  C   UNL     1       5.169   4.589  16.046  0.00  0.00    +0.000 C 
ATOM      9  C   UNL     1       4.089   4.004  16.585  0.00  0.00    +0.000 C 
BRANCH   8  11
ATOM     10  C   UNL     1       5.609   4.038  13.732  0.00  0.00    +0.000 C 
ATOM     11  C   UNL     1       5.994   4.006  15.013  0.00  0.00    +0.000 C 
BRANCH  10  12
ATOM     12  C   UNL     1       6.403   3.466  12.594  0.00  0.00    +0.000 C 
BRANCH  12  14
ATOM     13  C   UNL     1       4.177   3.282  11.447  0.00  0.00    +0.000 C 
ATOM     14  C   UNL     1       5.525   2.617  11.673  0.00  0.00    +0.000 C 
ENDBRANCH  12  14
ENDBRANCH  10  12
ENDBRANCH   8  11
ENDBRANCH   1   9
BRANCH   3  15
ATOM     15  O   UNL     1       0.723   1.766  18.129  0.00  0.00    +0.000 OA
ATOM     16  H   UNL     1       0.222   2.141  17.381  0.00  0.00    +0.000 HD
ENDBRANCH   3  15
BRANCH   4  17
ATOM     17  O   UNL     1       1.806   2.388  20.550  0.00  0.00    +0.000 OA
ATOM     18  H   UNL     1       1.985   1.782  21.286  0.00  0.00    +0.000 HD
ENDBRANCH   4  17
BRANCH   7  19
ATOM     19  C   UNL     1       3.237   5.283  20.225  0.00  0.00    +0.000 C 
BRANCH  19  20
ATOM     20  O   UNL     1       2.940   6.591  19.764  0.00  0.00    +0.000 OA
ATOM     21  H   UNL     1       2.216   6.518  19.111  0.00  0.00    +0.000 HD
ENDBRANCH  19  20
ENDBRANCH   7  19
TORSDOF 8
ENDMDL
MODEL 3
REMARK VINA RESULT:      -6.7      2.562      3.923
REMARK  Name = 
REMARK  9 active torsions:
REMARK  status: ('A' for Active; 'I' for Inactive)
REMARK    1  A    between atoms: C_1  and  C_2
REMARK    2  A    between atoms: C_2  and  C_3
REMARK    3  A    between atoms: C_3  and  C_4
REMARK    4  A    between atoms: C_5  and  C_6
REMARK    5  A    between atoms: C_7  and  C_8
REMARK    6  A    between atoms: C_10  and  O_11
REMARK    7  A    between atoms: C_12  and  O_13
REMARK    8  A    between atoms: C_16  and  C_17
REMARK    9  A    between atoms: C_17  and  O_18
REMARK                            x       y       z     vdW  Elec       q    Type
REMARK                         _______ _______ _______ _____ _____    ______ ____
ROOT
ATOM      1  C   UNL     1       4.729   3.906  18.074  0.00  0.00    +0.000 C 
ATOM      2  C   UNL     1       4.316   5.275  18.644  0.00  0.00    +0.000 C 
ATOM      3  C   UNL     1       2.867   5.626  18.289  0.00  0.00    +0.000 C 
ATOM      4  C   UNL     1       1.868   4.555  18.758  0.00  0.00    +0.000 C 
ATOM      5  C   UNL     1       2.346   3.151  18.366  0.00  0.00    +0.000 C 
ATOM      6  O   UNL     1       1.571   2.309  17.906  0.00  0.00    +0.000 OA
ATOM      7  C   UNL     1       3.803   2.792  18.621  0.00  0.00    +0.000 C 
ENDROOT
BRANCH   1   9
ATOM      8  C   UNL     1       5.632   4.761  15.834  0.00  0.00    +0.000 C 
ATOM      9  C   UNL     1       4.790   4.002  16.550  0.00  0.00    +0.000 C 
BRANCH   8  11
ATOM     10  C   UNL     1       6.247   3.718  13.739  0.00  0.00    +0.000 C 
ATOM     11  C   UNL     1       5.720   4.761  14.392  0.00  0.00    +0.000 C 
BRANCH  10  12
ATOM     12  C   UNL     1       6.373   3.629  12.246  0.00  0.00    +0.000 C 
BRANCH  12  14
ATOM     13  C   UNL     1       4.091   3.247  11.272  0.00  0.00    +0.000 C 
ATOM     14  C   UNL     1       5.407   2.595  11.667  0.00  0.00    +0.000 C 
ENDBRANCH  12  14
ENDBRANCH  10  12
ENDBRANCH   8  11
ENDBRANCH   1   9
BRANCH   3  15
ATOM     15  O   UNL     1       2.570   6.894  18.880  0.00  0.00    +0.000 OA
ATOM     16  H   UNL     1       3.409   7.372  19.014  0.00  0.00    +0.000 HD
ENDBRANCH   3  15
BRANCH   4  17
ATOM     17  O   UNL     1       1.617   4.685  20.158  0.00  0.00    +0.000 OA
ATOM     18  H   UNL     1       1.336   3.832  20.525  0.00  0.00    +0.000 HD
ENDBRANCH   4  17
BRANCH   7  19
ATOM     19  C   UNL     1       3.989   2.471  20.104  0.00  0.00    +0.000 C 
BRANCH  19  20
ATOM     20  O   UNL     1       5.183   1.736  20.320  0.00  0.00    +0.000 OA
ATOM     21  H   UNL     1       5.935   2.335  20.147  0.00  0.00    +0.000 HD
ENDBRANCH  19  20
ENDBRANCH   7  19
TORSDOF 8
ENDMDL
MODEL 4
REMARK VINA RESULT:      -6.6      1.012      1.415
REMARK  Name = 
REMARK  9 active torsions:
REMARK  status: ('A' for Active; 'I' for Inactive)
REMARK    1  A    between atoms: C_1  and  C_2
REMARK    2  A    between atoms: C_2  and  C_3
REMARK    3  A    between atoms: C_3  and  C_4
REMARK    4  A    between atoms: C_5  and  C_6
REMARK    5  A    between atoms: C_7  and  C_8
REMARK    6  A    between atoms: C_10  and  O_11
REMARK    7  A    between atoms: C_12  and  O_13
REMARK    8  A    between atoms: C_16  and  C_17
REMARK    9  A    between atoms: C_17  and  O_18
REMARK                            x       y       z     vdW  Elec       q    Type
REMARK                         _______ _______ _______ _____ _____    ______ ____
ROOT
ATOM      1  C   UNL     1       5.879   6.416  16.256  0.00  0.00    +0.000 C 
ATOM      2  C   UNL     1       4.724   6.185  17.247  0.00  0.00    +0.000 C 
ATOM      3  C   UNL     1       4.757   4.772  17.839  0.00  0.00    +0.000 C 
ATOM      4  C   UNL     1       6.093   4.451  18.528  0.00  0.00    +0.000 C 
ATOM      5  C   UNL     1       7.278   4.845  17.637  0.00  0.00    +0.000 C 
ATOM      6  O   UNL     1       8.261   4.112  17.508  0.00  0.00    +0.000 OA
ATOM      7  C   UNL     1       7.243   6.207  16.959  0.00  0.00    +0.000 C 
ENDROOT
BRANCH   1   9
ATOM      8  C   UNL     1       6.485   4.615  14.539  0.00  0.00    +0.000 C 
ATOM      9  C   UNL     1       5.652   5.549  15.019  0.00  0.00    +0.000 C 
BRANCH   8  11
ATOM     10  C   UNL     1       5.042   3.856  12.751  0.00  0.00    +0.000 C 
ATOM     11  C   UNL     1       6.199   3.752  13.416  0.00  0.00    +0.000 C 
BRANCH  10  12
ATOM     12  C   UNL     1       4.662   3.009  11.572  0.00  0.00    +0.000 C 
BRANCH  12  14
ATOM     13  C   UNL     1       2.744   3.014   9.953  0.00  0.00    +0.000 C 
ATOM     14  C   UNL     1       3.898   3.821  10.525  0.00  0.00    +0.000 C 
ENDBRANCH  12  14
ENDBRANCH  10  12
ENDBRANCH   8  11
ENDBRANCH   1   9
BRANCH   3  15
ATOM     15  O   UNL     1       3.668   4.662  18.761  0.00  0.00    +0.000 OA
ATOM     16  H   UNL     1       2.837   4.652  18.251  0.00  0.00    +0.000 HD
ENDBRANCH   3  15
BRANCH   4  17
ATOM     17  O   UNL     1       6.147   5.056  19.821  0.00  0.00    +0.000 OA
ATOM     18  H   UNL     1       5.358   5.601  19.966  0.00  0.00    +0.000 HD
ENDBRANCH   4  17
BRANCH   7  19
ATOM     19  C   UNL     1       7.616   7.285  17.976  0.00  0.00    +0.000 C 
BRANCH  19  20
ATOM     20  O   UNL     1       8.462   6.761  18.987  0.00  0.00    +0.000 OA
ATOM     21  H   UNL     1       8.601   7.465  19.651  0.00  0.00    +0.000 HD
ENDBRANCH  19  20
ENDBRANCH   7  19
TORSDOF 8
ENDMDL
MODEL 5
REMARK VINA RESULT:      -6.6      2.956      6.912
REMARK  Name = 
REMARK  9 active torsions:
REMARK  status: ('A' for Active; 'I' for Inactive)
REMARK    1  A    between atoms: C_1  and  C_2
REMARK    2  A    between atoms: C_2  and  C_3
REMARK    3  A    between atoms: C_3  and  C_4
REMARK    4  A    between atoms: C_5  and  C_6
REMARK    5  A    between atoms: C_7  and  C_8
REMARK    6  A    between atoms: C_10  and  O_11
REMARK    7  A    between atoms: C_12  and  O_13
REMARK    8  A    between atoms: C_16  and  C_17
REMARK    9  A    between atoms: C_17  and  O_18
REMARK                            x       y       z     vdW  Elec       q    Type
REMARK                         _______ _______ _______ _____ _____    ______ ____
ROOT
ATOM      1  C   UNL     1       7.352   5.533  17.749  0.00  0.00    +0.000 C 
ATOM      2  C   UNL     1       6.335   4.919  18.728  0.00  0.00    +0.000 C 
ATOM      3  C   UNL     1       4.986   5.644  18.677  0.00  0.00    +0.000 C 
ATOM      4  C   UNL     1       4.384   5.672  17.263  0.00  0.00    +0.000 C 
ATOM      5  C   UNL     1       5.431   6.104  16.228  0.00  0.00    +0.000 C 
ATOM      6  O   UNL     1       5.158   6.901  15.327  0.00  0.00    +0.000 OA
ATOM      7  C   UNL     1       6.813   5.471  16.300  0.00  0.00    +0.000 C 
ENDROOT
BRANCH   1   9
ATOM      8  C   UNL     1       7.919   8.016  17.473  0.00  0.00    +0.000 C 
ATOM      9  C   UNL     1       7.726   6.932  18.238  0.00  0.00    +0.000 C 
BRANCH   8  11
ATOM     10  C   UNL     1       9.084   9.538  18.949  0.00  0.00    +0.000 C 
ATOM     11  C   UNL     1       8.186   9.344  17.976  0.00  0.00    +0.000 C 
BRANCH  10  12
ATOM     12  C   UNL     1       9.431  10.879  19.527  0.00  0.00    +0.000 C 
BRANCH  12  14
ATOM     13  C   UNL     1      11.812  11.603  19.191  0.00  0.00    +0.000 C 
ATOM     14  C   UNL     1      10.402  11.642  18.624  0.00  0.00    +0.000 C 
ENDBRANCH  12  14
ENDBRANCH  10  12
ENDBRANCH   8  11
ENDBRANCH   1   9
BRANCH   3  15
ATOM     15  O   UNL     1       4.106   4.989  19.594  0.00  0.00    +0.000 OA
ATOM     16  H   UNL     1       3.505   4.416  19.083  0.00  0.00    +0.000 HD
ENDBRANCH   3  15
BRANCH   4  17
ATOM     17  O   UNL     1       3.783   4.414  16.951  0.00  0.00    +0.000 OA
ATOM     18  H   UNL     1       2.817   4.503  16.928  0.00  0.00    +0.000 HD
ENDBRANCH   4  17
BRANCH   7  19
ATOM     19  C   UNL     1       6.754   4.069  15.694  0.00  0.00    +0.000 C 
BRANCH  19  20
ATOM     20  O   UNL     1       5.797   4.004  14.649  0.00  0.00    +0.000 OA
ATOM     21  H   UNL     1       6.209   4.382  13.847  0.00  0.00    +0.000 HD
ENDBRANCH  19  20
ENDBRANCH   7  19
TORSDOF 8
ENDMDL
MODEL 6
REMARK VINA RESULT:      -6.6      2.533      3.711
REMARK  Name = 
REMARK  9 active torsions:
REMARK  status: ('A' for Active; 'I' for Inactive)
REMARK    1  A    between atoms: C_1  and  C_2
REMARK    2  A    between atoms: C_2  and  C_3
REMARK    3  A    between atoms: C_3  and  C_4
REMARK    4  A    between atoms: C_5  and  C_6
REMARK    5  A    between atoms: C_7  and  C_8
REMARK    6  A    between atoms: C_10  and  O_11
REMARK    7  A    between atoms: C_12  and  O_13
REMARK    8  A    between atoms: C_16  and  C_17
REMARK    9  A    between atoms: C_17  and  O_18
REMARK                            x       y       z     vdW  Elec       q    Type
REMARK                         _______ _______ _______ _____ _____    ______ ____
ROOT
ATOM      1  C   UNL     1       5.188   4.131  17.233  0.00  0.00    +0.000 C 
ATOM      2  C   UNL     1       5.134   5.606  17.667  0.00  0.00    +0.000 C 
ATOM      3  C   UNL     1       3.776   6.243  17.351  0.00  0.00    +0.000 C 
ATOM      4  C   UNL     1       2.604   5.479  17.988  0.00  0.00    +0.000 C 
ATOM      5  C   UNL     1       2.727   3.972  17.732  0.00  0.00    +0.000 C 
ATOM      6  O   UNL     1       1.751   3.289  17.410  0.00  0.00    +0.000 OA
ATOM      7  C   UNL     1       4.083   3.316  17.949  0.00  0.00    +0.000 C 
ENDROOT
BRANCH   1   9
ATOM      8  C   UNL     1       6.189   4.251  14.878  0.00  0.00    +0.000 C 
ATOM      9  C   UNL     1       5.152   4.061  15.707  0.00  0.00    +0.000 C 
BRANCH   8  11
ATOM     10  C   UNL     1       5.092   3.497  12.858  0.00  0.00    +0.000 C 
ATOM     11  C   UNL     1       6.138   4.092  13.443  0.00  0.00    +0.000 C 
BRANCH  10  12
ATOM     12  C   UNL     1       4.950   3.295  11.378  0.00  0.00    +0.000 C 
BRANCH  12  14
ATOM     13  C   UNL     1       3.149   4.034   9.792  0.00  0.00    +0.000 C 
ATOM     14  C   UNL     1       3.483   3.137  10.974  0.00  0.00    +0.000 C 
ENDBRANCH  12  14
ENDBRANCH  10  12
ENDBRANCH   8  11
ENDBRANCH   1   9
BRANCH   3  15
ATOM     15  O   UNL     1       3.814   7.597  17.811  0.00  0.00    +0.000 OA
ATOM     16  H   UNL     1       4.744   7.887  17.827  0.00  0.00    +0.000 HD
ENDBRANCH   3  15
BRANCH   4  17
ATOM     17  O   UNL     1       2.495   5.799  19.376  0.00  0.00    +0.000 OA
ATOM     18  H   UNL     1       2.598   6.754  19.507  0.00  0.00    +0.000 HD
ENDBRANCH   4  17
BRANCH   7  19
ATOM     19  C   UNL     1       4.305   3.107  19.447  0.00  0.00    +0.000 C 
BRANCH  19  20
ATOM     20  O   UNL     1       3.079   2.854  20.114  0.00  0.00    +0.000 OA
ATOM     21  H   UNL     1       2.667   3.718  20.313  0.00  0.00    +0.000 HD
ENDBRANCH  19  20
ENDBRANCH   7  19
TORSDOF 8
ENDMDL
MODEL 7
REMARK VINA RESULT:      -6.5      2.771      4.799
REMARK  Name = 
REMARK  9 active torsions:
REMARK  status: ('A' for Active; 'I' for Inactive)
REMARK    1  A    between atoms: C_1  and  C_2
REMARK    2  A    between atoms: C_2  and  C_3
REMARK    3  A    between atoms: C_3  and  C_4
REMARK    4  A    between atoms: C_5  and  C_6
REMARK    5  A    between atoms: C_7  and  C_8
REMARK    6  A    between atoms: C_10  and  O_11
REMARK    7  A    between atoms: C_12  and  O_13
REMARK    8  A    between atoms: C_16  and  C_17
REMARK    9  A    between atoms: C_17  and  O_18
REMARK                            x       y       z     vdW  Elec       q    Type
REMARK                         _______ _______ _______ _____ _____    ______ ____
ROOT
ATOM      1  C   UNL     1       2.700   2.801  17.582  0.00  0.00    +0.000 C 
ATOM      2  C   UNL     1       3.590   1.872  18.427  0.00  0.00    +0.000 C 
ATOM      3  C   UNL     1       4.386   2.650  19.480  0.00  0.00    +0.000 C 
ATOM      4  C   UNL     1       3.484   3.479  20.410  0.00  0.00    +0.000 C 
ATOM      5  C   UNL     1       2.455   4.280  19.603  0.00  0.00    +0.000 C 
ATOM      6  O   UNL     1       2.194   5.456  19.873  0.00  0.00    +0.000 OA
ATOM      7  C   UNL     1       1.705   3.566  18.487  0.00  0.00    +0.000 C 
ENDROOT
BRANCH   1   9
ATOM      8  C   UNL     1       4.933   3.657  16.661  0.00  0.00    +0.000 C 
ATOM      9  C   UNL     1       3.594   3.687  16.714  0.00  0.00    +0.000 C 
BRANCH   8  11
ATOM     10  C   UNL     1       6.130   3.959  14.581  0.00  0.00    +0.000 C 
ATOM     11  C   UNL     1       5.742   4.449  15.764  0.00  0.00    +0.000 C 
BRANCH  10  12
ATOM     12  C   UNL     1       6.963   4.711  13.584  0.00  0.00    +0.000 C 
BRANCH  12  14
ATOM     13  C   UNL     1       5.700   3.195  12.032  0.00  0.00    +0.000 C 
ATOM     14  C   UNL     1       6.966   4.015  12.222  0.00  0.00    +0.000 C 
ENDBRANCH  12  14
ENDBRANCH  10  12
ENDBRANCH   8  11
ENDBRANCH   1   9
BRANCH   3  15
ATOM     15  O   UNL     1       5.157   1.705  20.228  0.00  0.00    +0.000 OA
ATOM     16  H   UNL     1       4.562   0.988  20.518  0.00  0.00    +0.000 HD
ENDBRANCH   3  15
BRANCH   4  17
ATOM     17  O   UNL     1       2.883   2.642  21.399  0.00  0.00    +0.000 OA
ATOM     18  H   UNL     1       2.540   3.183  22.128  0.00  0.00    +0.000 HD
ENDBRANCH   4  17
BRANCH   7  19
ATOM     19  C   UNL     1       0.597   2.708  19.097  0.00  0.00    +0.000 C 
BRANCH  19  20
ATOM     20  O   UNL     1       0.282   3.139  20.411  0.00  0.00    +0.000 OA
ATOM     21  H   UNL     1      -0.590   3.579  20.377  0.00  0.00    +0.000 HD
ENDBRANCH  19  20
ENDBRANCH   7  19
TORSDOF 8
ENDMDL
MODEL 8
REMARK VINA RESULT:      -6.5      4.085      7.518
REMARK  Name = 
REMARK  9 active torsions:
REMARK  status: ('A' for Active; 'I' for Inactive)
REMARK    1  A    between atoms: C_1  and  C_2
REMARK    2  A    between atoms: C_2  and  C_3
REMARK    3  A    between atoms: C_3  and  C_4
REMARK    4  A    between atoms: C_5  and  C_6
REMARK    5  A    between atoms: C_7  and  C_8
REMARK    6  A    between atoms: C_10  and  O_11
REMARK    7  A    between atoms: C_12  and  O_13
REMARK    8  A    between atoms: C_16  and  C_17
REMARK    9  A    between atoms: C_17  and  O_18
REMARK                            x       y       z     vdW  Elec       q    Type
REMARK                         _______ _______ _______ _____ _____    ______ ____
ROOT
ATOM      1  C   UNL     1       2.997   4.903  17.732  0.00  0.00    +0.000 C 
ATOM      2  C   UNL     1       4.493   4.584  17.555  0.00  0.00    +0.000 C 
ATOM      3  C   UNL     1       5.208   4.444  18.903  0.00  0.00    +0.000 C 
ATOM      4  C   UNL     1       4.563   3.380  19.806  0.00  0.00    +0.000 C 
ATOM      5  C   UNL     1       3.040   3.555  19.857  0.00  0.00    +0.000 C 
ATOM      6  O   UNL     1       2.414   3.461  20.916  0.00  0.00    +0.000 OA
ATOM      7  C   UNL     1       2.300   3.786  18.547  0.00  0.00    +0.000 C 
ENDROOT
BRANCH   1   9
ATOM      8  C   UNL     1       2.419   7.398  17.665  0.00  0.00    +0.000 C 
ATOM      9  C   UNL     1       2.856   6.308  18.314  0.00  0.00    +0.000 C 
BRANCH   8  11
ATOM     10  C   UNL     1       1.095   9.387  18.040  0.00  0.00    +0.000 C 
ATOM     11  C   UNL     1       2.216   8.693  18.271  0.00  0.00    +0.000 C 
BRANCH  10  12
ATOM     12  C   UNL     1       0.795  10.734  18.631  0.00  0.00    +0.000 C 
BRANCH  12  14
ATOM     13  C   UNL     1      -1.510  10.229  17.772  0.00  0.00    +0.000 C 
ATOM     14  C   UNL     1      -0.705  10.920  18.862  0.00  0.00    +0.000 C 
ENDBRANCH  12  14
ENDBRANCH  10  12
ENDBRANCH   8  11
ENDBRANCH   1   9
BRANCH   3  15
ATOM     15  O   UNL     1       6.577   4.124  18.636  0.00  0.00    +0.000 OA
ATOM     16  H   UNL     1       6.648   3.837  17.707  0.00  0.00    +0.000 HD
ENDBRANCH   3  15
BRANCH   4  17
ATOM     17  O   UNL     1       4.957   2.070  19.395  0.00  0.00    +0.000 OA
ATOM     18  H   UNL     1       5.864   2.088  19.052  0.00  0.00    +0.000 HD
ENDBRANCH   4  17
BRANCH   7  19
ATOM     19  C   UNL     1       2.149   2.452  17.814  0.00  0.00    +0.000 C 
BRANCH  19  20
ATOM     20  O   UNL     1       1.984   1.383  18.731  0.00  0.00    +0.000 OA
ATOM     21  H   UNL     1       1.106   1.483  19.148  0.00  0.00    +0.000 HD
ENDBRANCH  19  20
ENDBRANCH   7  19
TORSDOF 8
ENDMDL
MODEL 9
REMARK VINA RESULT:      -6.4      2.027      3.118
REMARK  Name = 
REMARK  9 active torsions:
REMARK  status: ('A' for Active; 'I' for Inactive)
REMARK    1  A    between atoms: C_1  and  C_2
REMARK    2  A    between atoms: C_2  and  C_3
REMARK    3  A    between atoms: C_3  and  C_4
REMARK    4  A    between atoms: C_5  and  C_6
REMARK    5  A    between atoms: C_7  and  C_8
REMARK    6  A    between atoms: C_10  and  O_11
REMARK    7  A    between atoms: C_12  and  O_13
REMARK    8  A    between atoms: C_16  and  C_17
REMARK    9  A    between atoms: C_17  and  O_18
REMARK                            x       y       z     vdW  Elec       q    Type
REMARK                         _______ _______ _______ _____ _____    ______ ____
ROOT
ATOM      1  C   UNL     1       3.352   4.701  17.306  0.00  0.00    +0.000 C 
ATOM      2  C   UNL     1       2.531   3.454  17.680  0.00  0.00    +0.000 C 
ATOM      3  C   UNL     1       3.421   2.325  18.212  0.00  0.00    +0.000 C 
ATOM      4  C   UNL     1       4.268   2.761  19.419  0.00  0.00    +0.000 C 
ATOM      5  C   UNL     1       4.958   4.105  19.149  0.00  0.00    +0.000 C 
ATOM      6  O   UNL     1       6.135   4.302  19.462  0.00  0.00    +0.000 OA
ATOM      7  C   UNL     1       4.129   5.225  18.538  0.00  0.00    +0.000 C 
ENDROOT
BRANCH   1   9
ATOM      8  C   UNL     1       5.545   4.532  15.992  0.00  0.00    +0.000 C 
ATOM      9  C   UNL     1       4.216   4.378  16.088  0.00  0.00    +0.000 C 
BRANCH   8  11
ATOM     10  C   UNL     1       5.771   3.905  13.667  0.00  0.00    +0.000 C 
ATOM     11  C   UNL     1       6.342   4.135  14.855  0.00  0.00    +0.000 C 
BRANCH  10  12
ATOM     12  C   UNL     1       6.519   3.496  12.432  0.00  0.00    +0.000 C 
BRANCH  12  14
ATOM     13  C   UNL     1       4.256   3.155  11.399  0.00  0.00    +0.000 C 
ATOM     14  C   UNL     1       5.665   2.599  11.535  0.00  0.00    +0.000 C 
ENDBRANCH  12  14
ENDBRANCH  10  12
ENDBRANCH   8  11
ENDBRANCH   1   9
BRANCH   3  15
ATOM     15  O   UNL     1       2.572   1.227  18.555  0.00  0.00    +0.000 OA
ATOM     16  H   UNL     1       2.323   0.765  17.733  0.00  0.00    +0.000 HD
ENDBRANCH   3  15
BRANCH   4  17
ATOM     17  O   UNL     1       3.476   2.773  20.608  0.00  0.00    +0.000 OA
ATOM     18  H   UNL     1       3.879   3.356  21.270  0.00  0.00    +0.000 HD
ENDBRANCH   4  17
BRANCH   7  19
ATOM     19  C   UNL     1       3.262   5.859  19.626  0.00  0.00    +0.000 C 
BRANCH  19  20
ATOM     20  O   UNL     1       2.531   6.963  19.117  0.00  0.00    +0.000 OA
ATOM     21  H   UNL     1       1.780   7.125  19.722  0.00  0.00    +0.000 HD
ENDBRANCH  19  20
ENDBRANCH   7  19
TORSDOF 8
ENDMDL
