MODEL 1
REMARK VINA RESULT:      -7.5      0.000      0.000
REMARK  Name = 
REMARK  2 active torsions:
REMARK  status: ('A' for Active; 'I' for Inactive)
REMARK    1  A    between atoms: C_6  and  C_7
REMARK    2  A    between atoms: C_20  and  C_21
REMARK                            x       y       z     vdW  Elec       q    Type
REMARK                         _______ _______ _______ _____ _____    ______ ____
ROOT
ATOM      1  O   UNL     1      -0.261  15.978  23.481  0.00  0.00    +0.000 OA
ATOM      2  C   UNL     1      -0.792  14.964  23.069  0.00  0.00    +0.000 C 
ATOM      3  N   UNL     1      -1.328  13.979  23.818  0.00  0.00    +0.000 N 
ATOM      4  C   UNL     1      -1.859  13.014  23.034  0.00  0.00    +0.000 C 
ATOM      5  O   UNL     1      -2.451  12.026  23.428  0.00  0.00    +0.000 OA
ATOM      6  C   UNL     1      -1.597  13.401  21.632  0.00  0.00    +0.000 C 
ATOM      7  C   UNL     1      -0.971  14.582  21.656  0.00  0.00    +0.000 C 
ATOM      8  H   UNL     1      -1.359  13.982  24.823  0.00  0.00    +0.000 HD
ENDROOT
BRANCH   6   9
ATOM      9  C   UNL     1      -1.993  12.616  20.517  0.00  0.00    +0.000 A 
ATOM     10  C   UNL     1      -3.256  12.649  19.962  0.00  0.00    +0.000 A 
ATOM     11  N   UNL     1      -3.261  11.767  18.917  0.00  0.00    +0.000 N 
ATOM     12  C   UNL     1      -2.008  11.228  18.727  0.00  0.00    +0.000 A 
ATOM     13  C   UNL     1      -1.559  10.378  17.696  0.00  0.00    +0.000 A 
ATOM     14  C   UNL     1      -0.266   9.856  17.860  0.00  0.00    +0.000 A 
ATOM     15  C   UNL     1       0.545  10.233  18.931  0.00  0.00    +0.000 A 
ATOM     16  C   UNL     1       0.103  11.171  19.874  0.00  0.00    +0.000 A 
ATOM     17  C   UNL     1      -1.207  11.679  19.776  0.00  0.00    +0.000 A 
ATOM     18  C   UNL     1      -2.403  10.036  16.488  0.00  0.00    +0.000 C 
ATOM     19  N   UNL     1      -3.110  11.200  15.950  0.00  0.00    +0.000 NA
ATOM     20  C   UNL     1      -4.327  11.600  16.670  0.00  0.00    +0.000 C 
ATOM     21  C   UNL     1      -4.422  11.322  18.176  0.00  0.00    +0.000 C 
ATOM     22  H   UNL     1      -3.323  11.064  14.965  0.00  0.00    +0.000 HD
ENDBRANCH   6   9
BRANCH   7  23
ATOM     23  C   UNL     1      -0.522  15.375  20.515  0.00  0.00    +0.000 A 
ATOM     24  C   UNL     1      -1.401  16.308  19.930  0.00  0.00    +0.000 A 
ATOM     25  C   UNL     1      -0.969  17.158  18.908  0.00  0.00    +0.000 A 
ATOM     26  C   UNL     1       0.341  17.044  18.481  0.00  0.00    +0.000 A 
ATOM     27  C   UNL     1       1.191  16.075  18.999  0.00  0.00    +0.000 A 
ATOM     28  C   UNL     1       0.788  15.242  20.030  0.00  0.00    +0.000 A 
ATOM     29  C   UNL     1       2.469  16.130  18.243  0.00  0.00    +0.000 C 
ATOM     30  O   UNL     1       2.468  17.483  17.728  0.00  0.00    +0.000 OA
ATOM     31  C   UNL     1       1.086  17.847  17.476  0.00  0.00    +0.000 C 
ENDBRANCH   7  23
TORSDOF 2
ENDMDL
MODEL 2
REMARK VINA RESULT:      -7.3      1.032      1.571
REMARK  Name = 
REMARK  2 active torsions:
REMARK  status: ('A' for Active; 'I' for Inactive)
REMARK    1  A    between atoms: C_6  and  C_7
REMARK    2  A    between atoms: C_20  and  C_21
REMARK                            x       y       z     vdW  Elec       q    Type
REMARK                         _______ _______ _______ _____ _____    ______ ____
ROOT
ATOM      1  O   UNL     1      -1.451  15.938  24.008  0.00  0.00    +0.000 OA
ATOM      2  C   UNL     1      -1.895  14.933  23.488  0.00  0.00    +0.000 C 
ATOM      3  N   UNL     1      -2.560  13.937  24.107  0.00  0.00    +0.000 N 
ATOM      4  C   UNL     1      -2.935  12.986  23.222  0.00  0.00    +0.000 C 
ATOM      5  O   UNL     1      -3.590  11.993  23.482  0.00  0.00    +0.000 OA
ATOM      6  C   UNL     1      -2.419  13.396  21.899  0.00  0.00    +0.000 C 
ATOM      7  C   UNL     1      -1.809  14.576  22.059  0.00  0.00    +0.000 C 
ATOM      8  H   UNL     1      -2.776  13.922  25.088  0.00  0.00    +0.000 HD
ENDROOT
BRANCH   6   9
ATOM      9  C   UNL     1      -2.601  12.632  20.717  0.00  0.00    +0.000 A 
ATOM     10  C   UNL     1      -3.778  12.593  19.999  0.00  0.00    +0.000 A 
ATOM     11  N   UNL     1      -3.576  11.758  18.936  0.00  0.00    +0.000 N 
ATOM     12  C   UNL     1      -2.269  11.324  18.898  0.00  0.00    +0.000 A 
ATOM     13  C   UNL     1      -1.621  10.555  17.909  0.00  0.00    +0.000 A 
ATOM     14  C   UNL     1      -0.323  10.126  18.228  0.00  0.00    +0.000 A 
ATOM     15  C   UNL     1       0.308  10.518  19.410  0.00  0.00    +0.000 A 
ATOM     16  C   UNL     1      -0.328  11.379  20.314  0.00  0.00    +0.000 A 
ATOM     17  C   UNL     1      -1.651  11.789  20.058  0.00  0.00    +0.000 A 
ATOM     18  C   UNL     1      -2.270  10.201  16.588  0.00  0.00    +0.000 C 
ATOM     19  N   UNL     1      -2.992  11.330  15.998  0.00  0.00    +0.000 NA
ATOM     20  C   UNL     1      -4.321  11.605  16.561  0.00  0.00    +0.000 C 
ATOM     21  C   UNL     1      -4.589  11.257  18.031  0.00  0.00    +0.000 C 
ATOM     22  H   UNL     1      -3.062  11.220  14.990  0.00  0.00    +0.000 HD
ENDBRANCH   6   9
BRANCH   7  23
ATOM     23  C   UNL     1      -1.157  15.387  21.035  0.00  0.00    +0.000 A 
ATOM     24  C   UNL     1       0.188  15.129  20.698  0.00  0.00    +0.000 A 
ATOM     25  C   UNL     1       0.808  15.814  19.649  0.00  0.00    +0.000 A 
ATOM     26  C   UNL     1       0.068  16.759  18.965  0.00  0.00    +0.000 A 
ATOM     27  C   UNL     1      -1.232  17.073  19.340  0.00  0.00    +0.000 A 
ATOM     28  C   UNL     1      -1.872  16.387  20.359  0.00  0.00    +0.000 A 
ATOM     29  C   UNL     1      -1.694  18.207  18.499  0.00  0.00    +0.000 C 
ATOM     30  O   UNL     1      -0.843  18.098  17.334  0.00  0.00    +0.000 OA
ATOM     31  C   UNL     1       0.436  17.580  17.781  0.00  0.00    +0.000 C 
ENDBRANCH   7  23
TORSDOF 2
ENDMDL
MODEL 3
REMARK VINA RESULT:      -7.2      2.392      6.147
REMARK  Name = 
REMARK  2 active torsions:
REMARK  status: ('A' for Active; 'I' for Inactive)
REMARK    1  A    between atoms: C_6  and  C_7
REMARK    2  A    between atoms: C_20  and  C_21
REMARK                            x       y       z     vdW  Elec       q    Type
REMARK                         _______ _______ _______ _____ _____    ______ ____
ROOT
ATOM      1  O   UNL     1      -3.079  11.908  22.999  0.00  0.00    +0.000 OA
ATOM      2  C   UNL     1      -2.208  12.743  22.842  0.00  0.00    +0.000 C 
ATOM      3  N   UNL     1      -1.804  13.659  23.744  0.00  0.00    +0.000 N 
ATOM      4  C   UNL     1      -0.796  14.411  23.248  0.00  0.00    +0.000 C 
ATOM      5  O   UNL     1      -0.199  15.285  23.851  0.00  0.00    +0.000 OA
ATOM      6  C   UNL     1      -0.557  13.956  21.862  0.00  0.00    +0.000 C 
ATOM      7  C   UNL     1      -1.396  12.942  21.627  0.00  0.00    +0.000 C 
ATOM      8  H   UNL     1      -2.179  13.746  24.673  0.00  0.00    +0.000 HD
ENDROOT
BRANCH   6   9
ATOM      9  C   UNL     1       0.422  14.529  21.009  0.00  0.00    +0.000 A 
ATOM     10  C   UNL     1       1.752  14.164  21.009  0.00  0.00    +0.000 A 
ATOM     11  N   UNL     1       2.381  14.926  20.064  0.00  0.00    +0.000 N 
ATOM     12  C   UNL     1       1.473  15.713  19.390  0.00  0.00    +0.000 A 
ATOM     13  C   UNL     1       1.686  16.547  18.273  0.00  0.00    +0.000 A 
ATOM     14  C   UNL     1       0.600  17.359  17.907  0.00  0.00    +0.000 A 
ATOM     15  C   UNL     1      -0.632  17.271  18.557  0.00  0.00    +0.000 A 
ATOM     16  C   UNL     1      -0.837  16.345  19.589  0.00  0.00    +0.000 A 
ATOM     17  C   UNL     1       0.242  15.550  20.023  0.00  0.00    +0.000 A 
ATOM     18  C   UNL     1       2.992  16.583  17.510  0.00  0.00    +0.000 C 
ATOM     19  N   UNL     1       3.550  15.246  17.292  0.00  0.00    +0.000 NA
ATOM     20  C   UNL     1       4.250  14.649  18.438  0.00  0.00    +0.000 C 
ATOM     21  C   UNL     1       3.809  15.032  19.856  0.00  0.00    +0.000 C 
ATOM     22  H   UNL     1       4.158  15.243  16.477  0.00  0.00    +0.000 HD
ENDBRANCH   6   9
BRANCH   7  23
ATOM     23  C   UNL     1      -1.522  12.157  20.402  0.00  0.00    +0.000 A 
ATOM     24  C   UNL     1      -0.559  11.169  20.109  0.00  0.00    +0.000 A 
ATOM     25  C   UNL     1      -0.707  10.329  19.003  0.00  0.00    +0.000 A 
ATOM     26  C   UNL     1      -1.818  10.504  18.200  0.00  0.00    +0.000 A 
ATOM     27  C   UNL     1      -2.732  11.525  18.438  0.00  0.00    +0.000 A 
ATOM     28  C   UNL     1      -2.614  12.350  19.544  0.00  0.00    +0.000 A 
ATOM     29  C   UNL     1      -3.722  11.525  17.331  0.00  0.00    +0.000 C 
ATOM     30  O   UNL     1      -3.639  10.167  16.838  0.00  0.00    +0.000 OA
ATOM     31  C   UNL     1      -2.268   9.727  17.015  0.00  0.00    +0.000 C 
ENDBRANCH   7  23
TORSDOF 2
ENDMDL
MODEL 4
REMARK VINA RESULT:      -7.1      8.443     11.366
REMARK  Name = 
REMARK  2 active torsions:
REMARK  status: ('A' for Active; 'I' for Inactive)
REMARK    1  A    between atoms: C_6  and  C_7
REMARK    2  A    between atoms: C_20  and  C_21
REMARK                            x       y       z     vdW  Elec       q    Type
REMARK                         _______ _______ _______ _____ _____    ______ ____
ROOT
ATOM      1  O   UNL     1       8.230   5.607  14.112  0.00  0.00    +0.000 OA
ATOM      2  C   UNL     1       7.187   5.137  14.523  0.00  0.00    +0.000 C 
ATOM      3  N   UNL     1       6.381   4.278  13.866  0.00  0.00    +0.000 N 
ATOM      4  C   UNL     1       5.318   3.937  14.628  0.00  0.00    +0.000 C 
ATOM      5  O   UNL     1       4.448   3.143  14.319  0.00  0.00    +0.000 OA
ATOM      6  C   UNL     1       5.431   4.692  15.894  0.00  0.00    +0.000 C 
ATOM      7  C   UNL     1       6.565   5.399  15.835  0.00  0.00    +0.000 C 
ATOM      8  H   UNL     1       6.567   3.914  12.948  0.00  0.00    +0.000 HD
ENDROOT
BRANCH   6   9
ATOM      9  C   UNL     1       4.479   4.608  16.944  0.00  0.00    +0.000 A 
ATOM     10  C   UNL     1       4.089   3.425  17.536  0.00  0.00    +0.000 A 
ATOM     11  N   UNL     1       3.167   3.738  18.495  0.00  0.00    +0.000 N 
ATOM     12  C   UNL     1       3.014   5.103  18.598  0.00  0.00    +0.000 A 
ATOM     13  C   UNL     1       2.259   5.839  19.534  0.00  0.00    +0.000 A 
ATOM     14  C   UNL     1       2.162   7.218  19.285  0.00  0.00    +0.000 A 
ATOM     15  C   UNL     1       2.847   7.821  18.229  0.00  0.00    +0.000 A 
ATOM     16  C   UNL     1       3.681   7.070  17.390  0.00  0.00    +0.000 A 
ATOM     17  C   UNL     1       3.764   5.676  17.572  0.00  0.00    +0.000 A 
ATOM     18  C   UNL     1       1.585   5.202  20.730  0.00  0.00    +0.000 C 
ATOM     19  N   UNL     1       2.439   4.213  21.392  0.00  0.00    +0.000 NA
ATOM     20  C   UNL     1       2.511   2.895  20.748  0.00  0.00    +0.000 C 
ATOM     21  C   UNL     1       2.337   2.804  19.227  0.00  0.00    +0.000 C 
ATOM     22  H   UNL     1       2.168   4.106  22.367  0.00  0.00    +0.000 HD
ENDBRANCH   6   9
BRANCH   7  23
ATOM     23  C   UNL     1       7.115   6.287  16.855  0.00  0.00    +0.000 A 
ATOM     24  C   UNL     1       7.640   5.738  18.043  0.00  0.00    +0.000 A 
ATOM     25  C   UNL     1       8.270   6.548  18.991  0.00  0.00    +0.000 A 
ATOM     26  C   UNL     1       8.350   7.904  18.734  0.00  0.00    +0.000 A 
ATOM     27  C   UNL     1       7.768   8.464  17.603  0.00  0.00    +0.000 A 
ATOM     28  C   UNL     1       7.162   7.673  16.640  0.00  0.00    +0.000 A 
ATOM     29  C   UNL     1       7.914   9.939  17.690  0.00  0.00    +0.000 C 
ATOM     30  O   UNL     1       9.050  10.087  18.575  0.00  0.00    +0.000 OA
ATOM     31  C   UNL     1       9.012   8.982  19.514  0.00  0.00    +0.000 C 
ENDBRANCH   7  23
TORSDOF 2
ENDMDL
MODEL 5
REMARK VINA RESULT:      -7.1      3.363      6.016
REMARK  Name = 
REMARK  2 active torsions:
REMARK  status: ('A' for Active; 'I' for Inactive)
REMARK    1  A    between atoms: C_6  and  C_7
REMARK    2  A    between atoms: C_20  and  C_21
REMARK                            x       y       z     vdW  Elec       q    Type
REMARK                         _______ _______ _______ _____ _____    ______ ____
ROOT
ATOM      1  O   UNL     1      -0.452  15.533  18.561  0.00  0.00    +0.000 OA
ATOM      2  C   UNL     1       0.304  14.583  18.632  0.00  0.00    +0.000 C 
ATOM      3  N   UNL     1       1.650  14.622  18.561  0.00  0.00    +0.000 N 
ATOM      4  C   UNL     1       2.175  13.385  18.706  0.00  0.00    +0.000 C 
ATOM      5  O   UNL     1       3.363  13.117  18.732  0.00  0.00    +0.000 OA
ATOM      6  C   UNL     1       1.042  12.445  18.842  0.00  0.00    +0.000 C 
ATOM      7  C   UNL     1      -0.081  13.170  18.815  0.00  0.00    +0.000 C 
ATOM      8  H   UNL     1       2.189  15.463  18.451  0.00  0.00    +0.000 HD
ENDROOT
BRANCH   6   9
ATOM      9  C   UNL     1       1.203  11.043  18.994  0.00  0.00    +0.000 A 
ATOM     10  C   UNL     1       1.759  10.223  18.034  0.00  0.00    +0.000 A 
ATOM     11  N   UNL     1       1.745   8.950  18.533  0.00  0.00    +0.000 N 
ATOM     12  C   UNL     1       1.273   8.938  19.827  0.00  0.00    +0.000 A 
ATOM     13  C   UNL     1       1.210   7.860  20.734  0.00  0.00    +0.000 A 
ATOM     14  C   UNL     1       0.523   8.115  21.932  0.00  0.00    +0.000 A 
ATOM     15  C   UNL     1       0.019   9.382  22.232  0.00  0.00    +0.000 A 
ATOM     16  C   UNL     1       0.205  10.457  21.352  0.00  0.00    +0.000 A 
ATOM     17  C   UNL     1       0.841  10.232  20.116  0.00  0.00    +0.000 A 
ATOM     18  C   UNL     1       1.831   6.510  20.450  0.00  0.00    +0.000 C 
ATOM     19  N   UNL     1       3.160   6.620  19.844  0.00  0.00    +0.000 NA
ATOM     20  C   UNL     1       3.185   6.919  18.406  0.00  0.00    +0.000 C 
ATOM     21  C   UNL     1       2.038   7.737  17.799  0.00  0.00    +0.000 C 
ATOM     22  H   UNL     1       3.707   5.784  20.032  0.00  0.00    +0.000 HD
ENDBRANCH   6   9
BRANCH   7  23
ATOM     23  C   UNL     1      -1.454  12.689  18.931  0.00  0.00    +0.000 A 
ATOM     24  C   UNL     1      -2.201  12.995  20.087  0.00  0.00    +0.000 A 
ATOM     25  C   UNL     1      -3.550  12.642  20.183  0.00  0.00    +0.000 A 
ATOM     26  C   UNL     1      -4.123  11.974  19.118  0.00  0.00    +0.000 A 
ATOM     27  C   UNL     1      -3.375  11.602  18.007  0.00  0.00    +0.000 A 
ATOM     28  C   UNL     1      -2.044  11.965  17.884  0.00  0.00    +0.000 A 
ATOM     29  C   UNL     1      -4.244  10.792  17.115  0.00  0.00    +0.000 C 
ATOM     30  O   UNL     1      -5.571  11.225  17.498  0.00  0.00    +0.000 OA
ATOM     31  C   UNL     1      -5.530  11.541  18.913  0.00  0.00    +0.000 C 
ENDBRANCH   7  23
TORSDOF 2
ENDMDL
MODEL 6
REMARK VINA RESULT:      -7.1      3.537      5.619
REMARK  Name = 
REMARK  2 active torsions:
REMARK  status: ('A' for Active; 'I' for Inactive)
REMARK    1  A    between atoms: C_6  and  C_7
REMARK    2  A    between atoms: C_20  and  C_21
REMARK                            x       y       z     vdW  Elec       q    Type
REMARK                         _______ _______ _______ _____ _____    ______ ____
ROOT
ATOM      1  O   UNL     1      -0.048  15.386  23.670  0.00  0.00    +0.000 OA
ATOM      2  C   UNL     1      -1.206  15.360  23.299  0.00  0.00    +0.000 C 
ATOM      3  N   UNL     1      -2.085  16.381  23.346  0.00  0.00    +0.000 N 
ATOM      4  C   UNL     1      -3.277  16.013  22.825  0.00  0.00    +0.000 C 
ATOM      5  O   UNL     1      -4.247  16.737  22.691  0.00  0.00    +0.000 OA
ATOM      6  C   UNL     1      -3.163  14.590  22.442  0.00  0.00    +0.000 C 
ATOM      7  C   UNL     1      -1.911  14.205  22.713  0.00  0.00    +0.000 C 
ATOM      8  H   UNL     1      -1.870  17.301  23.689  0.00  0.00    +0.000 HD
ENDROOT
BRANCH   6   9
ATOM      9  C   UNL     1      -4.229  13.844  21.874  0.00  0.00    +0.000 A 
ATOM     10  C   UNL     1      -4.281  13.463  20.549  0.00  0.00    +0.000 A 
ATOM     11  N   UNL     1      -5.446  12.769  20.375  0.00  0.00    +0.000 N 
ATOM     12  C   UNL     1      -6.108  12.616  21.573  0.00  0.00    +0.000 A 
ATOM     13  C   UNL     1      -7.271  11.869  21.851  0.00  0.00    +0.000 A 
ATOM     14  C   UNL     1      -7.808  12.039  23.137  0.00  0.00    +0.000 A 
ATOM     15  C   UNL     1      -7.171  12.826  24.098  0.00  0.00    +0.000 A 
ATOM     16  C   UNL     1      -5.953  13.459  23.818  0.00  0.00    +0.000 A 
ATOM     17  C   UNL     1      -5.408  13.359  22.523  0.00  0.00    +0.000 A 
ATOM     18  C   UNL     1      -7.917  10.947  20.840  0.00  0.00    +0.000 C 
ATOM     19  N   UNL     1      -6.934  10.149  20.103  0.00  0.00    +0.000 NA
ATOM     20  C   UNL     1      -6.239  10.840  19.008  0.00  0.00    +0.000 C 
ATOM     21  C   UNL     1      -6.018  12.355  19.111  0.00  0.00    +0.000 C 
ATOM     22  H   UNL     1      -7.359   9.293  19.754  0.00  0.00    +0.000 HD
ENDBRANCH   6   9
BRANCH   7  23
ATOM     23  C   UNL     1      -1.317  12.890  22.492  0.00  0.00    +0.000 A 
ATOM     24  C   UNL     1      -1.629  11.831  23.370  0.00  0.00    +0.000 A 
ATOM     25  C   UNL     1      -1.164  10.536  23.126  0.00  0.00    +0.000 A 
ATOM     26  C   UNL     1      -0.378  10.330  22.008  0.00  0.00    +0.000 A 
ATOM     27  C   UNL     1      -0.003  11.381  21.181  0.00  0.00    +0.000 A 
ATOM     28  C   UNL     1      -0.476  12.666  21.392  0.00  0.00    +0.000 A 
ATOM     29  C   UNL     1       0.938  10.853  20.161  0.00  0.00    +0.000 C 
ATOM     30  O   UNL     1       0.603   9.445  20.127  0.00  0.00    +0.000 OA
ATOM     31  C   UNL     1       0.192   9.068  21.466  0.00  0.00    +0.000 C 
ENDBRANCH   7  23
TORSDOF 2
ENDMDL
MODEL 7
REMARK VINA RESULT:      -7.0      7.763     10.774
REMARK  Name = 
REMARK  2 active torsions:
REMARK  status: ('A' for Active; 'I' for Inactive)
REMARK    1  A    between atoms: C_6  and  C_7
REMARK    2  A    between atoms: C_20  and  C_21
REMARK                            x       y       z     vdW  Elec       q    Type
REMARK                         _______ _______ _______ _____ _____    ______ ____
ROOT
ATOM      1  O   UNL     1       0.408   3.799  20.843  0.00  0.00    +0.000 OA
ATOM      2  C   UNL     1       1.336   3.395  20.170  0.00  0.00    +0.000 C 
ATOM      3  N   UNL     1       1.722   2.112  20.025  0.00  0.00    +0.000 N 
ATOM      4  C   UNL     1       2.774   2.018  19.181  0.00  0.00    +0.000 C 
ATOM      5  O   UNL     1       3.307   0.983  18.823  0.00  0.00    +0.000 OA
ATOM      6  C   UNL     1       3.127   3.394  18.773  0.00  0.00    +0.000 C 
ATOM      7  C   UNL     1       2.251   4.219  19.356  0.00  0.00    +0.000 C 
ATOM      8  H   UNL     1       1.266   1.328  20.459  0.00  0.00    +0.000 HD
ENDROOT
BRANCH   6   9
ATOM      9  C   UNL     1       4.203   3.700  17.899  0.00  0.00    +0.000 A 
ATOM     10  C   UNL     1       4.279   3.267  16.591  0.00  0.00    +0.000 A 
ATOM     11  N   UNL     1       5.446   3.753  16.072  0.00  0.00    +0.000 N 
ATOM     12  C   UNL     1       6.087   4.563  16.984  0.00  0.00    +0.000 A 
ATOM     13  C   UNL     1       7.245   5.348  16.809  0.00  0.00    +0.000 A 
ATOM     14  C   UNL     1       7.758   5.940  17.974  0.00  0.00    +0.000 A 
ATOM     15  C   UNL     1       7.105   5.827  19.202  0.00  0.00    +0.000 A 
ATOM     16  C   UNL     1       5.892   5.133  19.311  0.00  0.00    +0.000 A 
ATOM     17  C   UNL     1       5.370   4.479  18.178  0.00  0.00    +0.000 A 
ATOM     18  C   UNL     1       7.908   5.545  15.463  0.00  0.00    +0.000 C 
ATOM     19  N   UNL     1       6.938   5.777  14.390  0.00  0.00    +0.000 NA
ATOM     20  C   UNL     1       6.263   4.581  13.867  0.00  0.00    +0.000 C 
ATOM     21  C   UNL     1       6.041   3.387  14.804  0.00  0.00    +0.000 C 
ATOM     22  H   UNL     1       7.370   6.291  13.625  0.00  0.00    +0.000 HD
ENDBRANCH   6   9
BRANCH   7  23
ATOM     23  C   UNL     1       2.183   5.673  19.241  0.00  0.00    +0.000 A 
ATOM     24  C   UNL     1       2.415   6.281  17.991  0.00  0.00    +0.000 A 
ATOM     25  C   UNL     1       2.253   7.659  17.823  0.00  0.00    +0.000 A 
ATOM     26  C   UNL     1       1.873   8.406  18.922  0.00  0.00    +0.000 A 
ATOM     27  C   UNL     1       1.718   7.825  20.175  0.00  0.00    +0.000 A 
ATOM     28  C   UNL     1       1.849   6.458  20.354  0.00  0.00    +0.000 A 
ATOM     29  C   UNL     1       1.441   8.907  21.154  0.00  0.00    +0.000 C 
ATOM     30  O   UNL     1       0.905   9.958  20.314  0.00  0.00    +0.000 OA
ATOM     31  C   UNL     1       1.563   9.856  19.025  0.00  0.00    +0.000 C 
ENDBRANCH   7  23
TORSDOF 2
ENDMDL
MODEL 8
REMARK VINA RESULT:      -6.9      3.476      5.606
REMARK  Name = 
REMARK  2 active torsions:
REMARK  status: ('A' for Active; 'I' for Inactive)
REMARK    1  A    between atoms: C_6  and  C_7
REMARK    2  A    between atoms: C_20  and  C_21
REMARK                            x       y       z     vdW  Elec       q    Type
REMARK                         _______ _______ _______ _____ _____    ______ ____
ROOT
ATOM      1  O   UNL     1      -0.280  15.370  24.184  0.00  0.00    +0.000 OA
ATOM      2  C   UNL     1      -1.432  15.324  23.797  0.00  0.00    +0.000 C 
ATOM      3  N   UNL     1      -2.405  16.217  24.069  0.00  0.00    +0.000 N 
ATOM      4  C   UNL     1      -3.558  15.874  23.454  0.00  0.00    +0.000 C 
ATOM      5  O   UNL     1      -4.594  16.514  23.478  0.00  0.00    +0.000 OA
ATOM      6  C   UNL     1      -3.311  14.600  22.745  0.00  0.00    +0.000 C 
ATOM      7  C   UNL     1      -2.026  14.281  22.939  0.00  0.00    +0.000 C 
ATOM      8  H   UNL     1      -2.277  17.045  24.625  0.00  0.00    +0.000 HD
ENDROOT
BRANCH   6   9
ATOM      9  C   UNL     1      -4.303  13.915  21.997  0.00  0.00    +0.000 A 
ATOM     10  C   UNL     1      -4.260  13.753  20.627  0.00  0.00    +0.000 A 
ATOM     11  N   UNL     1      -5.375  13.050  20.268  0.00  0.00    +0.000 N 
ATOM     12  C   UNL     1      -6.096  12.676  21.381  0.00  0.00    +0.000 A 
ATOM     13  C   UNL     1      -7.234  11.848  21.459  0.00  0.00    +0.000 A 
ATOM     14  C   UNL     1      -7.852  11.782  22.718  0.00  0.00    +0.000 A 
ATOM     15  C   UNL     1      -7.312  12.427  23.832  0.00  0.00    +0.000 A 
ATOM     16  C   UNL     1      -6.114  13.147  23.737  0.00  0.00    +0.000 A 
ATOM     17  C   UNL     1      -5.491  13.282  22.481  0.00  0.00    +0.000 A 
ATOM     18  C   UNL     1      -7.773  11.077  20.273  0.00  0.00    +0.000 C 
ATOM     19  N   UNL     1      -6.710  10.452  19.482  0.00  0.00    +0.000 NA
ATOM     20  C   UNL     1      -5.990  11.341  18.560  0.00  0.00    +0.000 C 
ATOM     21  C   UNL     1      -5.852  12.826  18.919  0.00  0.00    +0.000 C 
ATOM     22  H   UNL     1      -7.071   9.648  18.973  0.00  0.00    +0.000 HD
ENDBRANCH   6   9
BRANCH   7  23
ATOM     23  C   UNL     1      -1.310  13.118  22.423  0.00  0.00    +0.000 A 
ATOM     24  C   UNL     1      -0.497  13.256  21.279  0.00  0.00    +0.000 A 
ATOM     25  C   UNL     1       0.285  12.192  20.823  0.00  0.00    +0.000 A 
ATOM     26  C   UNL     1       0.226  10.999  21.519  0.00  0.00    +0.000 A 
ATOM     27  C   UNL     1      -0.630  10.832  22.601  0.00  0.00    +0.000 A 
ATOM     28  C   UNL     1      -1.393  11.883  23.083  0.00  0.00    +0.000 A 
ATOM     29  C   UNL     1      -0.553   9.414  23.036  0.00  0.00    +0.000 C 
ATOM     30  O   UNL     1       0.744   9.006  22.540  0.00  0.00    +0.000 OA
ATOM     31  C   UNL     1       0.986   9.738  21.312  0.00  0.00    +0.000 C 
ENDBRANCH   7  23
TORSDOF 2
ENDMDL
MODEL 9
REMARK VINA RESULT:      -6.9      2.703      5.813
REMARK  Name = 
REMARK  2 active torsions:
REMARK  status: ('A' for Active; 'I' for Inactive)
REMARK    1  A    between atoms: C_6  and  C_7
REMARK    2  A    between atoms: C_20  and  C_21
REMARK                            x       y       z     vdW  Elec       q    Type
REMARK                         _______ _______ _______ _____ _____    ______ ____
ROOT
ATOM      1  O   UNL     1       3.462  13.125  18.345  0.00  0.00    +0.000 OA
ATOM      2  C   UNL     1       2.293  13.428  18.493  0.00  0.00    +0.000 C 
ATOM      3  N   UNL     1       1.775  14.672  18.449  0.00  0.00    +0.000 N 
ATOM      4  C   UNL     1       0.436  14.642  18.627  0.00  0.00    +0.000 C 
ATOM      5  O   UNL     1      -0.307  15.606  18.590  0.00  0.00    +0.000 OA
ATOM      6  C   UNL     1       0.059  13.230  18.853  0.00  0.00    +0.000 C 
ATOM      7  C   UNL     1       1.175  12.501  18.755  0.00  0.00    +0.000 C 
ATOM      8  H   UNL     1       2.311  15.504  18.271  0.00  0.00    +0.000 HD
ENDROOT
BRANCH   6   9
ATOM      9  C   UNL     1      -1.273  12.806  19.099  0.00  0.00    +0.000 A 
ATOM     10  C   UNL     1      -2.036  13.242  20.162  0.00  0.00    +0.000 A 
ATOM     11  N   UNL     1      -3.250  12.620  20.070  0.00  0.00    +0.000 N 
ATOM     12  C   UNL     1      -3.323  11.859  18.924  0.00  0.00    +0.000 A 
ATOM     13  C   UNL     1      -4.428  11.160  18.397  0.00  0.00    +0.000 A 
ATOM     14  C   UNL     1      -4.153  10.333  17.296  0.00  0.00    +0.000 A 
ATOM     15  C   UNL     1      -2.885  10.283  16.716  0.00  0.00    +0.000 A 
ATOM     16  C   UNL     1      -1.840  11.082  17.200  0.00  0.00    +0.000 A 
ATOM     17  C   UNL     1      -2.059  11.886  18.335  0.00  0.00    +0.000 A 
ATOM     18  C   UNL     1      -5.824  11.278  18.969  0.00  0.00    +0.000 C 
ATOM     19  N   UNL     1      -6.176  12.659  19.306  0.00  0.00    +0.000 NA
ATOM     20  C   UNL     1      -5.630  13.170  20.570  0.00  0.00    +0.000 C 
ATOM     21  C   UNL     1      -4.291  12.616  21.076  0.00  0.00    +0.000 C 
ATOM     22  H   UNL     1      -7.186  12.782  19.293  0.00  0.00    +0.000 HD
ENDBRANCH   6   9
BRANCH   7  23
ATOM     23  C   UNL     1       1.307  11.053  18.886  0.00  0.00    +0.000 A 
ATOM     24  C   UNL     1       1.846  10.306  17.819  0.00  0.00    +0.000 A 
ATOM     25  C   UNL     1       2.085   8.935  17.951  0.00  0.00    +0.000 A 
ATOM     26  C   UNL     1       1.764   8.335  19.154  0.00  0.00    +0.000 A 
ATOM     27  C   UNL     1       1.162   9.048  20.184  0.00  0.00    +0.000 A 
ATOM     28  C   UNL     1       0.942  10.412  20.079  0.00  0.00    +0.000 A 
ATOM     29  C   UNL     1       0.830   8.095  21.273  0.00  0.00    +0.000 C 
ATOM     30  O   UNL     1       1.760   7.012  21.034  0.00  0.00    +0.000 OA
ATOM     31  C   UNL     1       1.968   6.931  19.601  0.00  0.00    +0.000 C 
ENDBRANCH   7  23
TORSDOF 2
ENDMDL
