MODEL 1
REMARK VINA RESULT:      -8.1      0.000      0.000
REMARK  Name = 
REMARK  7 active torsions:
REMARK  status: ('A' for Active; 'I' for Inactive)
REMARK    1  A    between atoms: C_1  and  N_2
REMARK    2  A    between atoms: N_8  and  C_9
REMARK    3  A    between atoms: C_12  and  C_13
REMARK    4  A    between atoms: C_16  and  N_17
REMARK    5  A    between atoms: N_17  and  C_18
REMARK    6  A    between atoms: C_27  and  C_28
REMARK    7  A    between atoms: C_27  and  C_29
REMARK                            x       y       z     vdW  Elec       q    Type
REMARK                         _______ _______ _______ _____ _____    ______ ____
ROOT
ATOM      1  C   UNL     1       2.600   7.461  18.685  0.00  0.00    +0.000 A 
ATOM      2  C   UNL     1       2.715   8.339  17.603  0.00  0.00    +0.000 A 
ATOM      3  C   UNL     1       1.927   9.492  17.534  0.00  0.00    +0.000 A 
ATOM      4  C   UNL     1       0.983   9.807  18.527  0.00  0.00    +0.000 A 
ATOM      5  C   UNL     1       0.829   8.934  19.633  0.00  0.00    +0.000 A 
ATOM      6  C   UNL     1       1.643   7.772  19.668  0.00  0.00    +0.000 A 
ENDROOT
BRANCH   1  14
ATOM      7  C   UNL     1       8.014   7.934  17.432  0.00  0.00    +0.000 C 
ATOM      8  N   UNL     1       7.136   6.980  18.103  0.00  0.00    +0.000 NA
ATOM      9  C   UNL     1       7.417   5.613  17.615  0.00  0.00    +0.000 C 
ATOM     10  C   UNL     1       6.691   4.563  18.468  0.00  0.00    +0.000 C 
ATOM     11  C   UNL     1       5.274   4.962  18.694  0.00  0.00    +0.000 A 
ATOM     12  C   UNL     1       4.220   4.202  19.215  0.00  0.00    +0.000 A 
ATOM     13  C   UNL     1       3.102   5.016  19.265  0.00  0.00    +0.000 A 
ATOM     14  N   UNL     1       3.450   6.304  18.789  0.00  0.00    +0.000 N 
ATOM     15  C   UNL     1       4.806   6.238  18.436  0.00  0.00    +0.000 A 
ATOM     16  C   UNL     1       5.704   7.338  17.923  0.00  0.00    +0.000 C 
ATOM     17  C   UNL     1       1.741   4.533  19.649  0.00  0.00    +0.000 C 
ATOM     18  C   UNL     1       1.661   3.036  20.112  0.00  0.00    +0.000 C 
ATOM     19  C   UNL     1       1.195   3.016  21.590  0.00  0.00    +0.000 C 
ATOM     20  C   UNL     1       0.566   2.331  19.278  0.00  0.00    +0.000 C 
ATOM     21  C   UNL     1       2.945   2.166  20.022  0.00  0.00    +0.000 C 
ATOM     22  C   UNL     1       4.239   2.814  19.612  0.00  0.00    +0.000 C 
ATOM     23  O   UNL     1       5.274   2.147  19.598  0.00  0.00    +0.000 OA
ENDBRANCH   1  14
BRANCH   4  24
ATOM     24  C   UNL     1       0.258  11.107  18.335  0.00  0.00    +0.000 C 
ATOM     25  N   UNL     1       0.987  12.261  18.308  0.00  0.00    +0.000 N 
ATOM     26  O   UNL     1      -0.960  11.151  18.181  0.00  0.00    +0.000 OA
ATOM     27  H   UNL     1       1.995  12.208  18.248  0.00  0.00    +0.000 HD
ATOM     28  H   UNL     1       0.510  13.109  18.039  0.00  0.00    +0.000 HD
ENDBRANCH   4  24
BRANCH   5  29
ATOM     29  N   UNL     1      -0.196   9.144  20.600  0.00  0.00    +0.000 N 
ATOM     30  H   UNL     1      -0.338   8.247  21.076  0.00  0.00    +0.000 HD
BRANCH  29  31
ATOM     31  C   UNL     1      -0.015  10.220  21.588  0.00  0.00    +0.000 C 
ATOM     32  C   UNL     1      -1.090  11.281  21.493  0.00  0.00    +0.000 C 
ATOM     33  C   UNL     1      -0.992  11.938  22.849  0.00  0.00    +0.000 C 
ATOM     34  O   UNL     1      -0.663  10.898  23.781  0.00  0.00    +0.000 OA
ATOM     35  C   UNL     1      -0.208   9.756  23.033  0.00  0.00    +0.000 C 
ENDBRANCH  29  31
ENDBRANCH   5  29
TORSDOF 4
ENDMDL
MODEL 2
REMARK VINA RESULT:      -7.7      5.361     11.503
REMARK  Name = 
REMARK  7 active torsions:
REMARK  status: ('A' for Active; 'I' for Inactive)
REMARK    1  A    between atoms: C_1  and  N_2
REMARK    2  A    between atoms: N_8  and  C_9
REMARK    3  A    between atoms: C_12  and  C_13
REMARK    4  A    between atoms: C_16  and  N_17
REMARK    5  A    between atoms: N_17  and  C_18
REMARK    6  A    between atoms: C_27  and  C_28
REMARK    7  A    between atoms: C_27  and  C_29
REMARK                            x       y       z     vdW  Elec       q    Type
REMARK                         _______ _______ _______ _____ _____    ______ ____
ROOT
ATOM      1  C   UNL     1      -1.913  12.462  22.534  0.00  0.00    +0.000 A 
ATOM      2  C   UNL     1      -1.668  11.290  23.258  0.00  0.00    +0.000 A 
ATOM      3  C   UNL     1      -0.721  10.364  22.814  0.00  0.00    +0.000 A 
ATOM      4  C   UNL     1       0.007  10.556  21.627  0.00  0.00    +0.000 A 
ATOM      5  C   UNL     1      -0.222  11.726  20.859  0.00  0.00    +0.000 A 
ATOM      6  C   UNL     1      -1.193  12.644  21.339  0.00  0.00    +0.000 A 
ENDROOT
BRANCH   1  14
ATOM      7  C   UNL     1      -7.342  11.863  21.405  0.00  0.00    +0.000 C 
ATOM      8  N   UNL     1      -6.502  12.653  22.300  0.00  0.00    +0.000 NA
ATOM      9  C   UNL     1      -6.923  14.070  22.261  0.00  0.00    +0.000 C 
ATOM     10  C   UNL     1      -6.230  14.882  23.365  0.00  0.00    +0.000 C 
ATOM     11  C   UNL     1      -4.773  14.573  23.404  0.00  0.00    +0.000 A 
ATOM     12  C   UNL     1      -3.753  15.240  24.091  0.00  0.00    +0.000 A 
ATOM     13  C   UNL     1      -2.572  14.561  23.849  0.00  0.00    +0.000 A 
ATOM     14  N   UNL     1      -2.845  13.447  23.018  0.00  0.00    +0.000 N 
ATOM     15  C   UNL     1      -4.222  13.484  22.754  0.00  0.00    +0.000 A 
ATOM     16  C   UNL     1      -5.060  12.506  21.965  0.00  0.00    +0.000 C 
ATOM     17  C   UNL     1      -1.232  15.037  24.309  0.00  0.00    +0.000 C 
ATOM     18  C   UNL     1      -1.243  16.327  25.201  0.00  0.00    +0.000 C 
ATOM     19  C   UNL     1      -0.684  15.949  26.597  0.00  0.00    +0.000 C 
ATOM     20  C   UNL     1      -0.265  17.351  24.580  0.00  0.00    +0.000 C 
ATOM     21  C   UNL     1      -2.595  17.056  25.429  0.00  0.00    +0.000 C 
ATOM     22  C   UNL     1      -3.858  16.438  24.891  0.00  0.00    +0.000 C 
ATOM     23  O   UNL     1      -4.942  16.974  25.120  0.00  0.00    +0.000 OA
ENDBRANCH   1  14
BRANCH   4  24
ATOM     24  C   UNL     1       1.026   9.498  21.318  0.00  0.00    +0.000 C 
ATOM     25  N   UNL     1       1.770   8.993  22.345  0.00  0.00    +0.000 N 
ATOM     26  O   UNL     1       1.185   9.066  20.179  0.00  0.00    +0.000 OA
ATOM     27  H   UNL     1       1.513   9.212  23.297  0.00  0.00    +0.000 HD
ATOM     28  H   UNL     1       2.348   8.188  22.151  0.00  0.00    +0.000 HD
ENDBRANCH   4  24
BRANCH   5  29
ATOM     29  N   UNL     1       0.399  11.908  19.590  0.00  0.00    +0.000 N 
ATOM     30  H   UNL     1      -0.351  11.878  18.891  0.00  0.00    +0.000 HD
BRANCH  29  31
ATOM     31  C   UNL     1       1.235  13.103  19.387  0.00  0.00    +0.000 C 
ATOM     32  C   UNL     1       2.226  13.314  20.512  0.00  0.00    +0.000 C 
ATOM     33  C   UNL     1       3.242  14.221  19.857  0.00  0.00    +0.000 C 
ATOM     34  O   UNL     1       3.326  13.813  18.485  0.00  0.00    +0.000 OA
ATOM     35  C   UNL     1       2.187  12.982  18.195  0.00  0.00    +0.000 C 
ENDBRANCH  29  31
ENDBRANCH   5  29
TORSDOF 4
ENDMDL
MODEL 3
REMARK VINA RESULT:      -7.6      5.476     11.183
REMARK  Name = 
REMARK  7 active torsions:
REMARK  status: ('A' for Active; 'I' for Inactive)
REMARK    1  A    between atoms: C_1  and  N_2
REMARK    2  A    between atoms: N_8  and  C_9
REMARK    3  A    between atoms: C_12  and  C_13
REMARK    4  A    between atoms: C_16  and  N_17
REMARK    5  A    between atoms: N_17  and  C_18
REMARK    6  A    between atoms: C_27  and  C_28
REMARK    7  A    between atoms: C_27  and  C_29
REMARK                            x       y       z     vdW  Elec       q    Type
REMARK                         _______ _______ _______ _____ _____    ______ ____
ROOT
ATOM      1  C   UNL     1      -2.277  12.560  22.325  0.00  0.00    +0.000 A 
ATOM      2  C   UNL     1      -1.598  11.658  23.150  0.00  0.00    +0.000 A 
ATOM      3  C   UNL     1      -0.728  10.709  22.606  0.00  0.00    +0.000 A 
ATOM      4  C   UNL     1      -0.513  10.609  21.220  0.00  0.00    +0.000 A 
ATOM      5  C   UNL     1      -1.192  11.498  20.350  0.00  0.00    +0.000 A 
ATOM      6  C   UNL     1      -2.070  12.446  20.938  0.00  0.00    +0.000 A 
ENDROOT
BRANCH   1  14
ATOM      7  C   UNL     1       0.021  16.793  25.138  0.00  0.00    +0.000 C 
ATOM      8  N   UNL     1      -1.270  16.461  24.542  0.00  0.00    +0.000 NA
ATOM      9  C   UNL     1      -2.355  16.765  25.500  0.00  0.00    +0.000 C 
ATOM     10  C   UNL     1      -3.730  16.661  24.825  0.00  0.00    +0.000 C 
ATOM     11  C   UNL     1      -3.823  15.414  24.015  0.00  0.00    +0.000 A 
ATOM     12  C   UNL     1      -4.952  14.829  23.431  0.00  0.00    +0.000 A 
ATOM     13  C   UNL     1      -4.532  13.700  22.750  0.00  0.00    +0.000 A 
ATOM     14  N   UNL     1      -3.128  13.576  22.886  0.00  0.00    +0.000 N 
ATOM     15  C   UNL     1      -2.716  14.655  23.683  0.00  0.00    +0.000 A 
ATOM     16  C   UNL     1      -1.317  15.042  24.100  0.00  0.00    +0.000 C 
ATOM     17  C   UNL     1      -5.464  12.732  22.096  0.00  0.00    +0.000 C 
ATOM     18  C   UNL     1      -6.982  13.128  22.128  0.00  0.00    +0.000 C 
ATOM     19  C   UNL     1      -7.457  13.322  20.665  0.00  0.00    +0.000 C 
ATOM     20  C   UNL     1      -7.778  11.938  22.713  0.00  0.00    +0.000 C 
ATOM     21  C   UNL     1      -7.397  14.398  22.919  0.00  0.00    +0.000 C 
ATOM     22  C   UNL     1      -6.325  15.266  23.522  0.00  0.00    +0.000 C 
ATOM     23  O   UNL     1      -6.640  16.308  24.097  0.00  0.00    +0.000 OA
ENDBRANCH   1  14
BRANCH   4  24
ATOM     24  C   UNL     1       0.493   9.576  20.799  0.00  0.00    +0.000 C 
ATOM     25  N   UNL     1       0.967   8.709  21.740  0.00  0.00    +0.000 N 
ATOM     26  O   UNL     1       0.876   9.483  19.635  0.00  0.00    +0.000 OA
ATOM     27  H   UNL     1       0.517   8.666  22.645  0.00  0.00    +0.000 HD
ATOM     28  H   UNL     1       1.531   7.935  21.420  0.00  0.00    +0.000 HD
ENDBRANCH   4  24
BRANCH   5  29
ATOM     29  N   UNL     1      -1.102  11.357  18.935  0.00  0.00    +0.000 N 
ATOM     30  H   UNL     1      -0.199  10.911  18.742  0.00  0.00    +0.000 HD
BRANCH  29  31
ATOM     31  C   UNL     1      -2.181  10.640  18.235  0.00  0.00    +0.000 C 
ATOM     32  C   UNL     1      -3.153  11.580  17.553  0.00  0.00    +0.000 C 
ATOM     33  C   UNL     1      -3.804  10.665  16.542  0.00  0.00    +0.000 C 
ATOM     34  O   UNL     1      -2.786   9.754  16.104  0.00  0.00    +0.000 OA
ATOM     35  C   UNL     1      -1.690   9.828  17.035  0.00  0.00    +0.000 C 
ENDBRANCH  29  31
ENDBRANCH   5  29
TORSDOF 4
ENDMDL
MODEL 4
REMARK VINA RESULT:      -7.6      0.843      1.035
REMARK  Name = 
REMARK  7 active torsions:
REMARK  status: ('A' for Active; 'I' for Inactive)
REMARK    1  A    between atoms: C_1  and  N_2
REMARK    2  A    between atoms: N_8  and  C_9
REMARK    3  A    between atoms: C_12  and  C_13
REMARK    4  A    between atoms: C_16  and  N_17
REMARK    5  A    between atoms: N_17  and  C_18
REMARK    6  A    between atoms: C_27  and  C_28
REMARK    7  A    between atoms: C_27  and  C_29
REMARK                            x       y       z     vdW  Elec       q    Type
REMARK                         _______ _______ _______ _____ _____    ______ ____
ROOT
ATOM      1  C   UNL     1       2.478   7.443  18.709  0.00  0.00    +0.000 A 
ATOM      2  C   UNL     1       1.810   7.782  17.529  0.00  0.00    +0.000 A 
ATOM      3  C   UNL     1       1.030   8.940  17.458  0.00  0.00    +0.000 A 
ATOM      4  C   UNL     1       0.870   9.796  18.563  0.00  0.00    +0.000 A 
ATOM      5  C   UNL     1       1.522   9.479  19.781  0.00  0.00    +0.000 A 
ATOM      6  C   UNL     1       2.303   8.294  19.816  0.00  0.00    +0.000 A 
ENDROOT
BRANCH   1  14
ATOM      7  C   UNL     1       7.861   7.941  17.332  0.00  0.00    +0.000 C 
ATOM      8  N   UNL     1       6.999   6.973  18.005  0.00  0.00    +0.000 NA
ATOM      9  C   UNL     1       7.266   5.616  17.482  0.00  0.00    +0.000 C 
ATOM     10  C   UNL     1       6.560   4.549  18.331  0.00  0.00    +0.000 C 
ATOM     11  C   UNL     1       5.150   4.944  18.600  0.00  0.00    +0.000 A 
ATOM     12  C   UNL     1       4.109   4.174  19.132  0.00  0.00    +0.000 A 
ATOM     13  C   UNL     1       2.993   4.987  19.226  0.00  0.00    +0.000 A 
ATOM     14  N   UNL     1       3.330   6.284  18.769  0.00  0.00    +0.000 N 
ATOM     15  C   UNL     1       4.677   6.225  18.381  0.00  0.00    +0.000 A 
ATOM     16  C   UNL     1       5.562   7.335  17.868  0.00  0.00    +0.000 C 
ATOM     17  C   UNL     1       1.642   4.496  19.633  0.00  0.00    +0.000 C 
ATOM     18  C   UNL     1       1.572   2.990  20.067  0.00  0.00    +0.000 C 
ATOM     19  C   UNL     1       1.142   2.940  21.556  0.00  0.00    +0.000 C 
ATOM     20  C   UNL     1       0.455   2.304  19.246  0.00  0.00    +0.000 C 
ATOM     21  C   UNL     1       2.851   2.121  19.927  0.00  0.00    +0.000 C 
ATOM     22  C   UNL     1       4.136   2.777  19.499  0.00  0.00    +0.000 C 
ATOM     23  O   UNL     1       5.170   2.111  19.445  0.00  0.00    +0.000 OA
ENDBRANCH   1  14
BRANCH   4  24
ATOM     24  C   UNL     1       0.047  11.025  18.308  0.00  0.00    +0.000 C 
ATOM     25  N   UNL     1      -1.201  10.874  17.777  0.00  0.00    +0.000 N 
ATOM     26  O   UNL     1       0.461  12.149  18.586  0.00  0.00    +0.000 OA
ATOM     27  H   UNL     1      -1.607   9.950  17.724  0.00  0.00    +0.000 HD
ATOM     28  H   UNL     1      -1.795  11.690  17.742  0.00  0.00    +0.000 HD
ENDBRANCH   4  24
BRANCH   5  29
ATOM     29  N   UNL     1       1.292  10.245  20.960  0.00  0.00    +0.000 N 
ATOM     30  H   UNL     1       1.619  11.196  20.758  0.00  0.00    +0.000 HD
BRANCH  29  31
ATOM     31  C   UNL     1      -0.071  10.283  21.514  0.00  0.00    +0.000 C 
ATOM     32  C   UNL     1      -0.135   9.749  22.929  0.00  0.00    +0.000 C 
ATOM     33  C   UNL     1      -1.433  10.344  23.422  0.00  0.00    +0.000 C 
ATOM     34  O   UNL     1      -1.545  11.638  22.812  0.00  0.00    +0.000 OA
ATOM     35  C   UNL     1      -0.600  11.702  21.727  0.00  0.00    +0.000 C 
ENDBRANCH  29  31
ENDBRANCH   5  29
TORSDOF 4
ENDMDL
MODEL 5
REMARK VINA RESULT:      -7.6      4.291     10.001
REMARK  Name = 
REMARK  7 active torsions:
REMARK  status: ('A' for Active; 'I' for Inactive)
REMARK    1  A    between atoms: C_1  and  N_2
REMARK    2  A    between atoms: N_8  and  C_9
REMARK    3  A    between atoms: C_12  and  C_13
REMARK    4  A    between atoms: C_16  and  N_17
REMARK    5  A    between atoms: N_17  and  C_18
REMARK    6  A    between atoms: C_27  and  C_28
REMARK    7  A    between atoms: C_27  and  C_29
REMARK                            x       y       z     vdW  Elec       q    Type
REMARK                         _______ _______ _______ _____ _____    ______ ____
ROOT
ATOM      1  C   UNL     1      -1.840  12.719  20.346  0.00  0.00    +0.000 A 
ATOM      2  C   UNL     1      -1.288  14.003  20.404  0.00  0.00    +0.000 A 
ATOM      3  C   UNL     1       0.097  14.180  20.470  0.00  0.00    +0.000 A 
ATOM      4  C   UNL     1       0.985  13.090  20.499  0.00  0.00    +0.000 A 
ATOM      5  C   UNL     1       0.462  11.773  20.454  0.00  0.00    +0.000 A 
ATOM      6  C   UNL     1      -0.949  11.631  20.390  0.00  0.00    +0.000 A 
ENDROOT
BRANCH   1  14
ATOM      7  C   UNL     1      -3.909  10.722  15.567  0.00  0.00    +0.000 C 
ATOM      8  N   UNL     1      -4.361  10.935  16.939  0.00  0.00    +0.000 NA
ATOM      9  C   UNL     1      -5.690  11.584  16.932  0.00  0.00    +0.000 C 
ATOM     10  C   UNL     1      -6.302  11.600  18.340  0.00  0.00    +0.000 C 
ATOM     11  C   UNL     1      -5.295  12.049  19.342  0.00  0.00    +0.000 A 
ATOM     12  C   UNL     1      -5.490  12.415  20.679  0.00  0.00    +0.000 A 
ATOM     13  C   UNL     1      -4.251  12.722  21.214  0.00  0.00    +0.000 A 
ATOM     14  N   UNL     1      -3.262  12.533  20.218  0.00  0.00    +0.000 N 
ATOM     15  C   UNL     1      -3.942  12.119  19.063  0.00  0.00    +0.000 A 
ATOM     16  C   UNL     1      -3.374  11.727  17.721  0.00  0.00    +0.000 C 
ATOM     17  C   UNL     1      -4.055  13.278  22.586  0.00  0.00    +0.000 C 
ATOM     18  C   UNL     1      -5.353  13.398  23.459  0.00  0.00    +0.000 C 
ATOM     19  C   UNL     1      -5.189  12.474  24.692  0.00  0.00    +0.000 C 
ATOM     20  C   UNL     1      -5.448  14.850  23.985  0.00  0.00    +0.000 C 
ATOM     21  C   UNL     1      -6.718  13.054  22.803  0.00  0.00    +0.000 C 
ATOM     22  C   UNL     1      -6.737  12.504  21.402  0.00  0.00    +0.000 C 
ATOM     23  O   UNL     1      -7.808  12.168  20.896  0.00  0.00    +0.000 OA
ENDBRANCH   1  14
BRANCH   4  24
ATOM     24  C   UNL     1       2.443  13.449  20.514  0.00  0.00    +0.000 C 
ATOM     25  N   UNL     1       3.000  13.953  19.375  0.00  0.00    +0.000 N 
ATOM     26  O   UNL     1       3.130  13.320  21.525  0.00  0.00    +0.000 OA
ATOM     27  H   UNL     1       2.399  14.229  18.611  0.00  0.00    +0.000 HD
ATOM     28  H   UNL     1       3.939  14.320  19.437  0.00  0.00    +0.000 HD
ENDBRANCH   4  24
BRANCH   5  29
ATOM     29  N   UNL     1       1.310  10.638  20.604  0.00  0.00    +0.000 N 
ATOM     30  H   UNL     1       1.193  10.311  21.569  0.00  0.00    +0.000 HD
BRANCH  29  31
ATOM     31  C   UNL     1       1.147   9.516  19.665  0.00  0.00    +0.000 C 
ATOM     32  C   UNL     1       1.884   9.740  18.362  0.00  0.00    +0.000 C 
ATOM     33  C   UNL     1       1.992   8.332  17.826  0.00  0.00    +0.000 C 
ATOM     34  O   UNL     1       2.167   7.476  18.965  0.00  0.00    +0.000 OA
ATOM     35  C   UNL     1       1.811   8.223  20.143  0.00  0.00    +0.000 C 
ENDBRANCH  29  31
ENDBRANCH   5  29
TORSDOF 4
ENDMDL
MODEL 6
REMARK VINA RESULT:      -7.6      7.233     10.028
REMARK  Name = 
REMARK  7 active torsions:
REMARK  status: ('A' for Active; 'I' for Inactive)
REMARK    1  A    between atoms: C_1  and  N_2
REMARK    2  A    between atoms: N_8  and  C_9
REMARK    3  A    between atoms: C_12  and  C_13
REMARK    4  A    between atoms: C_16  and  N_17
REMARK    5  A    between atoms: N_17  and  C_18
REMARK    6  A    between atoms: C_27  and  C_28
REMARK    7  A    between atoms: C_27  and  C_29
REMARK                            x       y       z     vdW  Elec       q    Type
REMARK                         _______ _______ _______ _____ _____    ______ ____
ROOT
ATOM      1  C   UNL     1      -0.881  13.103  19.991  0.00  0.00    +0.000 A 
ATOM      2  C   UNL     1       0.102  12.156  20.299  0.00  0.00    +0.000 A 
ATOM      3  C   UNL     1       1.441  12.536  20.428  0.00  0.00    +0.000 A 
ATOM      4  C   UNL     1       1.858  13.865  20.239  0.00  0.00    +0.000 A 
ATOM      5  C   UNL     1       0.892  14.851  19.913  0.00  0.00    +0.000 A 
ATOM      6  C   UNL     1      -0.457  14.429  19.787  0.00  0.00    +0.000 A 
ENDROOT
BRANCH   1  14
ATOM      7  C   UNL     1      -2.750  10.481  15.436  0.00  0.00    +0.000 C 
ATOM      8  N   UNL     1      -3.204  10.744  16.798  0.00  0.00    +0.000 NA
ATOM      9  C   UNL     1      -4.606  11.216  16.776  0.00  0.00    +0.000 C 
ATOM     10  C   UNL     1      -5.192  11.267  18.194  0.00  0.00    +0.000 C 
ATOM     11  C   UNL     1      -4.236  11.919  19.132  0.00  0.00    +0.000 A 
ATOM     12  C   UNL     1      -4.455  12.364  20.441  0.00  0.00    +0.000 A 
ATOM     13  C   UNL     1      -3.258  12.867  20.918  0.00  0.00    +0.000 A 
ATOM     14  N   UNL     1      -2.268  12.727  19.915  0.00  0.00    +0.000 N 
ATOM     15  C   UNL     1      -2.908  12.139  18.813  0.00  0.00    +0.000 A 
ATOM     16  C   UNL     1      -2.316  11.715  17.491  0.00  0.00    +0.000 C 
ATOM     17  C   UNL     1      -3.114  13.552  22.238  0.00  0.00    +0.000 C 
ATOM     18  C   UNL     1      -4.403  13.575  23.132  0.00  0.00    +0.000 C 
ATOM     19  C   UNL     1      -4.101  12.781  24.429  0.00  0.00    +0.000 C 
ATOM     20  C   UNL     1      -4.675  15.040  23.547  0.00  0.00    +0.000 C 
ATOM     21  C   UNL     1      -5.722  13.008  22.540  0.00  0.00    +0.000 C 
ATOM     22  C   UNL     1      -5.692  12.350  21.187  0.00  0.00    +0.000 C 
ATOM     23  O   UNL     1      -6.718  11.841  20.736  0.00  0.00    +0.000 OA
ENDBRANCH   1  14
BRANCH   4  24
ATOM     24  C   UNL     1       3.319  14.119  20.468  0.00  0.00    +0.000 C 
ATOM     25  N   UNL     1       3.841  13.848  21.699  0.00  0.00    +0.000 N 
ATOM     26  O   UNL     1       4.050  14.540  19.574  0.00  0.00    +0.000 OA
ATOM     27  H   UNL     1       3.286  13.333  22.369  0.00  0.00    +0.000 HD
ATOM     28  H   UNL     1       4.845  13.888  21.800  0.00  0.00    +0.000 HD
ENDBRANCH   4  24
BRANCH   5  29
ATOM     29  N   UNL     1       1.279  16.184  19.592  0.00  0.00    +0.000 N 
ATOM     30  H   UNL     1       2.266  16.273  19.856  0.00  0.00    +0.000 HD
BRANCH  29  31
ATOM     31  C   UNL     1       1.079  16.656  18.213  0.00  0.00    +0.000 C 
ATOM     32  C   UNL     1       0.167  17.863  18.141  0.00  0.00    +0.000 C 
ATOM     33  C   UNL     1       0.521  18.433  16.788  0.00  0.00    +0.000 C 
ATOM     34  O   UNL     1       1.924  18.201  16.603  0.00  0.00    +0.000 OA
ATOM     35  C   UNL     1       2.347  17.227  17.575  0.00  0.00    +0.000 C 
ENDBRANCH  29  31
ENDBRANCH   5  29
TORSDOF 4
ENDMDL
MODEL 7
REMARK VINA RESULT:      -7.6      5.488     11.632
REMARK  Name = 
REMARK  7 active torsions:
REMARK  status: ('A' for Active; 'I' for Inactive)
REMARK    1  A    between atoms: C_1  and  N_2
REMARK    2  A    between atoms: N_8  and  C_9
REMARK    3  A    between atoms: C_12  and  C_13
REMARK    4  A    between atoms: C_16  and  N_17
REMARK    5  A    between atoms: N_17  and  C_18
REMARK    6  A    between atoms: C_27  and  C_28
REMARK    7  A    between atoms: C_27  and  C_29
REMARK                            x       y       z     vdW  Elec       q    Type
REMARK                         _______ _______ _______ _____ _____    ______ ____
ROOT
ATOM      1  C   UNL     1      -2.262  12.620  22.272  0.00  0.00    +0.000 A 
ATOM      2  C   UNL     1      -1.754  11.560  23.030  0.00  0.00    +0.000 A 
ATOM      3  C   UNL     1      -0.848  10.654  22.471  0.00  0.00    +0.000 A 
ATOM      4  C   UNL     1      -0.426  10.756  21.133  0.00  0.00    +0.000 A 
ATOM      5  C   UNL     1      -0.929  11.810  20.329  0.00  0.00    +0.000 A 
ATOM      6  C   UNL     1      -1.849  12.709  20.930  0.00  0.00    +0.000 A 
ENDROOT
BRANCH   1  14
ATOM      7  C   UNL     1      -7.761  12.112  21.487  0.00  0.00    +0.000 C 
ATOM      8  N   UNL     1      -6.854  12.855  22.357  0.00  0.00    +0.000 NA
ATOM      9  C   UNL     1      -7.263  14.276  22.409  0.00  0.00    +0.000 C 
ATOM     10  C   UNL     1      -6.489  15.032  23.498  0.00  0.00    +0.000 C 
ATOM     11  C   UNL     1      -5.036  14.711  23.425  0.00  0.00    +0.000 A 
ATOM     12  C   UNL     1      -3.965  15.339  24.070  0.00  0.00    +0.000 A 
ATOM     13  C   UNL     1      -2.810  14.663  23.719  0.00  0.00    +0.000 A 
ATOM     14  N   UNL     1      -3.149  13.589  22.860  0.00  0.00    +0.000 N 
ATOM     15  C   UNL     1      -4.541  13.648  22.692  0.00  0.00    +0.000 A 
ATOM     16  C   UNL     1      -5.440  12.713  21.919  0.00  0.00    +0.000 C 
ATOM     17  C   UNL     1      -1.437  15.108  24.107  0.00  0.00    +0.000 C 
ATOM     18  C   UNL     1      -1.375  16.357  25.055  0.00  0.00    +0.000 C 
ATOM     19  C   UNL     1      -0.727  15.913  26.391  0.00  0.00    +0.000 C 
ATOM     20  C   UNL     1      -0.430  17.401  24.414  0.00  0.00    +0.000 C 
ATOM     21  C   UNL     1      -2.701  17.085  25.405  0.00  0.00    +0.000 C 
ATOM     22  C   UNL     1      -4.003  16.501  24.927  0.00  0.00    +0.000 C 
ATOM     23  O   UNL     1      -5.064  17.035  25.252  0.00  0.00    +0.000 OA
ENDBRANCH   1  14
BRANCH   4  24
ATOM     24  C   UNL     1       0.591   9.740  20.702  0.00  0.00    +0.000 C 
ATOM     25  N   UNL     1       0.908   8.730  21.563  0.00  0.00    +0.000 N 
ATOM     26  O   UNL     1       1.121   9.786  19.594  0.00  0.00    +0.000 OA
ATOM     27  H   UNL     1       0.342   8.589  22.389  0.00  0.00    +0.000 HD
ATOM     28  H   UNL     1       1.483   7.979  21.212  0.00  0.00    +0.000 HD
ENDBRANCH   4  24
BRANCH   5  29
ATOM     29  N   UNL     1      -0.629  11.884  18.939  0.00  0.00    +0.000 N 
ATOM     30  H   UNL     1       0.202  11.302  18.788  0.00  0.00    +0.000 HD
BRANCH  29  31
ATOM     31  C   UNL     1      -1.682  11.523  17.977  0.00  0.00    +0.000 C 
ATOM     32  C   UNL     1      -1.619  10.066  17.569  0.00  0.00    +0.000 C 
ATOM     33  C   UNL     1      -3.014   9.837  17.036  0.00  0.00    +0.000 C 
ATOM     34  O   UNL     1      -3.893  10.635  17.842  0.00  0.00    +0.000 OA
ATOM     35  C   UNL     1      -3.092  11.586  18.568  0.00  0.00    +0.000 C 
ENDBRANCH  29  31
ENDBRANCH   5  29
TORSDOF 4
ENDMDL
MODEL 8
REMARK VINA RESULT:      -7.4      2.625      7.948
REMARK  Name = 
REMARK  7 active torsions:
REMARK  status: ('A' for Active; 'I' for Inactive)
REMARK    1  A    between atoms: C_1  and  N_2
REMARK    2  A    between atoms: N_8  and  C_9
REMARK    3  A    between atoms: C_12  and  C_13
REMARK    4  A    between atoms: C_16  and  N_17
REMARK    5  A    between atoms: N_17  and  C_18
REMARK    6  A    between atoms: C_27  and  C_28
REMARK    7  A    between atoms: C_27  and  C_29
REMARK                            x       y       z     vdW  Elec       q    Type
REMARK                         _______ _______ _______ _____ _____    ______ ____
ROOT
ATOM      1  C   UNL     1       1.363   9.502  18.938  0.00  0.00    +0.000 A 
ATOM      2  C   UNL     1       2.129   9.532  17.768  0.00  0.00    +0.000 A 
ATOM      3  C   UNL     1       3.000   8.483  17.460  0.00  0.00    +0.000 A 
ATOM      4  C   UNL     1       3.157   7.374  18.311  0.00  0.00    +0.000 A 
ATOM      5  C   UNL     1       2.407   7.315  19.512  0.00  0.00    +0.000 A 
ATOM      6  C   UNL     1       1.535   8.399  19.793  0.00  0.00    +0.000 A 
ENDROOT
BRANCH   1  14
ATOM      7  C   UNL     1       3.073  13.985  21.785  0.00  0.00    +0.000 C 
ATOM      8  N   UNL     1       1.925  13.588  20.973  0.00  0.00    +0.000 NA
ATOM      9  C   UNL     1       0.672  13.957  21.666  0.00  0.00    +0.000 C 
ATOM     10  C   UNL     1      -0.541  13.780  20.742  0.00  0.00    +0.000 C 
ATOM     11  C   UNL     1      -0.476  12.469  20.039  0.00  0.00    +0.000 A 
ATOM     12  C   UNL     1      -1.468  11.823  19.293  0.00  0.00    +0.000 A 
ATOM     13  C   UNL     1      -0.926  10.646  18.806  0.00  0.00    +0.000 A 
ATOM     14  N   UNL     1       0.422  10.552  19.230  0.00  0.00    +0.000 N 
ATOM     15  C   UNL     1       0.672  11.698  19.999  0.00  0.00    +0.000 A 
ATOM     16  C   UNL     1       1.960  12.136  20.652  0.00  0.00    +0.000 C 
ATOM     17  C   UNL     1      -1.713   9.615  18.065  0.00  0.00    +0.000 C 
ATOM     18  C   UNL     1      -3.205   9.993  17.759  0.00  0.00    +0.000 C 
ATOM     19  C   UNL     1      -3.377  10.058  16.220  0.00  0.00    +0.000 C 
ATOM     20  C   UNL     1      -4.107   8.847  18.273  0.00  0.00    +0.000 C 
ATOM     21  C   UNL     1      -3.764  11.320  18.342  0.00  0.00    +0.000 C 
ATOM     22  C   UNL     1      -2.830  12.248  19.071  0.00  0.00    +0.000 C 
ATOM     23  O   UNL     1      -3.249  13.331  19.481  0.00  0.00    +0.000 OA
ENDBRANCH   1  14
BRANCH   4  24
ATOM     24  C   UNL     1       4.088   6.308  17.811  0.00  0.00    +0.000 C 
ATOM     25  N   UNL     1       4.503   6.363  16.512  0.00  0.00    +0.000 N 
ATOM     26  O   UNL     1       4.496   5.410  18.544  0.00  0.00    +0.000 OA
ATOM     27  H   UNL     1       4.318   7.196  15.969  0.00  0.00    +0.000 HD
ATOM     28  H   UNL     1       5.234   5.727  16.227  0.00  0.00    +0.000 HD
ENDBRANCH   4  24
BRANCH   5  29
ATOM     29  N   UNL     1       2.621   6.276  20.464  0.00  0.00    +0.000 N 
ATOM     30  H   UNL     1       2.743   6.733  21.374  0.00  0.00    +0.000 HD
BRANCH  29  31
ATOM     31  C   UNL     1       1.616   5.205  20.566  0.00  0.00    +0.000 C 
ATOM     32  C   UNL     1       1.390   4.496  19.247  0.00  0.00    +0.000 C 
ATOM     33  C   UNL     1       0.764   3.199  19.701  0.00  0.00    +0.000 C 
ATOM     34  O   UNL     1       1.386   2.862  20.949  0.00  0.00    +0.000 OA
ATOM     35  C   UNL     1       2.065   4.032  21.440  0.00  0.00    +0.000 C 
ENDBRANCH  29  31
ENDBRANCH   5  29
TORSDOF 4
ENDMDL
MODEL 9
REMARK VINA RESULT:      -7.4      5.489     11.092
REMARK  Name = 
REMARK  7 active torsions:
REMARK  status: ('A' for Active; 'I' for Inactive)
REMARK    1  A    between atoms: C_1  and  N_2
REMARK    2  A    between atoms: N_8  and  C_9
REMARK    3  A    between atoms: C_12  and  C_13
REMARK    4  A    between atoms: C_16  and  N_17
REMARK    5  A    between atoms: N_17  and  C_18
REMARK    6  A    between atoms: C_27  and  C_28
REMARK    7  A    between atoms: C_27  and  C_29
REMARK                            x       y       z     vdW  Elec       q    Type
REMARK                         _______ _______ _______ _____ _____    ______ ____
ROOT
ATOM      1  C   UNL     1      -2.229  12.406  22.402  0.00  0.00    +0.000 A 
ATOM      2  C   UNL     1      -2.068  11.360  23.316  0.00  0.00    +0.000 A 
ATOM      3  C   UNL     1      -1.031  10.435  23.166  0.00  0.00    +0.000 A 
ATOM      4  C   UNL     1      -0.126  10.502  22.092  0.00  0.00    +0.000 A 
ATOM      5  C   UNL     1      -0.265  11.540  21.137  0.00  0.00    +0.000 A 
ATOM      6  C   UNL     1      -1.331  12.460  21.320  0.00  0.00    +0.000 A 
ENDROOT
BRANCH   1  14
ATOM      7  C   UNL     1      -1.283  16.726  25.801  0.00  0.00    +0.000 C 
ATOM      8  N   UNL     1      -2.246  16.348  24.770  0.00  0.00    +0.000 NA
ATOM      9  C   UNL     1      -3.620  16.618  25.245  0.00  0.00    +0.000 C 
ATOM     10  C   UNL     1      -4.637  16.465  24.106  0.00  0.00    +0.000 C 
ATOM     11  C   UNL     1      -4.381  15.213  23.341  0.00  0.00    +0.000 A 
ATOM     12  C   UNL     1      -5.191  14.587  22.386  0.00  0.00    +0.000 A 
ATOM     13  C   UNL     1      -4.512  13.470  21.930  0.00  0.00    +0.000 A 
ATOM     14  N   UNL     1      -3.259  13.395  22.585  0.00  0.00    +0.000 N 
ATOM     15  C   UNL     1      -3.208  14.490  23.461  0.00  0.00    +0.000 A 
ATOM     16  C   UNL     1      -2.081  14.926  24.366  0.00  0.00    +0.000 C 
ATOM     17  C   UNL     1      -5.101  12.468  20.991  0.00  0.00    +0.000 C 
ATOM     18  C   UNL     1      -6.530  12.812  20.445  0.00  0.00    +0.000 C 
ATOM     19  C   UNL     1      -6.428  12.984  18.908  0.00  0.00    +0.000 C 
ATOM     20  C   UNL     1      -7.452  11.599  20.708  0.00  0.00    +0.000 C 
ATOM     21  C   UNL     1      -7.250  14.070  21.002  0.00  0.00    +0.000 C 
ATOM     22  C   UNL     1      -6.510  14.977  21.948  0.00  0.00    +0.000 C 
ATOM     23  O   UNL     1      -7.049  16.010  22.346  0.00  0.00    +0.000 OA
ENDBRANCH   1  14
BRANCH   4  24
ATOM     24  C   UNL     1       0.962   9.469  22.104  0.00  0.00    +0.000 C 
ATOM     25  N   UNL     1       0.851   8.397  21.266  0.00  0.00    +0.000 N 
ATOM     26  O   UNL     1       1.950   9.578  22.826  0.00  0.00    +0.000 OA
ATOM     27  H   UNL     1       0.140   8.402  20.548  0.00  0.00    +0.000 HD
ATOM     28  H   UNL     1       1.650   7.785  21.181  0.00  0.00    +0.000 HD
ENDBRANCH   4  24
BRANCH   5  29
ATOM     29  N   UNL     1       0.548  11.579  19.967  0.00  0.00    +0.000 N 
ATOM     30  H   UNL     1       1.331  10.938  20.134  0.00  0.00    +0.000 HD
BRANCH  29  31
ATOM     31  C   UNL     1      -0.081  11.286  18.670  0.00  0.00    +0.000 C 
ATOM     32  C   UNL     1      -1.067  10.140  18.750  0.00  0.00    +0.000 C 
ATOM     33  C   UNL     1      -1.903  10.368  17.512  0.00  0.00    +0.000 C 
ATOM     34  O   UNL     1      -2.001  11.789  17.345  0.00  0.00    +0.000 OA
ATOM     35  C   UNL     1      -0.997  12.407  18.172  0.00  0.00    +0.000 C 
ENDBRANCH  29  31
ENDBRANCH   5  29
TORSDOF 4
ENDMDL
