MODEL 1
REMARK VINA RESULT:      -6.9      0.000      0.000
REMARK  Name = 
REMARK  10 active torsions:
REMARK  status: ('A' for Active; 'I' for Inactive)
REMARK    1  A    between atoms: C_1  and  C_2
REMARK    2  A    between atoms: C_2  and  O_3
REMARK    3  A    between atoms: O_3  and  C_4
REMARK    4  A    between atoms: C_9  and  N_10
REMARK    5  A    between atoms: N_10  and  C_11
REMARK    6  A    between atoms: N_10  and  S_20
REMARK    7  A    between atoms: C_11  and  C_12
REMARK    8  A    between atoms: S_20  and  C_23
REMARK    9  A    between atoms: C_26  and  S_27
REMARK   10  A    between atoms: S_27  and  C_28
REMARK                            x       y       z     vdW  Elec       q    Type
REMARK                         _______ _______ _______ _____ _____    ______ ____
ROOT
ATOM      1  N   UNL     1      -0.128  11.580  19.101  0.00  0.00    +0.000 N 
ENDROOT
BRANCH   1   7
ATOM      2  C   UNL     1      -2.617  11.852  18.846  0.00  0.00    +0.000 A 
ATOM      3  C   UNL     1      -3.751  11.618  18.045  0.00  0.00    +0.000 A 
ATOM      4  C   UNL     1      -3.743  10.640  17.056  0.00  0.00    +0.000 A 
ATOM      5  C   UNL     1      -2.588   9.908  16.832  0.00  0.00    +0.000 A 
ATOM      6  C   UNL     1      -1.430  10.202  17.548  0.00  0.00    +0.000 A 
ATOM      7  C   UNL     1      -1.406  11.203  18.530  0.00  0.00    +0.000 A 
BRANCH   2   8
ATOM      8  O   UNL     1      -2.692  12.643  19.974  0.00  0.00    +0.000 OA
BRANCH   8  10
ATOM      9  C   UNL     1      -4.308  12.719  21.803  0.00  0.00    +0.000 C 
ATOM     10  C   UNL     1      -4.043  12.996  20.333  0.00  0.00    +0.000 C 
ENDBRANCH   8  10
ENDBRANCH   2   8
ENDBRANCH   1   7
BRANCH   1  11
ATOM     11  S   UNL     1       0.416  10.784  20.521  0.00  0.00    +0.000 S 
ATOM     12  O   UNL     1       1.469  11.579  21.133  0.00  0.00    +0.000 OA
ATOM     13  O   UNL     1      -0.764  10.425  21.287  0.00  0.00    +0.000 OA
BRANCH  11  14
ATOM     14  C   UNL     1       1.221   9.256  20.028  0.00  0.00    +0.000 A 
ATOM     15  C   UNL     1       1.253   8.189  20.925  0.00  0.00    +0.000 A 
ATOM     16  C   UNL     1       1.896   6.998  20.580  0.00  0.00    +0.000 A 
ATOM     17  C   UNL     1       2.446   6.824  19.306  0.00  0.00    +0.000 A 
ATOM     18  C   UNL     1       2.332   7.865  18.376  0.00  0.00    +0.000 A 
ATOM     19  C   UNL     1       1.716   9.078  18.731  0.00  0.00    +0.000 A 
BRANCH  17  20
ATOM     20  S   UNL     1       3.320   5.292  19.007  0.00  0.00    +0.000 S 
ATOM     21  C   UNL     1       2.187   4.394  17.918  0.00  0.00    +0.000 C 
ENDBRANCH  17  20
ENDBRANCH  11  14
ENDBRANCH   1  11
BRANCH   1  22
ATOM     22  C   UNL     1       0.373  12.961  18.891  0.00  0.00    +0.000 C 
BRANCH  22  23
ATOM     23  C   UNL     1       1.854  13.109  18.550  0.00  0.00    +0.000 C 
ATOM     24  O   UNL     1       2.436  12.268  17.861  0.00  0.00    +0.000 OA
ATOM     25  N   UNL     1       2.556  14.200  19.052  0.00  0.00    +0.000 N 
ATOM     26  C   UNL     1       1.968  15.327  19.779  0.00  0.00    +0.000 C 
ATOM     27  C   UNL     1       1.703  16.482  18.804  0.00  0.00    +0.000 C 
ATOM     28  O   UNL     1       2.907  16.849  18.102  0.00  0.00    +0.000 OA
ATOM     29  C   UNL     1       3.461  15.726  17.387  0.00  0.00    +0.000 C 
ATOM     30  C   UNL     1       3.791  14.584  18.360  0.00  0.00    +0.000 C 
ENDBRANCH  22  23
ENDBRANCH   1  22
TORSDOF 8
ENDMDL
MODEL 2
REMARK VINA RESULT:      -6.6      0.500      1.033
REMARK  Name = 
REMARK  10 active torsions:
REMARK  status: ('A' for Active; 'I' for Inactive)
REMARK    1  A    between atoms: C_1  and  C_2
REMARK    2  A    between atoms: C_2  and  O_3
REMARK    3  A    between atoms: O_3  and  C_4
REMARK    4  A    between atoms: C_9  and  N_10
REMARK    5  A    between atoms: N_10  and  C_11
REMARK    6  A    between atoms: N_10  and  S_20
REMARK    7  A    between atoms: C_11  and  C_12
REMARK    8  A    between atoms: S_20  and  C_23
REMARK    9  A    between atoms: C_26  and  S_27
REMARK   10  A    between atoms: S_27  and  C_28
REMARK                            x       y       z     vdW  Elec       q    Type
REMARK                         _______ _______ _______ _____ _____    ______ ____
ROOT
ATOM      1  N   UNL     1      -0.161  11.627  19.086  0.00  0.00    +0.000 N 
ENDROOT
BRANCH   1   7
ATOM      2  C   UNL     1      -2.647  11.902  18.807  0.00  0.00    +0.000 A 
ATOM      3  C   UNL     1      -3.772  11.672  17.993  0.00  0.00    +0.000 A 
ATOM      4  C   UNL     1      -3.755  10.700  16.999  0.00  0.00    +0.000 A 
ATOM      5  C   UNL     1      -2.598   9.970  16.782  0.00  0.00    +0.000 A 
ATOM      6  C   UNL     1      -1.446  10.259  17.511  0.00  0.00    +0.000 A 
ATOM      7  C   UNL     1      -1.433  11.254  18.499  0.00  0.00    +0.000 A 
BRANCH   2   8
ATOM      8  O   UNL     1      -2.733  12.686  19.939  0.00  0.00    +0.000 OA
BRANCH   8  10
ATOM      9  C   UNL     1      -4.623  14.027  20.709  0.00  0.00    +0.000 C 
ATOM     10  C   UNL     1      -4.029  12.636  20.569  0.00  0.00    +0.000 C 
ENDBRANCH   8  10
ENDBRANCH   2   8
ENDBRANCH   1   7
BRANCH   1  11
ATOM     11  S   UNL     1       0.404  10.772  20.462  0.00  0.00    +0.000 S 
ATOM     12  O   UNL     1       1.462  11.544  21.096  0.00  0.00    +0.000 OA
ATOM     13  O   UNL     1      -0.764  10.373  21.225  0.00  0.00    +0.000 OA
BRANCH  11  14
ATOM     14  C   UNL     1       1.210   9.272  19.890  0.00  0.00    +0.000 A 
ATOM     15  C   UNL     1       1.708   9.227  18.588  0.00  0.00    +0.000 A 
ATOM     16  C   UNL     1       2.314   8.064  18.107  0.00  0.00    +0.000 A 
ATOM     17  C   UNL     1       2.507   6.957  18.940  0.00  0.00    +0.000 A 
ATOM     18  C   UNL     1       2.087   7.040  20.274  0.00  0.00    +0.000 A 
ATOM     19  C   UNL     1       1.444   8.195  20.753  0.00  0.00    +0.000 A 
BRANCH  17  20
ATOM     20  S   UNL     1       3.214   5.497  18.190  0.00  0.00    +0.000 S 
ATOM     21  C   UNL     1       3.296   4.337  19.578  0.00  0.00    +0.000 C 
ENDBRANCH  17  20
ENDBRANCH  11  14
ENDBRANCH   1  11
BRANCH   1  22
ATOM     22  C   UNL     1       0.311  13.028  18.945  0.00  0.00    +0.000 C 
BRANCH  22  23
ATOM     23  C   UNL     1       1.781  13.223  18.574  0.00  0.00    +0.000 C 
ATOM     24  O   UNL     1       2.356  12.436  17.820  0.00  0.00    +0.000 OA
ATOM     25  N   UNL     1       2.478  14.292  19.125  0.00  0.00    +0.000 N 
ATOM     26  C   UNL     1       1.893  15.362  19.936  0.00  0.00    +0.000 C 
ATOM     27  C   UNL     1       1.583  16.570  19.042  0.00  0.00    +0.000 C 
ATOM     28  O   UNL     1       2.761  17.001  18.333  0.00  0.00    +0.000 OA
ATOM     29  C   UNL     1       3.313  15.934  17.535  0.00  0.00    +0.000 C 
ATOM     30  C   UNL     1       3.688  14.740  18.425  0.00  0.00    +0.000 C 
ENDBRANCH  22  23
ENDBRANCH   1  22
TORSDOF 8
ENDMDL
MODEL 3
REMARK VINA RESULT:      -6.6      1.184      1.258
REMARK  Name = 
REMARK  10 active torsions:
REMARK  status: ('A' for Active; 'I' for Inactive)
REMARK    1  A    between atoms: C_1  and  C_2
REMARK    2  A    between atoms: C_2  and  O_3
REMARK    3  A    between atoms: O_3  and  C_4
REMARK    4  A    between atoms: C_9  and  N_10
REMARK    5  A    between atoms: N_10  and  C_11
REMARK    6  A    between atoms: N_10  and  S_20
REMARK    7  A    between atoms: C_11  and  C_12
REMARK    8  A    between atoms: S_20  and  C_23
REMARK    9  A    between atoms: C_26  and  S_27
REMARK   10  A    between atoms: S_27  and  C_28
REMARK                            x       y       z     vdW  Elec       q    Type
REMARK                         _______ _______ _______ _____ _____    ______ ____
ROOT
ATOM      1  N   UNL     1       0.303  10.867  19.775  0.00  0.00    +0.000 N 
ENDROOT
BRANCH   1   7
ATOM      2  C   UNL     1      -2.067  11.638  19.421  0.00  0.00    +0.000 A 
ATOM      3  C   UNL     1      -3.136  11.778  18.517  0.00  0.00    +0.000 A 
ATOM      4  C   UNL     1      -3.191  11.030  17.346  0.00  0.00    +0.000 A 
ATOM      5  C   UNL     1      -2.157  10.157  17.048  0.00  0.00    +0.000 A 
ATOM      6  C   UNL     1      -1.045  10.086  17.884  0.00  0.00    +0.000 A 
ATOM      7  C   UNL     1      -0.955  10.852  19.055  0.00  0.00    +0.000 A 
BRANCH   2   8
ATOM      8  O   UNL     1      -2.124  12.191  20.684  0.00  0.00    +0.000 OA
BRANCH   8  10
ATOM      9  C   UNL     1      -3.173  14.142  21.713  0.00  0.00    +0.000 C 
ATOM     10  C   UNL     1      -3.383  12.835  20.968  0.00  0.00    +0.000 C 
ENDBRANCH   8  10
ENDBRANCH   2   8
ENDBRANCH   1   7
BRANCH   1  11
ATOM     11  S   UNL     1       0.667   9.572  20.841  0.00  0.00    +0.000 S 
ATOM     12  O   UNL     1       1.575  10.051  21.872  0.00  0.00    +0.000 OA
ATOM     13  O   UNL     1      -0.594   8.956  21.210  0.00  0.00    +0.000 OA
BRANCH  11  14
ATOM     14  C   UNL     1       1.614   8.351  19.926  0.00  0.00    +0.000 A 
ATOM     15  C   UNL     1       1.770   7.074  20.466  0.00  0.00    +0.000 A 
ATOM     16  C   UNL     1       2.524   6.112  19.790  0.00  0.00    +0.000 A 
ATOM     17  C   UNL     1       3.068   6.381  18.530  0.00  0.00    +0.000 A 
ATOM     18  C   UNL     1       2.832   7.635  17.951  0.00  0.00    +0.000 A 
ATOM     19  C   UNL     1       2.103   8.618  18.642  0.00  0.00    +0.000 A 
BRANCH  17  20
ATOM     20  S   UNL     1       4.087   5.105  17.801  0.00  0.00    +0.000 S 
ATOM     21  C   UNL     1       5.259   4.727  19.127  0.00  0.00    +0.000 C 
ENDBRANCH  17  20
ENDBRANCH  11  14
ENDBRANCH   1  11
BRANCH   1  22
ATOM     22  C   UNL     1       0.933  12.174  20.092  0.00  0.00    +0.000 C 
BRANCH  22  23
ATOM     23  C   UNL     1       2.048  12.641  19.157  0.00  0.00    +0.000 C 
ATOM     24  O   UNL     1       2.244  12.087  18.073  0.00  0.00    +0.000 OA
ATOM     25  N   UNL     1       2.867  13.692  19.558  0.00  0.00    +0.000 N 
ATOM     26  C   UNL     1       2.674  14.510  20.757  0.00  0.00    +0.000 C 
ATOM     27  C   UNL     1       1.922  15.795  20.384  0.00  0.00    +0.000 C 
ATOM     28  O   UNL     1       2.610  16.507  19.337  0.00  0.00    +0.000 OA
ATOM     29  C   UNL     1       2.779  15.684  18.165  0.00  0.00    +0.000 C 
ATOM     30  C   UNL     1       3.586  14.424  18.509  0.00  0.00    +0.000 C 
ENDBRANCH  22  23
ENDBRANCH   1  22
TORSDOF 8
ENDMDL
MODEL 4
REMARK VINA RESULT:      -6.5      1.696      2.136
REMARK  Name = 
REMARK  10 active torsions:
REMARK  status: ('A' for Active; 'I' for Inactive)
REMARK    1  A    between atoms: C_1  and  C_2
REMARK    2  A    between atoms: C_2  and  O_3
REMARK    3  A    between atoms: O_3  and  C_4
REMARK    4  A    between atoms: C_9  and  N_10
REMARK    5  A    between atoms: N_10  and  C_11
REMARK    6  A    between atoms: N_10  and  S_20
REMARK    7  A    between atoms: C_11  and  C_12
REMARK    8  A    between atoms: S_20  and  C_23
REMARK    9  A    between atoms: C_26  and  S_27
REMARK   10  A    between atoms: S_27  and  C_28
REMARK                            x       y       z     vdW  Elec       q    Type
REMARK                         _______ _______ _______ _____ _____    ______ ____
ROOT
ATOM      1  N   UNL     1       0.481  10.631  20.405  0.00  0.00    +0.000 N 
ENDROOT
BRANCH   1   7
ATOM      2  C   UNL     1      -1.767  11.745  20.203  0.00  0.00    +0.000 A 
ATOM      3  C   UNL     1      -2.820  12.123  19.349  0.00  0.00    +0.000 A 
ATOM      4  C   UNL     1      -2.994  11.518  18.109  0.00  0.00    +0.000 A 
ATOM      5  C   UNL     1      -2.094  10.552  17.692  0.00  0.00    +0.000 A 
ATOM      6  C   UNL     1      -0.989  10.243  18.483  0.00  0.00    +0.000 A 
ATOM      7  C   UNL     1      -0.778  10.861  19.724  0.00  0.00    +0.000 A 
BRANCH   2   8
ATOM      8  O   UNL     1      -1.728  12.164  21.517  0.00  0.00    +0.000 OA
BRANCH   8  10
ATOM      9  C   UNL     1      -3.180  12.240  23.479  0.00  0.00    +0.000 C 
ATOM     10  C   UNL     1      -3.010  12.600  22.014  0.00  0.00    +0.000 C 
ENDBRANCH   8  10
ENDBRANCH   2   8
ENDBRANCH   1   7
BRANCH   1  11
ATOM     11  S   UNL     1       0.663   9.217  21.362  0.00  0.00    +0.000 S 
ATOM     12  O   UNL     1       1.597   9.496  22.441  0.00  0.00    +0.000 OA
ATOM     13  O   UNL     1      -0.671   8.730  21.661  0.00  0.00    +0.000 OA
BRANCH  11  14
ATOM     14  C   UNL     1       1.479   7.971  20.359  0.00  0.00    +0.000 A 
ATOM     15  C   UNL     1       2.043   8.348  19.140  0.00  0.00    +0.000 A 
ATOM     16  C   UNL     1       2.660   7.394  18.326  0.00  0.00    +0.000 A 
ATOM     17  C   UNL     1       2.794   6.068  18.749  0.00  0.00    +0.000 A 
ATOM     18  C   UNL     1       2.307   5.714  20.014  0.00  0.00    +0.000 A 
ATOM     19  C   UNL     1       1.654   6.662  20.822  0.00  0.00    +0.000 A 
BRANCH  17  20
ATOM     20  S   UNL     1       3.522   4.920  17.587  0.00  0.00    +0.000 S 
ATOM     21  C   UNL     1       5.297   5.149  17.860  0.00  0.00    +0.000 C 
ENDBRANCH  17  20
ENDBRANCH  11  14
ENDBRANCH   1  11
BRANCH   1  22
ATOM     22  C   UNL     1       1.310  11.799  20.796  0.00  0.00    +0.000 C 
BRANCH  22  23
ATOM     23  C   UNL     1       1.678  12.781  19.686  0.00  0.00    +0.000 C 
ATOM     24  O   UNL     1       1.960  12.384  18.553  0.00  0.00    +0.000 OA
ATOM     25  N   UNL     1       1.719  14.141  19.975  0.00  0.00    +0.000 N 
ATOM     26  C   UNL     1       1.297  14.755  21.235  0.00  0.00    +0.000 C 
ATOM     27  C   UNL     1      -0.147  15.257  21.101  0.00  0.00    +0.000 C 
ATOM     28  O   UNL     1      -0.277  16.156  19.982  0.00  0.00    +0.000 OA
ATOM     29  C   UNL     1       0.136  15.525  18.752  0.00  0.00    +0.000 C 
ATOM     30  C   UNL     1       1.601  15.074  18.849  0.00  0.00    +0.000 C 
ENDBRANCH  22  23
ENDBRANCH   1  22
TORSDOF 8
ENDMDL
MODEL 5
REMARK VINA RESULT:      -6.4      1.693      2.039
REMARK  Name = 
REMARK  10 active torsions:
REMARK  status: ('A' for Active; 'I' for Inactive)
REMARK    1  A    between atoms: C_1  and  C_2
REMARK    2  A    between atoms: C_2  and  O_3
REMARK    3  A    between atoms: O_3  and  C_4
REMARK    4  A    between atoms: C_9  and  N_10
REMARK    5  A    between atoms: N_10  and  C_11
REMARK    6  A    between atoms: N_10  and  S_20
REMARK    7  A    between atoms: C_11  and  C_12
REMARK    8  A    between atoms: S_20  and  C_23
REMARK    9  A    between atoms: C_26  and  S_27
REMARK   10  A    between atoms: S_27  and  C_28
REMARK                            x       y       z     vdW  Elec       q    Type
REMARK                         _______ _______ _______ _____ _____    ______ ____
ROOT
ATOM      1  N   UNL     1       0.501  10.708  20.497  0.00  0.00    +0.000 N 
ENDROOT
BRANCH   1   7
ATOM      2  C   UNL     1      -1.727  11.869  20.649  0.00  0.00    +0.000 A 
ATOM      3  C   UNL     1      -2.864  12.328  19.958  0.00  0.00    +0.000 A 
ATOM      4  C   UNL     1      -3.198  11.824  18.705  0.00  0.00    +0.000 A 
ATOM      5  C   UNL     1      -2.376  10.879  18.112  0.00  0.00    +0.000 A 
ATOM      6  C   UNL     1      -1.194  10.493  18.740  0.00  0.00    +0.000 A 
ATOM      7  C   UNL     1      -0.823  11.010  19.990  0.00  0.00    +0.000 A 
BRANCH   2   8
ATOM      8  O   UNL     1      -1.524  12.183  21.976  0.00  0.00    +0.000 OA
BRANCH   8  10
ATOM      9  C   UNL     1      -2.796  13.462  23.622  0.00  0.00    +0.000 C 
ATOM     10  C   UNL     1      -2.743  12.223  22.745  0.00  0.00    +0.000 C 
ENDBRANCH   8  10
ENDBRANCH   2   8
ENDBRANCH   1   7
BRANCH   1  11
ATOM     11  S   UNL     1       0.748   9.249  21.366  0.00  0.00    +0.000 S 
ATOM     12  O   UNL     1       1.710   9.490  22.430  0.00  0.00    +0.000 OA
ATOM     13  O   UNL     1      -0.564   8.712  21.679  0.00  0.00    +0.000 OA
BRANCH  11  14
ATOM     14  C   UNL     1       1.558   8.080  20.270  0.00  0.00    +0.000 A 
ATOM     15  C   UNL     1       1.723   6.761  20.692  0.00  0.00    +0.000 A 
ATOM     16  C   UNL     1       2.375   5.836  19.873  0.00  0.00    +0.000 A 
ATOM     17  C   UNL     1       2.800   6.190  18.588  0.00  0.00    +0.000 A 
ATOM     18  C   UNL     1       2.551   7.491  18.133  0.00  0.00    +0.000 A 
ATOM     19  C   UNL     1       1.927   8.435  18.968  0.00  0.00    +0.000 A 
BRANCH  17  20
ATOM     20  S   UNL     1       3.699   4.951  17.665  0.00  0.00    +0.000 S 
ATOM     21  C   UNL     1       2.469   3.638  17.460  0.00  0.00    +0.000 C 
ENDBRANCH  17  20
ENDBRANCH  11  14
ENDBRANCH   1  11
BRANCH   1  22
ATOM     22  C   UNL     1       1.417  11.830  20.825  0.00  0.00    +0.000 C 
BRANCH  22  23
ATOM     23  C   UNL     1       1.713  12.825  19.704  0.00  0.00    +0.000 C 
ATOM     24  O   UNL     1       1.993  12.437  18.568  0.00  0.00    +0.000 OA
ATOM     25  N   UNL     1       1.690  14.186  19.988  0.00  0.00    +0.000 N 
ATOM     26  C   UNL     1       1.260  14.783  21.254  0.00  0.00    +0.000 C 
ATOM     27  C   UNL     1      -0.210  15.210  21.146  0.00  0.00    +0.000 C 
ATOM     28  O   UNL     1      -0.407  16.095  20.026  0.00  0.00    +0.000 OA
ATOM     29  C   UNL     1       0.014  15.481  18.791  0.00  0.00    +0.000 C 
ATOM     30  C   UNL     1       1.502  15.106  18.860  0.00  0.00    +0.000 C 
ENDBRANCH  22  23
ENDBRANCH   1  22
TORSDOF 8
ENDMDL
MODEL 6
REMARK VINA RESULT:      -6.4      1.605      2.682
REMARK  Name = 
REMARK  10 active torsions:
REMARK  status: ('A' for Active; 'I' for Inactive)
REMARK    1  A    between atoms: C_1  and  C_2
REMARK    2  A    between atoms: C_2  and  O_3
REMARK    3  A    between atoms: O_3  and  C_4
REMARK    4  A    between atoms: C_9  and  N_10
REMARK    5  A    between atoms: N_10  and  C_11
REMARK    6  A    between atoms: N_10  and  S_20
REMARK    7  A    between atoms: C_11  and  C_12
REMARK    8  A    between atoms: S_20  and  C_23
REMARK    9  A    between atoms: C_26  and  S_27
REMARK   10  A    between atoms: S_27  and  C_28
REMARK                            x       y       z     vdW  Elec       q    Type
REMARK                         _______ _______ _______ _____ _____    ______ ____
ROOT
ATOM      1  N   UNL     1       0.351  11.244  20.396  0.00  0.00    +0.000 N 
ENDROOT
BRANCH   1   7
ATOM      2  C   UNL     1      -1.749  11.594  19.053  0.00  0.00    +0.000 A 
ATOM      3  C   UNL     1      -3.113  11.942  19.071  0.00  0.00    +0.000 A 
ATOM      4  C   UNL     1      -3.662  12.646  20.138  0.00  0.00    +0.000 A 
ATOM      5  C   UNL     1      -2.861  12.978  21.218  0.00  0.00    +0.000 A 
ATOM      6  C   UNL     1      -1.536  12.549  21.258  0.00  0.00    +0.000 A 
ATOM      7  C   UNL     1      -0.969  11.814  20.207  0.00  0.00    +0.000 A 
BRANCH   2   8
ATOM      8  O   UNL     1      -1.151  11.114  17.907  0.00  0.00    +0.000 OA
BRANCH   8  10
ATOM      9  C   UNL     1      -2.494  10.265  16.052  0.00  0.00    +0.000 C 
ATOM     10  C   UNL     1      -1.805   9.947  17.368  0.00  0.00    +0.000 C 
ENDBRANCH   8  10
ENDBRANCH   2   8
ENDBRANCH   1   7
BRANCH   1  11
ATOM     11  S   UNL     1       0.493   9.696  21.123  0.00  0.00    +0.000 S 
ATOM     12  O   UNL     1       1.305   9.812  22.324  0.00  0.00    +0.000 OA
ATOM     13  O   UNL     1      -0.844   9.137  21.199  0.00  0.00    +0.000 OA
BRANCH  11  14
ATOM     14  C   UNL     1       1.450   8.651  20.020  0.00  0.00    +0.000 A 
ATOM     15  C   UNL     1       1.857   7.393  20.465  0.00  0.00    +0.000 A 
ATOM     16  C   UNL     1       2.626   6.569  19.640  0.00  0.00    +0.000 A 
ATOM     17  C   UNL     1       2.933   6.952  18.330  0.00  0.00    +0.000 A 
ATOM     18  C   UNL     1       2.445   8.176  17.855  0.00  0.00    +0.000 A 
ATOM     19  C   UNL     1       1.700   9.024  18.694  0.00  0.00    +0.000 A 
BRANCH  17  20
ATOM     20  S   UNL     1       3.995   5.857  17.398  0.00  0.00    +0.000 S 
ATOM     21  C   UNL     1       4.660   4.763  18.678  0.00  0.00    +0.000 C 
ENDBRANCH  17  20
ENDBRANCH  11  14
ENDBRANCH   1  11
BRANCH   1  22
ATOM     22  C   UNL     1       1.509  12.157  20.565  0.00  0.00    +0.000 C 
BRANCH  22  23
ATOM     23  C   UNL     1       1.757  13.167  19.446  0.00  0.00    +0.000 C 
ATOM     24  O   UNL     1       1.883  12.801  18.276  0.00  0.00    +0.000 OA
ATOM     25  N   UNL     1       1.867  14.516  19.767  0.00  0.00    +0.000 N 
ATOM     26  C   UNL     1       1.623  15.098  21.089  0.00  0.00    +0.000 C 
ATOM     27  C   UNL     1       0.186  15.632  21.155  0.00  0.00    +0.000 C 
ATOM     28  O   UNL     1      -0.063  16.568  20.088  0.00  0.00    +0.000 OA
ATOM     29  C   UNL     1       0.174  15.970  18.798  0.00  0.00    +0.000 C 
ATOM     30  C   UNL     1       1.628  15.486  18.693  0.00  0.00    +0.000 C 
ENDBRANCH  22  23
ENDBRANCH   1  22
TORSDOF 8
ENDMDL
MODEL 7
REMARK VINA RESULT:      -6.3      2.422      5.651
REMARK  Name = 
REMARK  10 active torsions:
REMARK  status: ('A' for Active; 'I' for Inactive)
REMARK    1  A    between atoms: C_1  and  C_2
REMARK    2  A    between atoms: C_2  and  O_3
REMARK    3  A    between atoms: O_3  and  C_4
REMARK    4  A    between atoms: C_9  and  N_10
REMARK    5  A    between atoms: N_10  and  C_11
REMARK    6  A    between atoms: N_10  and  S_20
REMARK    7  A    between atoms: C_11  and  C_12
REMARK    8  A    between atoms: S_20  and  C_23
REMARK    9  A    between atoms: C_26  and  S_27
REMARK   10  A    between atoms: S_27  and  C_28
REMARK                            x       y       z     vdW  Elec       q    Type
REMARK                         _______ _______ _______ _____ _____    ______ ____
ROOT
ATOM      1  N   UNL     1       0.734  11.643  19.126  0.00  0.00    +0.000 N 
ENDROOT
BRANCH   1   7
ATOM      2  C   UNL     1       1.377   9.522  20.320  0.00  0.00    +0.000 A 
ATOM      3  C   UNL     1       1.708   8.160  20.202  0.00  0.00    +0.000 A 
ATOM      4  C   UNL     1       2.145   7.627  18.994  0.00  0.00    +0.000 A 
ATOM      5  C   UNL     1       2.222   8.445  17.879  0.00  0.00    +0.000 A 
ATOM      6  C   UNL     1       1.799   9.770  17.958  0.00  0.00    +0.000 A 
ATOM      7  C   UNL     1       1.328  10.321  19.159  0.00  0.00    +0.000 A 
BRANCH   2   8
ATOM      8  O   UNL     1       1.176  10.103  21.555  0.00  0.00    +0.000 OA
BRANCH   8  10
ATOM      9  C   UNL     1      -0.372   9.536  23.357  0.00  0.00    +0.000 C 
ATOM     10  C   UNL     1       0.882   9.147  22.594  0.00  0.00    +0.000 C 
ENDBRANCH   8  10
ENDBRANCH   2   8
ENDBRANCH   1   7
BRANCH   1  11
ATOM     11  S   UNL     1      -0.915  11.804  18.678  0.00  0.00    +0.000 S 
ATOM     12  O   UNL     1      -1.040  12.896  17.726  0.00  0.00    +0.000 OA
ATOM     13  O   UNL     1      -1.393  10.478  18.331  0.00  0.00    +0.000 OA
BRANCH  11  14
ATOM     14  C   UNL     1      -1.833  12.345  20.123  0.00  0.00    +0.000 A 
ATOM     15  C   UNL     1      -3.213  12.524  20.019  0.00  0.00    +0.000 A 
ATOM     16  C   UNL     1      -3.949  12.971  21.118  0.00  0.00    +0.000 A 
ATOM     17  C   UNL     1      -3.336  13.170  22.360  0.00  0.00    +0.000 A 
ATOM     18  C   UNL     1      -1.967  12.901  22.484  0.00  0.00    +0.000 A 
ATOM     19  C   UNL     1      -1.215  12.485  21.370  0.00  0.00    +0.000 A 
BRANCH  17  20
ATOM     20  S   UNL     1      -4.360  13.826  23.670  0.00  0.00    +0.000 S 
ATOM     21  C   UNL     1      -5.952  13.017  23.373  0.00  0.00    +0.000 C 
ENDBRANCH  17  20
ENDBRANCH  11  14
ENDBRANCH   1  11
BRANCH   1  22
ATOM     22  C   UNL     1       1.605  12.814  18.855  0.00  0.00    +0.000 C 
BRANCH  22  23
ATOM     23  C   UNL     1       1.980  13.682  20.056  0.00  0.00    +0.000 C 
ATOM     24  O   UNL     1       2.454  13.183  21.078  0.00  0.00    +0.000 OA
ATOM     25  N   UNL     1       1.752  15.053  19.993  0.00  0.00    +0.000 N 
ATOM     26  C   UNL     1       1.308  15.788  18.807  0.00  0.00    +0.000 C 
ATOM     27  C   UNL     1       2.526  16.383  18.088  0.00  0.00    +0.000 C 
ATOM     28  O   UNL     1       3.301  17.204  18.984  0.00  0.00    +0.000 OA
ATOM     29  C   UNL     1       3.734  16.456  20.138  0.00  0.00    +0.000 C 
ATOM     30  C   UNL     1       2.522  15.906  20.905  0.00  0.00    +0.000 C 
ENDBRANCH  22  23
ENDBRANCH   1  22
TORSDOF 8
ENDMDL
MODEL 8
REMARK VINA RESULT:      -6.3      1.120      2.322
REMARK  Name = 
REMARK  10 active torsions:
REMARK  status: ('A' for Active; 'I' for Inactive)
REMARK    1  A    between atoms: C_1  and  C_2
REMARK    2  A    between atoms: C_2  and  O_3
REMARK    3  A    between atoms: O_3  and  C_4
REMARK    4  A    between atoms: C_9  and  N_10
REMARK    5  A    between atoms: N_10  and  C_11
REMARK    6  A    between atoms: N_10  and  S_20
REMARK    7  A    between atoms: C_11  and  C_12
REMARK    8  A    between atoms: S_20  and  C_23
REMARK    9  A    between atoms: C_26  and  S_27
REMARK   10  A    between atoms: S_27  and  C_28
REMARK                            x       y       z     vdW  Elec       q    Type
REMARK                         _______ _______ _______ _____ _____    ______ ____
ROOT
ATOM      1  N   UNL     1      -0.642  12.527  19.620  0.00  0.00    +0.000 N 
ENDROOT
BRANCH   1   7
ATOM      2  C   UNL     1      -2.623  11.659  18.333  0.00  0.00    +0.000 A 
ATOM      3  C   UNL     1      -4.006  11.397  18.337  0.00  0.00    +0.000 A 
ATOM      4  C   UNL     1      -4.854  12.019  19.247  0.00  0.00    +0.000 A 
ATOM      5  C   UNL     1      -4.322  12.885  20.189  0.00  0.00    +0.000 A 
ATOM      6  C   UNL     1      -2.944  13.072  20.261  0.00  0.00    +0.000 A 
ATOM      7  C   UNL     1      -2.068  12.433  19.372  0.00  0.00    +0.000 A 
BRANCH   2   8
ATOM      8  O   UNL     1      -1.820  11.237  17.294  0.00  0.00    +0.000 OA
BRANCH   8  10
ATOM      9  C   UNL     1      -2.776  10.458  15.186  0.00  0.00    +0.000 C 
ATOM     10  C   UNL     1      -2.348  10.090  16.596  0.00  0.00    +0.000 C 
ENDBRANCH   8  10
ENDBRANCH   2   8
ENDBRANCH   1   7
BRANCH   1  11
ATOM     11  S   UNL     1       0.057  11.543  20.841  0.00  0.00    +0.000 S 
ATOM     12  O   UNL     1       1.145  12.274  21.470  0.00  0.00    +0.000 OA
ATOM     13  O   UNL     1      -1.033  11.024  21.646  0.00  0.00    +0.000 OA
BRANCH  11  14
ATOM     14  C   UNL     1       0.846  10.143  20.040  0.00  0.00    +0.000 A 
ATOM     15  C   UNL     1       1.203   9.036  20.811  0.00  0.00    +0.000 A 
ATOM     16  C   UNL     1       1.843   7.944  20.220  0.00  0.00    +0.000 A 
ATOM     17  C   UNL     1       2.065   7.903  18.840  0.00  0.00    +0.000 A 
ATOM     18  C   UNL     1       1.623   8.976  18.056  0.00  0.00    +0.000 A 
ATOM     19  C   UNL     1       1.010  10.093  18.651  0.00  0.00    +0.000 A 
BRANCH  17  20
ATOM     20  S   UNL     1       2.970   6.496  18.210  0.00  0.00    +0.000 S 
ATOM     21  C   UNL     1       3.117   5.432  19.668  0.00  0.00    +0.000 C 
ENDBRANCH  17  20
ENDBRANCH  11  14
ENDBRANCH   1  11
BRANCH   1  22
ATOM     22  C   UNL     1       0.054  13.806  19.330  0.00  0.00    +0.000 C 
BRANCH  22  23
ATOM     23  C   UNL     1       1.446  13.703  18.708  0.00  0.00    +0.000 C 
ATOM     24  O   UNL     1       1.672  12.922  17.781  0.00  0.00    +0.000 OA
ATOM     25  N   UNL     1       2.473  14.487  19.221  0.00  0.00    +0.000 N 
ATOM     26  C   UNL     1       2.319  15.534  20.233  0.00  0.00    +0.000 C 
ATOM     27  C   UNL     1       2.190  16.899  19.543  0.00  0.00    +0.000 C 
ATOM     28  O   UNL     1       3.311  17.140  18.670  0.00  0.00    +0.000 OA
ATOM     29  C   UNL     1       3.436  16.102  17.676  0.00  0.00    +0.000 C 
ATOM     30  C   UNL     1       3.629  14.736  18.352  0.00  0.00    +0.000 C 
ENDBRANCH  22  23
ENDBRANCH   1  22
TORSDOF 8
ENDMDL
MODEL 9
REMARK VINA RESULT:      -6.3      1.880      5.039
REMARK  Name = 
REMARK  10 active torsions:
REMARK  status: ('A' for Active; 'I' for Inactive)
REMARK    1  A    between atoms: C_1  and  C_2
REMARK    2  A    between atoms: C_2  and  O_3
REMARK    3  A    between atoms: O_3  and  C_4
REMARK    4  A    between atoms: C_9  and  N_10
REMARK    5  A    between atoms: N_10  and  C_11
REMARK    6  A    between atoms: N_10  and  S_20
REMARK    7  A    between atoms: C_11  and  C_12
REMARK    8  A    between atoms: S_20  and  C_23
REMARK    9  A    between atoms: C_26  and  S_27
REMARK   10  A    between atoms: S_27  and  C_28
REMARK                            x       y       z     vdW  Elec       q    Type
REMARK                         _______ _______ _______ _____ _____    ______ ____
ROOT
ATOM      1  N   UNL     1       0.142  11.565  19.640  0.00  0.00    +0.000 N 
ENDROOT
BRANCH   1   7
ATOM      2  C   UNL     1       0.977  13.850  20.288  0.00  0.00    +0.000 A 
ATOM      3  C   UNL     1       2.038  14.773  20.235  0.00  0.00    +0.000 A 
ATOM      4  C   UNL     1       3.040  14.665  19.277  0.00  0.00    +0.000 A 
ATOM      5  C   UNL     1       3.013  13.608  18.382  0.00  0.00    +0.000 A 
ATOM      6  C   UNL     1       2.026  12.630  18.490  0.00  0.00    +0.000 A 
ATOM      7  C   UNL     1       1.022  12.705  19.466  0.00  0.00    +0.000 A 
BRANCH   2   8
ATOM      8  O   UNL     1      -0.135  14.084  21.070  0.00  0.00    +0.000 OA
BRANCH   8  10
ATOM      9  C   UNL     1      -1.058  15.279  22.989  0.00  0.00    +0.000 C 
ATOM     10  C   UNL     1       0.180  14.682  22.344  0.00  0.00    +0.000 C 
ENDBRANCH   8  10
ENDBRANCH   2   8
ENDBRANCH   1   7
BRANCH   1  11
ATOM     11  S   UNL     1       0.579  10.339  20.759  0.00  0.00    +0.000 S 
ATOM     12  O   UNL     1       1.582  10.868  21.670  0.00  0.00    +0.000 OA
ATOM     13  O   UNL     1      -0.654   9.779  21.279  0.00  0.00    +0.000 OA
BRANCH  11  14
ATOM     14  C   UNL     1       1.421   9.037  19.854  0.00  0.00    +0.000 A 
ATOM     15  C   UNL     1       1.629   7.806  20.478  0.00  0.00    +0.000 A 
ATOM     16  C   UNL     1       2.305   6.783  19.808  0.00  0.00    +0.000 A 
ATOM     17  C   UNL     1       2.714   6.943  18.480  0.00  0.00    +0.000 A 
ATOM     18  C   UNL     1       2.422   8.147  17.827  0.00  0.00    +0.000 A 
ATOM     19  C   UNL     1       1.773   9.192  18.508  0.00  0.00    +0.000 A 
BRANCH  17  20
ATOM     20  S   UNL     1       3.647   5.600  17.757  0.00  0.00    +0.000 S 
ATOM     21  C   UNL     1       2.452   4.240  17.756  0.00  0.00    +0.000 C 
ENDBRANCH  17  20
ENDBRANCH  11  14
ENDBRANCH   1  11
BRANCH   1  22
ATOM     22  C   UNL     1      -0.716  11.142  18.505  0.00  0.00    +0.000 C 
BRANCH  22  23
ATOM     23  C   UNL     1      -2.226  11.263  18.705  0.00  0.00    +0.000 C 
ATOM     24  O   UNL     1      -2.697  12.039  19.538  0.00  0.00    +0.000 OA
ATOM     25  N   UNL     1      -3.072  10.459  17.948  0.00  0.00    +0.000 N 
ATOM     26  C   UNL     1      -2.657   9.586  16.848  0.00  0.00    +0.000 C 
ATOM     27  C   UNL     1      -2.848  10.318  15.513  0.00  0.00    +0.000 C 
ATOM     28  O   UNL     1      -4.207  10.776  15.368  0.00  0.00    +0.000 OA
ATOM     29  C   UNL     1      -4.589  11.641  16.457  0.00  0.00    +0.000 C 
ATOM     30  C   UNL     1      -4.463  10.901  17.797  0.00  0.00    +0.000 C 
ENDBRANCH  22  23
ENDBRANCH   1  22
TORSDOF 8
ENDMDL
