MODEL 1
REMARK VINA RESULT:      -8.1      0.000      0.000
REMARK  Name = 
REMARK  7 active torsions:
REMARK  status: ('A' for Active; 'I' for Inactive)
REMARK    1  A    between atoms: C_1  and  C_2
REMARK    2  A    between atoms: C_2  and  C_3
REMARK    3  A    between atoms: C_3  and  O_4
REMARK    4  A    between atoms: C_26  and  C_27
REMARK    5  A    between atoms: C_27  and  C_29
REMARK    6  A    between atoms: C_32  and  C_33
REMARK    7  A    between atoms: C_34  and  O_35
REMARK                            x       y       z     vdW  Elec       q    Type
REMARK                         _______ _______ _______ _____ _____    ______ ____
ROOT
ATOM      1  C   UNL     1       3.112   4.697  19.735  0.00  0.00    +0.000 C 
ATOM      2  C   UNL     1       3.218   4.413  18.201  0.00  0.00    +0.000 C 
ATOM      3  O   UNL     1       2.339   3.848  17.527  0.00  0.00    +0.000 OA
ATOM      4  O   UNL     1       4.172   5.153  17.657  0.00  0.00    +0.000 OA
ATOM      5  C   UNL     1       3.444   6.271  17.250  0.00  0.00    +0.000 C 
ATOM      6  C   UNL     1       2.566   6.789  18.382  0.00  0.00    +0.000 A 
ATOM      7  C   UNL     1       2.240   6.136  19.549  0.00  0.00    +0.000 A 
ATOM      8  C   UNL     1       1.463   7.078  20.565  0.00  0.00    +0.000 A 
ATOM      9  C   UNL     1       1.221   8.426  20.306  0.00  0.00    +0.000 A 
ATOM     10  N   UNL     1       1.748   8.902  19.108  0.00  0.00    +0.000 N 
ATOM     11  C   UNL     1       2.221   8.181  18.085  0.00  0.00    +0.000 A 
ATOM     12  O   UNL     1       2.431   8.655  16.970  0.00  0.00    +0.000 OA
ATOM     13  C   UNL     1       1.619  10.306  18.887  0.00  0.00    +0.000 C 
ATOM     14  C   UNL     1       0.812  10.812  20.007  0.00  0.00    +0.000 A 
ATOM     15  C   UNL     1       0.520   9.738  20.877  0.00  0.00    +0.000 A 
ATOM     16  N   UNL     1      -0.327   9.946  21.903  0.00  0.00    +0.000 NA
ATOM     17  C   UNL     1      -0.865  11.233  22.078  0.00  0.00    +0.000 A 
ATOM     18  C   UNL     1      -1.769  11.514  23.120  0.00  0.00    +0.000 A 
ATOM     19  C   UNL     1      -2.339  12.789  23.370  0.00  0.00    +0.000 A 
ATOM     20  C   UNL     1      -2.036  13.856  22.553  0.00  0.00    +0.000 A 
ATOM     21  C   UNL     1      -1.177  13.630  21.491  0.00  0.00    +0.000 A 
ATOM     22  C   UNL     1      -0.566  12.353  21.241  0.00  0.00    +0.000 A 
ATOM     23  C   UNL     1       0.327  12.129  20.171  0.00  0.00    +0.000 A 
ENDROOT
BRANCH   1  25
ATOM     24  C   UNL     1       4.455   2.132  19.732  0.00  0.00    +0.000 C 
ATOM     25  C   UNL     1       3.262   3.086  20.086  0.00  0.00    +0.000 C 
ENDBRANCH   1  25
BRANCH   1  26
ATOM     26  O   UNL     1       4.230   5.260  20.470  0.00  0.00    +0.000 OA
ATOM     27  H   UNL     1       5.024   4.711  20.372  0.00  0.00    +0.000 HD
ENDBRANCH   1  26
BRANCH  23  28
ATOM     28  C   UNL     1       0.821  13.324  19.362  0.00  0.00    +0.000 C 
ATOM     29  O   UNL     1       0.065  13.819  18.523  0.00  0.00    +0.000 OA
BRANCH  28  30
ATOM     30  C   UNL     1       2.096  14.061  19.561  0.00  0.00    +0.000 A 
ATOM     31  C   UNL     1       2.385  14.826  20.685  0.00  0.00    +0.000 A 
ATOM     32  C   UNL     1       3.424  15.766  20.630  0.00  0.00    +0.000 A 
ATOM     33  C   UNL     1       4.257  15.860  19.504  0.00  0.00    +0.000 A 
ATOM     34  C   UNL     1       5.241  16.987  19.393  0.00  0.00    +0.000 C 
ATOM     35  C   UNL     1       4.100  14.912  18.492  0.00  0.00    +0.000 A 
ATOM     36  C   UNL     1       3.033  14.020  18.517  0.00  0.00    +0.000 A 
BRANCH  35  37
ATOM     37  O   UNL     1       4.922  14.838  17.404  0.00  0.00    +0.000 OA
ATOM     38  H   UNL     1       4.497  14.313  16.708  0.00  0.00    +0.000 HD
ENDBRANCH  35  37
ENDBRANCH  28  30
ENDBRANCH  23  28
TORSDOF 5
ENDMDL
MODEL 2
REMARK VINA RESULT:      -8.0      1.109      1.335
REMARK  Name = 
REMARK  7 active torsions:
REMARK  status: ('A' for Active; 'I' for Inactive)
REMARK    1  A    between atoms: C_1  and  C_2
REMARK    2  A    between atoms: C_2  and  C_3
REMARK    3  A    between atoms: C_3  and  O_4
REMARK    4  A    between atoms: C_26  and  C_27
REMARK    5  A    between atoms: C_27  and  C_29
REMARK    6  A    between atoms: C_32  and  C_33
REMARK    7  A    between atoms: C_34  and  O_35
REMARK                            x       y       z     vdW  Elec       q    Type
REMARK                         _______ _______ _______ _____ _____    ______ ____
ROOT
ATOM      1  C   UNL     1       3.052   4.686  19.732  0.00  0.00    +0.000 C 
ATOM      2  C   UNL     1       3.197   4.453  18.193  0.00  0.00    +0.000 C 
ATOM      3  O   UNL     1       2.334   3.918  17.476  0.00  0.00    +0.000 OA
ATOM      4  O   UNL     1       4.172   5.204  17.700  0.00  0.00    +0.000 OA
ATOM      5  C   UNL     1       3.462   6.341  17.312  0.00  0.00    +0.000 C 
ATOM      6  C   UNL     1       2.557   6.827  18.437  0.00  0.00    +0.000 A 
ATOM      7  C   UNL     1       2.195   6.137  19.572  0.00  0.00    +0.000 A 
ATOM      8  C   UNL     1       1.397   7.050  20.598  0.00  0.00    +0.000 A 
ATOM      9  C   UNL     1       1.172   8.408  20.379  0.00  0.00    +0.000 A 
ATOM     10  N   UNL     1       1.734   8.920  19.212  0.00  0.00    +0.000 N 
ATOM     11  C   UNL     1       2.230   8.231  18.178  0.00  0.00    +0.000 A 
ATOM     12  O   UNL     1       2.473   8.740  17.086  0.00  0.00    +0.000 OA
ATOM     13  C   UNL     1       1.621  10.332  19.036  0.00  0.00    +0.000 C 
ATOM     14  C   UNL     1       0.787  10.806  20.150  0.00  0.00    +0.000 A 
ATOM     15  C   UNL     1       0.464   9.705  20.975  0.00  0.00    +0.000 A 
ATOM     16  N   UNL     1      -0.409   9.885  21.984  0.00  0.00    +0.000 NA
ATOM     17  C   UNL     1      -0.943  11.169  22.188  0.00  0.00    +0.000 A 
ATOM     18  C   UNL     1      -1.873  11.423  23.214  0.00  0.00    +0.000 A 
ATOM     19  C   UNL     1      -2.440  12.692  23.492  0.00  0.00    +0.000 A 
ATOM     20  C   UNL     1      -2.108  13.783  22.720  0.00  0.00    +0.000 A 
ATOM     21  C   UNL     1      -1.222  13.587  21.675  0.00  0.00    +0.000 A 
ATOM     22  C   UNL     1      -0.613  12.315  21.398  0.00  0.00    +0.000 A 
ATOM     23  C   UNL     1       0.307  12.121  20.346  0.00  0.00    +0.000 A 
ENDROOT
BRANCH   1  25
ATOM     24  C   UNL     1       4.451   2.155  19.879  0.00  0.00    +0.000 C 
ATOM     25  C   UNL     1       3.182   3.063  20.032  0.00  0.00    +0.000 C 
ENDBRANCH   1  25
BRANCH   1  26
ATOM     26  O   UNL     1       4.153   5.215  20.515  0.00  0.00    +0.000 OA
ATOM     27  H   UNL     1       5.008   4.988  20.115  0.00  0.00    +0.000 HD
ENDBRANCH   1  26
BRANCH  23  28
ATOM     28  C   UNL     1       0.831  13.338  19.592  0.00  0.00    +0.000 C 
ATOM     29  O   UNL     1       0.138  13.813  18.690  0.00  0.00    +0.000 OA
BRANCH  28  30
ATOM     30  C   UNL     1       2.056  14.117  19.911  0.00  0.00    +0.000 A 
ATOM     31  C   UNL     1       2.865  14.721  18.955  0.00  0.00    +0.000 A 
ATOM     32  C   UNL     1       4.168  15.106  19.300  0.00  0.00    +0.000 A 
ATOM     33  C   UNL     1       4.627  15.006  20.622  0.00  0.00    +0.000 A 
ATOM     34  C   UNL     1       6.074  15.252  20.933  0.00  0.00    +0.000 C 
ATOM     35  C   UNL     1       3.713  14.628  21.607  0.00  0.00    +0.000 A 
ATOM     36  C   UNL     1       2.441  14.187  21.258  0.00  0.00    +0.000 A 
BRANCH  35  37
ATOM     37  O   UNL     1       4.017  14.602  22.937  0.00  0.00    +0.000 OA
ATOM     38  H   UNL     1       4.010  15.504  23.293  0.00  0.00    +0.000 HD
ENDBRANCH  35  37
ENDBRANCH  28  30
ENDBRANCH  23  28
TORSDOF 5
ENDMDL
MODEL 3
REMARK VINA RESULT:      -8.0      5.249      8.740
REMARK  Name = 
REMARK  7 active torsions:
REMARK  status: ('A' for Active; 'I' for Inactive)
REMARK    1  A    between atoms: C_1  and  C_2
REMARK    2  A    between atoms: C_2  and  C_3
REMARK    3  A    between atoms: C_3  and  O_4
REMARK    4  A    between atoms: C_26  and  C_27
REMARK    5  A    between atoms: C_27  and  C_29
REMARK    6  A    between atoms: C_32  and  C_33
REMARK    7  A    between atoms: C_34  and  O_35
REMARK                            x       y       z     vdW  Elec       q    Type
REMARK                         _______ _______ _______ _____ _____    ______ ____
ROOT
ATOM      1  C   UNL     1       9.598  14.749  18.239  0.00  0.00    +0.000 C 
ATOM      2  C   UNL     1      10.169  14.535  19.679  0.00  0.00    +0.000 C 
ATOM      3  O   UNL     1      10.647  15.436  20.390  0.00  0.00    +0.000 OA
ATOM      4  O   UNL     1       9.758  13.376  20.174  0.00  0.00    +0.000 OA
ATOM      5  C   UNL     1       8.602  13.769  20.849  0.00  0.00    +0.000 C 
ATOM      6  C   UNL     1       7.715  14.628  19.956  0.00  0.00    +0.000 A 
ATOM      7  C   UNL     1       8.066  15.231  18.769  0.00  0.00    +0.000 A 
ATOM      8  C   UNL     1       6.813  15.879  18.036  0.00  0.00    +0.000 A 
ATOM      9  C   UNL     1       5.513  15.766  18.526  0.00  0.00    +0.000 A 
ATOM     10  N   UNL     1       5.382  15.006  19.686  0.00  0.00    +0.000 N 
ATOM     11  C   UNL     1       6.359  14.600  20.506  0.00  0.00    +0.000 A 
ATOM     12  O   UNL     1       6.148  14.156  21.633  0.00  0.00    +0.000 OA
ATOM     13  C   UNL     1       4.046  14.775  20.130  0.00  0.00    +0.000 C 
ATOM     14  C   UNL     1       3.188  15.566  19.235  0.00  0.00    +0.000 A 
ATOM     15  C   UNL     1       4.002  16.201  18.271  0.00  0.00    +0.000 A 
ATOM     16  N   UNL     1       3.439  17.089  17.430  0.00  0.00    +0.000 NA
ATOM     17  C   UNL     1       2.057  17.327  17.533  0.00  0.00    +0.000 A 
ATOM     18  C   UNL     1       1.408  18.255  16.696  0.00  0.00    +0.000 A 
ATOM     19  C   UNL     1       0.018  18.535  16.729  0.00  0.00    +0.000 A 
ATOM     20  C   UNL     1      -0.796  17.897  17.639  0.00  0.00    +0.000 A 
ATOM     21  C   UNL     1      -0.207  16.998  18.510  0.00  0.00    +0.000 A 
ATOM     22  C   UNL     1       1.194  16.678  18.471  0.00  0.00    +0.000 A 
ATOM     23  C   UNL     1       1.790  15.744  19.345  0.00  0.00    +0.000 A 
ENDROOT
BRANCH   1  25
ATOM     24  C   UNL     1      11.777  16.400  17.284  0.00  0.00    +0.000 C 
ATOM     25  C   UNL     1      11.116  15.023  17.635  0.00  0.00    +0.000 C 
ENDBRANCH   1  25
BRANCH   1  26
ATOM     26  O   UNL     1       9.163  13.624  17.433  0.00  0.00    +0.000 OA
ATOM     27  H   UNL     1       8.215  13.681  17.235  0.00  0.00    +0.000 HD
ENDBRANCH   1  26
BRANCH  23  28
ATOM     28  C   UNL     1       0.893  14.893  20.237  0.00  0.00    +0.000 C 
ATOM     29  O   UNL     1       0.517  15.363  21.312  0.00  0.00    +0.000 OA
BRANCH  28  30
ATOM     30  C   UNL     1       0.298  13.575  19.892  0.00  0.00    +0.000 A 
ATOM     31  C   UNL     1       1.042  12.430  19.630  0.00  0.00    +0.000 A 
ATOM     32  C   UNL     1       0.439  11.354  18.965  0.00  0.00    +0.000 A 
ATOM     33  C   UNL     1      -0.934  11.362  18.671  0.00  0.00    +0.000 A 
ATOM     34  C   UNL     1      -1.519  10.287  17.803  0.00  0.00    +0.000 C 
ATOM     35  C   UNL     1      -1.705  12.415  19.165  0.00  0.00    +0.000 A 
ATOM     36  C   UNL     1      -1.098  13.511  19.770  0.00  0.00    +0.000 A 
BRANCH  35  37
ATOM     37  O   UNL     1      -3.062  12.472  19.035  0.00  0.00    +0.000 OA
ATOM     38  H   UNL     1      -3.367  13.381  19.179  0.00  0.00    +0.000 HD
ENDBRANCH  35  37
ENDBRANCH  28  30
ENDBRANCH  23  28
TORSDOF 5
ENDMDL
MODEL 4
REMARK VINA RESULT:      -8.0      2.227      5.091
REMARK  Name = 
REMARK  7 active torsions:
REMARK  status: ('A' for Active; 'I' for Inactive)
REMARK    1  A    between atoms: C_1  and  C_2
REMARK    2  A    between atoms: C_2  and  C_3
REMARK    3  A    between atoms: C_3  and  O_4
REMARK    4  A    between atoms: C_26  and  C_27
REMARK    5  A    between atoms: C_27  and  C_29
REMARK    6  A    between atoms: C_32  and  C_33
REMARK    7  A    between atoms: C_34  and  O_35
REMARK                            x       y       z     vdW  Elec       q    Type
REMARK                         _______ _______ _______ _____ _____    ______ ____
ROOT
ATOM      1  C   UNL     1       2.737   4.966  17.859  0.00  0.00    +0.000 C 
ATOM      2  C   UNL     1       2.924   4.123  19.163  0.00  0.00    +0.000 C 
ATOM      3  O   UNL     1       4.008   3.968  19.753  0.00  0.00    +0.000 OA
ATOM      4  O   UNL     1       1.754   3.904  19.745  0.00  0.00    +0.000 OA
ATOM      5  C   UNL     1       1.689   4.983  20.627  0.00  0.00    +0.000 C 
ATOM      6  C   UNL     1       2.004   6.291  19.912  0.00  0.00    +0.000 A 
ATOM      7  C   UNL     1       2.580   6.442  18.671  0.00  0.00    +0.000 A 
ATOM      8  C   UNL     1       2.566   7.956  18.187  0.00  0.00    +0.000 A 
ATOM      9  C   UNL     1       1.966   8.976  18.923  0.00  0.00    +0.000 A 
ATOM     10  N   UNL     1       1.339   8.567  20.097  0.00  0.00    +0.000 N 
ATOM     11  C   UNL     1       1.462   7.387  20.716  0.00  0.00    +0.000 A 
ATOM     12  O   UNL     1       1.083   7.191  21.869  0.00  0.00    +0.000 OA
ATOM     13  C   UNL     1       0.612   9.577  20.797  0.00  0.00    +0.000 C 
ATOM     14  C   UNL     1       0.877  10.830  20.075  0.00  0.00    +0.000 A 
ATOM     15  C   UNL     1       1.699  10.546  18.961  0.00  0.00    +0.000 A 
ATOM     16  N   UNL     1       2.182  11.571  18.233  0.00  0.00    +0.000 NA
ATOM     17  C   UNL     1       1.826  12.880  18.600  0.00  0.00    +0.000 A 
ATOM     18  C   UNL     1       2.308  13.998  17.893  0.00  0.00    +0.000 A 
ATOM     19  C   UNL     1       1.980  15.344  18.192  0.00  0.00    +0.000 A 
ATOM     20  C   UNL     1       1.151  15.636  19.253  0.00  0.00    +0.000 A 
ATOM     21  C   UNL     1       0.672  14.578  20.006  0.00  0.00    +0.000 A 
ATOM     22  C   UNL     1       0.969  13.206  19.698  0.00  0.00    +0.000 A 
ATOM     23  C   UNL     1       0.461  12.127  20.453  0.00  0.00    +0.000 A 
ENDROOT
BRANCH   1  25
ATOM     24  C   UNL     1       4.951   4.009  16.255  0.00  0.00    +0.000 C 
ATOM     25  C   UNL     1       3.563   3.842  16.966  0.00  0.00    +0.000 C 
ENDBRANCH   1  25
BRANCH   1  26
ATOM     26  O   UNL     1       1.461   5.004  17.170  0.00  0.00    +0.000 OA
ATOM     27  H   UNL     1       1.385   5.797  16.617  0.00  0.00    +0.000 HD
ENDBRANCH   1  26
BRANCH  23  28
ATOM     28  C   UNL     1      -0.597  12.404  21.515  0.00  0.00    +0.000 C 
ATOM     29  O   UNL     1      -0.235  12.533  22.686  0.00  0.00    +0.000 OA
BRANCH  28  30
ATOM     30  C   UNL     1      -2.040  12.669  21.278  0.00  0.00    +0.000 A 
ATOM     31  C   UNL     1      -2.947  12.992  22.281  0.00  0.00    +0.000 A 
ATOM     32  C   UNL     1      -4.321  12.861  22.035  0.00  0.00    +0.000 A 
ATOM     33  C   UNL     1      -4.800  12.532  20.757  0.00  0.00    +0.000 A 
ATOM     34  C   UNL     1      -6.255  12.222  20.560  0.00  0.00    +0.000 C 
ATOM     35  C   UNL     1      -3.879  12.457  19.711  0.00  0.00    +0.000 A 
ATOM     36  C   UNL     1      -2.513  12.525  19.965  0.00  0.00    +0.000 A 
BRANCH  35  37
ATOM     37  O   UNL     1      -4.242  12.252  18.411  0.00  0.00    +0.000 OA
ATOM     38  H   UNL     1      -4.670  13.048  18.060  0.00  0.00    +0.000 HD
ENDBRANCH  35  37
ENDBRANCH  28  30
ENDBRANCH  23  28
TORSDOF 5
ENDMDL
MODEL 5
REMARK VINA RESULT:      -7.8      2.261      5.273
REMARK  Name = 
REMARK  7 active torsions:
REMARK  status: ('A' for Active; 'I' for Inactive)
REMARK    1  A    between atoms: C_1  and  C_2
REMARK    2  A    between atoms: C_2  and  C_3
REMARK    3  A    between atoms: C_3  and  O_4
REMARK    4  A    between atoms: C_26  and  C_27
REMARK    5  A    between atoms: C_27  and  C_29
REMARK    6  A    between atoms: C_32  and  C_33
REMARK    7  A    between atoms: C_34  and  O_35
REMARK                            x       y       z     vdW  Elec       q    Type
REMARK                         _______ _______ _______ _____ _____    ______ ____
ROOT
ATOM      1  C   UNL     1       2.685   4.986  17.910  0.00  0.00    +0.000 C 
ATOM      2  C   UNL     1       2.853   4.160  19.227  0.00  0.00    +0.000 C 
ATOM      3  O   UNL     1       3.932   3.993  19.822  0.00  0.00    +0.000 OA
ATOM      4  O   UNL     1       1.678   3.972  19.811  0.00  0.00    +0.000 OA
ATOM      5  C   UNL     1       1.632   5.066  20.675  0.00  0.00    +0.000 C 
ATOM      6  C   UNL     1       1.973   6.356  19.941  0.00  0.00    +0.000 A 
ATOM      7  C   UNL     1       2.555   6.477  18.699  0.00  0.00    +0.000 A 
ATOM      8  C   UNL     1       2.571   7.984  18.192  0.00  0.00    +0.000 A 
ATOM      9  C   UNL     1       1.989   9.026  18.911  0.00  0.00    +0.000 A 
ATOM     10  N   UNL     1       1.352   8.647  20.090  0.00  0.00    +0.000 N 
ATOM     11  C   UNL     1       1.451   7.475  20.727  0.00  0.00    +0.000 A 
ATOM     12  O   UNL     1       1.066   7.304  21.882  0.00  0.00    +0.000 OA
ATOM     13  C   UNL     1       0.643   9.682  20.772  0.00  0.00    +0.000 C 
ATOM     14  C   UNL     1       0.935  10.918  20.032  0.00  0.00    +0.000 A 
ATOM     15  C   UNL     1       1.753  10.602  18.924  0.00  0.00    +0.000 A 
ATOM     16  N   UNL     1       2.256  11.605  18.182  0.00  0.00    +0.000 NA
ATOM     17  C   UNL     1       1.925  12.927  18.528  0.00  0.00    +0.000 A 
ATOM     18  C   UNL     1       2.431  14.024  17.805  0.00  0.00    +0.000 A 
ATOM     19  C   UNL     1       2.128  15.381  18.083  0.00  0.00    +0.000 A 
ATOM     20  C   UNL     1       1.303  15.705  19.137  0.00  0.00    +0.000 A 
ATOM     21  C   UNL     1       0.802  14.668  19.905  0.00  0.00    +0.000 A 
ATOM     22  C   UNL     1       1.072  13.286  19.619  0.00  0.00    +0.000 A 
ATOM     23  C   UNL     1       0.543  12.228  20.389  0.00  0.00    +0.000 A 
ENDROOT
BRANCH   1  25
ATOM     24  C   UNL     1       4.886   3.960  16.332  0.00  0.00    +0.000 C 
ATOM     25  C   UNL     1       3.491   3.833  17.036  0.00  0.00    +0.000 C 
ENDBRANCH   1  25
BRANCH   1  26
ATOM     26  O   UNL     1       1.411   5.038  17.218  0.00  0.00    +0.000 OA
ATOM     27  H   UNL     1       1.018   4.153  17.142  0.00  0.00    +0.000 HD
ENDBRANCH   1  26
BRANCH  23  28
ATOM     28  C   UNL     1      -0.511  12.542  21.445  0.00  0.00    +0.000 C 
ATOM     29  O   UNL     1      -0.145  13.035  22.513  0.00  0.00    +0.000 OA
BRANCH  28  30
ATOM     30  C   UNL     1      -1.985  12.437  21.281  0.00  0.00    +0.000 A 
ATOM     31  C   UNL     1      -2.635  12.457  20.052  0.00  0.00    +0.000 A 
ATOM     32  C   UNL     1      -4.011  12.724  20.005  0.00  0.00    +0.000 A 
ATOM     33  C   UNL     1      -4.766  12.848  21.182  0.00  0.00    +0.000 A 
ATOM     34  C   UNL     1      -6.191  13.311  21.111  0.00  0.00    +0.000 C 
ATOM     35  C   UNL     1      -4.135  12.578  22.397  0.00  0.00    +0.000 A 
ATOM     36  C   UNL     1      -2.759  12.374  22.450  0.00  0.00    +0.000 A 
BRANCH  35  37
ATOM     37  O   UNL     1      -4.793  12.561  23.592  0.00  0.00    +0.000 OA
ATOM     38  H   UNL     1      -4.183  12.802  24.306  0.00  0.00    +0.000 HD
ENDBRANCH  35  37
ENDBRANCH  28  30
ENDBRANCH  23  28
TORSDOF 5
ENDMDL
MODEL 6
REMARK VINA RESULT:      -7.7      2.029      2.650
REMARK  Name = 
REMARK  7 active torsions:
REMARK  status: ('A' for Active; 'I' for Inactive)
REMARK    1  A    between atoms: C_1  and  C_2
REMARK    2  A    between atoms: C_2  and  C_3
REMARK    3  A    between atoms: C_3  and  O_4
REMARK    4  A    between atoms: C_26  and  C_27
REMARK    5  A    between atoms: C_27  and  C_29
REMARK    6  A    between atoms: C_32  and  C_33
REMARK    7  A    between atoms: C_34  and  O_35
REMARK                            x       y       z     vdW  Elec       q    Type
REMARK                         _______ _______ _______ _____ _____    ______ ____
ROOT
ATOM      1  C   UNL     1       1.646   5.333  20.297  0.00  0.00    +0.000 C 
ATOM      2  C   UNL     1       2.138   5.319  18.813  0.00  0.00    +0.000 C 
ATOM      3  O   UNL     1       1.414   5.074  17.832  0.00  0.00    +0.000 OA
ATOM      4  O   UNL     1       3.303   5.941  18.704  0.00  0.00    +0.000 OA
ATOM      5  C   UNL     1       2.886   7.237  18.399  0.00  0.00    +0.000 C 
ATOM      6  C   UNL     1       1.808   7.704  19.369  0.00  0.00    +0.000 A 
ATOM      7  C   UNL     1       1.077   6.926  20.238  0.00  0.00    +0.000 A 
ATOM      8  C   UNL     1       0.188   7.802  21.221  0.00  0.00    +0.000 A 
ATOM      9  C   UNL     1       0.224   9.196  21.228  0.00  0.00    +0.000 A 
ATOM     10  N   UNL     1       1.129   9.768  20.338  0.00  0.00    +0.000 N 
ATOM     11  C   UNL     1       1.763   9.167  19.324  0.00  0.00    +0.000 A 
ATOM     12  O   UNL     1       2.344   9.785  18.434  0.00  0.00    +0.000 OA
ATOM     13  C   UNL     1       1.270  11.186  20.421  0.00  0.00    +0.000 C 
ATOM     14  C   UNL     1       0.261  11.629  21.395  0.00  0.00    +0.000 A 
ATOM     15  C   UNL     1      -0.415  10.494  21.895  0.00  0.00    +0.000 A 
ATOM     16  N   UNL     1      -1.477  10.675  22.702  0.00  0.00    +0.000 NA
ATOM     17  C   UNL     1      -1.853  11.989  23.031  0.00  0.00    +0.000 A 
ATOM     18  C   UNL     1      -2.964  12.250  23.855  0.00  0.00    +0.000 A 
ATOM     19  C   UNL     1      -3.393  13.545  24.244  0.00  0.00    +0.000 A 
ATOM     20  C   UNL     1      -2.723  14.660  23.794  0.00  0.00    +0.000 A 
ATOM     21  C   UNL     1      -1.641  14.466  22.952  0.00  0.00    +0.000 A 
ATOM     22  C   UNL     1      -1.173  13.161  22.573  0.00  0.00    +0.000 A 
ATOM     23  C   UNL     1      -0.057  12.964  21.733  0.00  0.00    +0.000 A 
ENDROOT
BRANCH   1  25
ATOM     24  C   UNL     1       1.607   2.701  21.503  0.00  0.00    +0.000 C 
ATOM     25  C   UNL     1       1.460   3.688  20.294  0.00  0.00    +0.000 C 
ENDBRANCH   1  25
BRANCH   1  26
ATOM     26  O   UNL     1       2.581   5.518  21.392  0.00  0.00    +0.000 OA
ATOM     27  H   UNL     1       2.751   4.680  21.851  0.00  0.00    +0.000 HD
ENDBRANCH   1  26
BRANCH  23  28
ATOM     28  C   UNL     1       0.810  14.163  21.366  0.00  0.00    +0.000 C 
ATOM     29  O   UNL     1       1.750  14.458  22.107  0.00  0.00    +0.000 OA
BRANCH  28  30
ATOM     30  C   UNL     1       0.729  14.964  20.116  0.00  0.00    +0.000 A 
ATOM     31  C   UNL     1       1.801  15.172  19.255  0.00  0.00    +0.000 A 
ATOM     32  C   UNL     1       1.742  16.218  18.323  0.00  0.00    +0.000 A 
ATOM     33  C   UNL     1       0.573  16.977  18.159  0.00  0.00    +0.000 A 
ATOM     34  C   UNL     1       0.590  18.200  17.291  0.00  0.00    +0.000 C 
ATOM     35  C   UNL     1      -0.568  16.586  18.863  0.00  0.00    +0.000 A 
ATOM     36  C   UNL     1      -0.494  15.590  19.831  0.00  0.00    +0.000 A 
BRANCH  35  37
ATOM     37  O   UNL     1      -1.785  17.180  18.701  0.00  0.00    +0.000 OA
ATOM     38  H   UNL     1      -2.018  17.675  19.502  0.00  0.00    +0.000 HD
ENDBRANCH  35  37
ENDBRANCH  28  30
ENDBRANCH  23  28
TORSDOF 5
ENDMDL
MODEL 7
REMARK VINA RESULT:      -7.7      0.916      1.016
REMARK  Name = 
REMARK  7 active torsions:
REMARK  status: ('A' for Active; 'I' for Inactive)
REMARK    1  A    between atoms: C_1  and  C_2
REMARK    2  A    between atoms: C_2  and  C_3
REMARK    3  A    between atoms: C_3  and  O_4
REMARK    4  A    between atoms: C_26  and  C_27
REMARK    5  A    between atoms: C_27  and  C_29
REMARK    6  A    between atoms: C_32  and  C_33
REMARK    7  A    between atoms: C_34  and  O_35
REMARK                            x       y       z     vdW  Elec       q    Type
REMARK                         _______ _______ _______ _____ _____    ______ ____
ROOT
ATOM      1  C   UNL     1       3.128   4.963  19.704  0.00  0.00    +0.000 C 
ATOM      2  C   UNL     1       3.233   4.713  18.164  0.00  0.00    +0.000 C 
ATOM      3  O   UNL     1       2.365   4.141  17.481  0.00  0.00    +0.000 OA
ATOM      4  O   UNL     1       4.166   5.487  17.630  0.00  0.00    +0.000 OA
ATOM      5  C   UNL     1       3.409   6.596  17.251  0.00  0.00    +0.000 C 
ATOM      6  C   UNL     1       2.524   7.068  18.397  0.00  0.00    +0.000 A 
ATOM      7  C   UNL     1       2.221   6.382  19.551  0.00  0.00    +0.000 A 
ATOM      8  C   UNL     1       1.425   7.284  20.591  0.00  0.00    +0.000 A 
ATOM      9  C   UNL     1       1.150   8.631  20.362  0.00  0.00    +0.000 A 
ATOM     10  N   UNL     1       1.658   9.145  19.171  0.00  0.00    +0.000 N 
ATOM     11  C   UNL     1       2.143   8.457  18.131  0.00  0.00    +0.000 A 
ATOM     12  O   UNL     1       2.336   8.959  17.025  0.00  0.00    +0.000 OA
ATOM     13  C   UNL     1       1.494  10.550  18.981  0.00  0.00    +0.000 C 
ATOM     14  C   UNL     1       0.680  11.012  20.115  0.00  0.00    +0.000 A 
ATOM     15  C   UNL     1       0.419   9.913  20.963  0.00  0.00    +0.000 A 
ATOM     16  N   UNL     1      -0.427  10.078  21.997  0.00  0.00    +0.000 NA
ATOM     17  C   UNL     1      -0.995  11.348  22.202  0.00  0.00    +0.000 A 
ATOM     18  C   UNL     1      -1.901  11.585  23.254  0.00  0.00    +0.000 A 
ATOM     19  C   UNL     1      -2.500  12.840  23.533  0.00  0.00    +0.000 A 
ATOM     20  C   UNL     1      -2.227  13.931  22.737  0.00  0.00    +0.000 A 
ATOM     21  C   UNL     1      -1.369  13.748  21.667  0.00  0.00    +0.000 A 
ATOM     22  C   UNL     1      -0.728  12.493  21.387  0.00  0.00    +0.000 A 
ATOM     23  C   UNL     1       0.165  12.313  20.309  0.00  0.00    +0.000 A 
ENDROOT
BRANCH   1  25
ATOM     24  C   UNL     1       2.561   2.479  21.081  0.00  0.00    +0.000 C 
ATOM     25  C   UNL     1       3.320   3.348  20.020  0.00  0.00    +0.000 C 
ENDBRANCH   1  25
BRANCH   1  26
ATOM     26  O   UNL     1       4.236   5.537  20.444  0.00  0.00    +0.000 OA
ATOM     27  H   UNL     1       4.803   4.844  20.818  0.00  0.00    +0.000 HD
ENDBRANCH   1  26
BRANCH  23  28
ATOM     28  C   UNL     1       0.625  13.536  19.523  0.00  0.00    +0.000 C 
ATOM     29  O   UNL     1       0.100  13.765  18.431  0.00  0.00    +0.000 OA
BRANCH  28  30
ATOM     30  C   UNL     1       1.570  14.584  19.990  0.00  0.00    +0.000 A 
ATOM     31  C   UNL     1       1.295  15.947  19.965  0.00  0.00    +0.000 A 
ATOM     32  C   UNL     1       2.350  16.864  20.068  0.00  0.00    +0.000 A 
ATOM     33  C   UNL     1       3.662  16.434  20.322  0.00  0.00    +0.000 A 
ATOM     34  C   UNL     1       4.797  17.411  20.250  0.00  0.00    +0.000 C 
ATOM     35  C   UNL     1       3.867  15.079  20.590  0.00  0.00    +0.000 A 
ATOM     36  C   UNL     1       2.834  14.162  20.426  0.00  0.00    +0.000 A 
BRANCH  35  37
ATOM     37  O   UNL     1       5.078  14.566  20.955  0.00  0.00    +0.000 OA
ATOM     38  H   UNL     1       5.638  15.272  21.315  0.00  0.00    +0.000 HD
ENDBRANCH  35  37
ENDBRANCH  28  30
ENDBRANCH  23  28
TORSDOF 5
ENDMDL
MODEL 8
REMARK VINA RESULT:      -7.7      4.550      8.364
REMARK  Name = 
REMARK  7 active torsions:
REMARK  status: ('A' for Active; 'I' for Inactive)
REMARK    1  A    between atoms: C_1  and  C_2
REMARK    2  A    between atoms: C_2  and  C_3
REMARK    3  A    between atoms: C_3  and  O_4
REMARK    4  A    between atoms: C_26  and  C_27
REMARK    5  A    between atoms: C_27  and  C_29
REMARK    6  A    between atoms: C_32  and  C_33
REMARK    7  A    between atoms: C_34  and  O_35
REMARK                            x       y       z     vdW  Elec       q    Type
REMARK                         _______ _______ _______ _____ _____    ______ ____
ROOT
ATOM      1  C   UNL     1       9.269  14.238  18.659  0.00  0.00    +0.000 C 
ATOM      2  C   UNL     1       9.821  14.177  20.120  0.00  0.00    +0.000 C 
ATOM      3  O   UNL     1      10.377  15.123  20.704  0.00  0.00    +0.000 OA
ATOM      4  O   UNL     1       9.311  13.138  20.767  0.00  0.00    +0.000 OA
ATOM      5  C   UNL     1       8.195  13.720  21.368  0.00  0.00    +0.000 C 
ATOM      6  C   UNL     1       7.385  14.520  20.356  0.00  0.00    +0.000 A 
ATOM      7  C   UNL     1       7.785  14.920  19.101  0.00  0.00    +0.000 A 
ATOM      8  C   UNL     1       6.593  15.566  18.272  0.00  0.00    +0.000 A 
ATOM      9  C   UNL     1       5.289  15.636  18.759  0.00  0.00    +0.000 A 
ATOM     10  N   UNL     1       5.094  15.059  20.012  0.00  0.00    +0.000 N 
ATOM     11  C   UNL     1       6.033  14.687  20.890  0.00  0.00    +0.000 A 
ATOM     12  O   UNL     1       5.786  14.424  22.066  0.00  0.00    +0.000 OA
ATOM     13  C   UNL     1       3.743  15.009  20.469  0.00  0.00    +0.000 C 
ATOM     14  C   UNL     1       2.956  15.739  19.465  0.00  0.00    +0.000 A 
ATOM     15  C   UNL     1       3.821  16.161  18.431  0.00  0.00    +0.000 A 
ATOM     16  N   UNL     1       3.337  16.970  17.469  0.00  0.00    +0.000 NA
ATOM     17  C   UNL     1       1.981  17.339  17.523  0.00  0.00    +0.000 A 
ATOM     18  C   UNL     1       1.414  18.194  16.559  0.00  0.00    +0.000 A 
ATOM     19  C   UNL     1       0.054  18.596  16.539  0.00  0.00    +0.000 A 
ATOM     20  C   UNL     1      -0.811  18.164  17.519  0.00  0.00    +0.000 A 
ATOM     21  C   UNL     1      -0.301  17.346  18.513  0.00  0.00    +0.000 A 
ATOM     22  C   UNL     1       1.066  16.904  18.533  0.00  0.00    +0.000 A 
ATOM     23  C   UNL     1       1.580  16.052  19.534  0.00  0.00    +0.000 A 
ENDROOT
BRANCH   1  25
ATOM     24  C   UNL     1      11.427  13.371  16.933  0.00  0.00    +0.000 C 
ATOM     25  C   UNL     1      10.803  14.292  18.038  0.00  0.00    +0.000 C 
ENDBRANCH   1  25
BRANCH   1  26
ATOM     26  O   UNL     1       8.735  13.053  18.012  0.00  0.00    +0.000 OA
ATOM     27  H   UNL     1       9.439  12.547  17.574  0.00  0.00    +0.000 HD
ENDBRANCH   1  26
BRANCH  23  28
ATOM     28  C   UNL     1       0.613  15.414  20.526  0.00  0.00    +0.000 C 
ATOM     29  O   UNL     1       0.109  16.126  21.396  0.00  0.00    +0.000 OA
BRANCH  28  30
ATOM     30  C   UNL     1       0.094  14.021  20.485  0.00  0.00    +0.000 A 
ATOM     31  C   UNL     1       0.067  13.168  21.582  0.00  0.00    +0.000 A 
ATOM     32  C   UNL     1      -0.083  11.790  21.379  0.00  0.00    +0.000 A 
ATOM     33  C   UNL     1      -0.332  11.268  20.100  0.00  0.00    +0.000 A 
ATOM     34  C   UNL     1      -0.310   9.785  19.879  0.00  0.00    +0.000 C 
ATOM     35  C   UNL     1      -0.546  12.169  19.055  0.00  0.00    +0.000 A 
ATOM     36  C   UNL     1      -0.337  13.532  19.242  0.00  0.00    +0.000 A 
BRANCH  35  37
ATOM     37  O   UNL     1      -0.902  11.781  17.796  0.00  0.00    +0.000 OA
ATOM     38  H   UNL     1      -1.825  11.483  17.794  0.00  0.00    +0.000 HD
ENDBRANCH  35  37
ENDBRANCH  28  30
ENDBRANCH  23  28
TORSDOF 5
ENDMDL
MODEL 9
REMARK VINA RESULT:      -7.6      7.470      9.618
REMARK  Name = 
REMARK  7 active torsions:
REMARK  status: ('A' for Active; 'I' for Inactive)
REMARK    1  A    between atoms: C_1  and  C_2
REMARK    2  A    between atoms: C_2  and  C_3
REMARK    3  A    between atoms: C_3  and  O_4
REMARK    4  A    between atoms: C_26  and  C_27
REMARK    5  A    between atoms: C_27  and  C_29
REMARK    6  A    between atoms: C_32  and  C_33
REMARK    7  A    between atoms: C_34  and  O_35
REMARK                            x       y       z     vdW  Elec       q    Type
REMARK                         _______ _______ _______ _____ _____    ______ ____
ROOT
ATOM      1  C   UNL     1       6.572  11.078  26.930  0.00  0.00    +0.000 C 
ATOM      2  C   UNL     1       6.382  12.331  27.846  0.00  0.00    +0.000 C 
ATOM      3  O   UNL     1       7.263  12.806  28.584  0.00  0.00    +0.000 OA
ATOM      4  O   UNL     1       5.314  13.021  27.473  0.00  0.00    +0.000 OA
ATOM      5  C   UNL     1       5.883  13.937  26.588  0.00  0.00    +0.000 C 
ATOM      6  C   UNL     1       6.783  13.233  25.580  0.00  0.00    +0.000 A 
ATOM      7  C   UNL     1       7.265  11.945  25.653  0.00  0.00    +0.000 A 
ATOM      8  C   UNL     1       8.010  11.510  24.318  0.00  0.00    +0.000 A 
ATOM      9  C   UNL     1       8.083  12.332  23.195  0.00  0.00    +0.000 A 
ATOM     10  N   UNL     1       7.418  13.551  23.310  0.00  0.00    +0.000 N 
ATOM     11  C   UNL     1       6.950  14.119  24.427  0.00  0.00    +0.000 A 
ATOM     12  O   UNL     1       6.606  15.298  24.488  0.00  0.00    +0.000 OA
ATOM     13  C   UNL     1       7.376  14.349  22.127  0.00  0.00    +0.000 C 
ATOM     14  C   UNL     1       8.206  13.642  21.141  0.00  0.00    +0.000 A 
ATOM     15  C   UNL     1       8.679  12.444  21.721  0.00  0.00    +0.000 A 
ATOM     16  N   UNL     1       9.573  11.702  21.041  0.00  0.00    +0.000 NA
ATOM     17  C   UNL     1       9.979  12.142  19.769  0.00  0.00    +0.000 A 
ATOM     18  C   UNL     1      10.924  11.423  19.012  0.00  0.00    +0.000 A 
ATOM     19  C   UNL     1      11.369  11.794  17.717  0.00  0.00    +0.000 A 
ATOM     20  C   UNL     1      10.890  12.940  17.122  0.00  0.00    +0.000 A 
ATOM     21  C   UNL     1       9.983  13.705  17.834  0.00  0.00    +0.000 A 
ATOM     22  C   UNL     1       9.497  13.329  19.134  0.00  0.00    +0.000 A 
ATOM     23  C   UNL     1       8.555  14.098  19.850  0.00  0.00    +0.000 A 
ENDROOT
BRANCH   1  25
ATOM     24  C   UNL     1       5.689   8.859  28.567  0.00  0.00    +0.000 C 
ATOM     25  C   UNL     1       6.626  10.074  28.246  0.00  0.00    +0.000 C 
ENDBRANCH   1  25
BRANCH   1  26
ATOM     26  O   UNL     1       5.459  10.522  26.185  0.00  0.00    +0.000 OA
ATOM     27  H   UNL     1       5.754   9.812  25.593  0.00  0.00    +0.000 HD
ENDBRANCH   1  26
BRANCH  23  28
ATOM     28  C   UNL     1       7.874  15.268  19.148  0.00  0.00    +0.000 C 
ATOM     29  O   UNL     1       8.580  16.124  18.612  0.00  0.00    +0.000 OA
BRANCH  28  30
ATOM     30  C   UNL     1       6.414  15.434  18.921  0.00  0.00    +0.000 A 
ATOM     31  C   UNL     1       5.690  14.727  17.967  0.00  0.00    +0.000 A 
ATOM     32  C   UNL     1       4.431  15.199  17.570  0.00  0.00    +0.000 A 
ATOM     33  C   UNL     1       3.835  16.299  18.207  0.00  0.00    +0.000 A 
ATOM     34  C   UNL     1       2.577  16.895  17.649  0.00  0.00    +0.000 C 
ATOM     35  C   UNL     1       4.476  16.836  19.325  0.00  0.00    +0.000 A 
ATOM     36  C   UNL     1       5.752  16.410  19.681  0.00  0.00    +0.000 A 
BRANCH  35  37
ATOM     37  O   UNL     1       3.939  17.833  20.086  0.00  0.00    +0.000 OA
ATOM     38  H   UNL     1       3.054  17.575  20.386  0.00  0.00    +0.000 HD
ENDBRANCH  35  37
ENDBRANCH  28  30
ENDBRANCH  23  28
TORSDOF 5
ENDMDL
