MODEL 1
REMARK VINA RESULT:      -6.7      0.000      0.000
REMARK  Name = 
REMARK  22 active torsions:
REMARK  status: ('A' for Active; 'I' for Inactive)
REMARK    1  A    between atoms: C_1  and  C_2
REMARK    2  A    between atoms: C_2  and  C_3
REMARK    3  A    between atoms: C_3  and  C_4
REMARK    4  A    between atoms: C_4  and  C_5
REMARK    5  A    between atoms: C_5  and  C_6
REMARK    6  A    between atoms: C_6  and  C_7
REMARK    7  A    between atoms: C_7  and  C_8
REMARK    8  A    between atoms: C_8  and  C_9
REMARK    9  A    between atoms: C_10  and  C_11
REMARK   10  A    between atoms: C_11  and  C_12
REMARK   11  A    between atoms: C_12  and  C_13
REMARK   12  A    between atoms: C_13  and  C_14
REMARK   13  A    between atoms: C_14  and  C_15
REMARK   14  A    between atoms: C_15  and  C_16
REMARK   15  A    between atoms: C_16  and  C_17
REMARK   16  A    between atoms: C_17  and  C_18
REMARK   17  A    between atoms: C_18  and  O_19
REMARK   18  A    between atoms: O_19  and  C_20
REMARK   19  A    between atoms: C_22  and  O_23
REMARK   20  A    between atoms: C_25  and  O_26
REMARK   21  A    between atoms: C_27  and  C_28
REMARK   22  A    between atoms: C_28  and  C_29
REMARK                            x       y       z     vdW  Elec       q    Type
REMARK                         _______ _______ _______ _____ _____    ______ ____
ROOT
ATOM      1  C   UNL     1       3.008   7.809  17.763  0.00  0.00    +0.000 C 
ENDROOT
BRANCH   1   2
ATOM      2  C   UNL     1       2.140   9.072  17.852  0.00  0.00    +0.000 C 
BRANCH   2   3
ATOM      3  C   UNL     1       1.490   9.158  19.232  0.00  0.00    +0.000 C 
BRANCH   3   4
ATOM      4  O   UNL     1       0.154   9.613  19.169  0.00  0.00    +0.000 OA
BRANCH   4   5
ATOM      5  C   UNL     1      -0.312  10.329  20.247  0.00  0.00    +0.000 A 
ATOM      6  C   UNL     1       0.165   9.738  21.435  0.00  0.00    +0.000 A 
ATOM      7  C   UNL     1      -0.195  10.237  22.678  0.00  0.00    +0.000 A 
ATOM      8  C   UNL     1      -1.011  11.349  22.780  0.00  0.00    +0.000 A 
ATOM      9  C   UNL     1      -1.484  11.955  21.618  0.00  0.00    +0.000 A 
ATOM     10  C   UNL     1      -1.174  11.451  20.334  0.00  0.00    +0.000 A 
BRANCH  10  11
ATOM     11  C   UNL     1      -1.793  12.198  19.187  0.00  0.00    +0.000 C 
ATOM     12  C   UNL     1      -0.894  12.937  18.219  0.00  0.00    +0.000 C 
ATOM     13  O   UNL     1      -3.001  12.150  18.965  0.00  0.00    +0.000 OA
ENDBRANCH  10  11
BRANCH   9  14
ATOM     14  O   UNL     1      -2.254  13.082  21.750  0.00  0.00    +0.000 OA
ATOM     15  H   UNL     1      -3.167  12.826  21.965  0.00  0.00    +0.000 HD
ENDBRANCH   9  14
BRANCH   7  16
ATOM     16  O   UNL     1       0.233   9.658  23.835  0.00  0.00    +0.000 OA
ATOM     17  H   UNL     1       0.109   8.695  23.768  0.00  0.00    +0.000 HD
ENDBRANCH   7  16
ENDBRANCH   4   5
ENDBRANCH   3   4
ENDBRANCH   2   3
ENDBRANCH   1   2
BRANCH   1  18
ATOM     18  C   UNL     1       2.296   6.575  18.324  0.00  0.00    +0.000 C 
BRANCH  18  19
ATOM     19  C   UNL     1       2.927   6.111  19.619  0.00  0.00    +0.000 C 
BRANCH  19  20
ATOM     20  C   UNL     1       1.859   5.569  20.569  0.00  0.00    +0.000 C 
BRANCH  20  21
ATOM     21  C   UNL     1       2.313   4.300  21.286  0.00  0.00    +0.000 C 
BRANCH  21  22
ATOM     22  C   UNL     1       1.367   3.109  21.123  0.00  0.00    +0.000 C 
BRANCH  22  24
ATOM     23  C   UNL     1       1.259   2.631  18.647  0.00  0.00    +0.000 C 
ATOM     24  C   UNL     1       0.691   3.084  19.774  0.00  0.00    +0.000 C 
BRANCH  23  25
ATOM     25  C   UNL     1       2.639   2.058  18.623  0.00  0.00    +0.000 C 
BRANCH  25  26
ATOM     26  C   UNL     1       3.436   2.486  17.404  0.00  0.00    +0.000 C 
BRANCH  26  27
ATOM     27  C   UNL     1       4.507   3.477  17.841  0.00  0.00    +0.000 C 
BRANCH  27  28
ATOM     28  C   UNL     1       4.764   4.500  16.748  0.00  0.00    +0.000 C 
BRANCH  28  29
ATOM     29  C   UNL     1       6.039   4.159  15.988  0.00  0.00    +0.000 C 
BRANCH  29  30
ATOM     30  C   UNL     1       7.258   4.595  16.794  0.00  0.00    +0.000 C 
BRANCH  30  32
ATOM     31  C   UNL     1       7.696   6.301  18.566  0.00  0.00    +0.000 C 
ATOM     32  C   UNL     1       7.174   6.072  17.160  0.00  0.00    +0.000 C 
ENDBRANCH  30  32
ENDBRANCH  29  30
ENDBRANCH  28  29
ENDBRANCH  27  28
ENDBRANCH  26  27
ENDBRANCH  25  26
ENDBRANCH  23  25
ENDBRANCH  22  24
ENDBRANCH  21  22
ENDBRANCH  20  21
ENDBRANCH  19  20
ENDBRANCH  18  19
ENDBRANCH   1  18
TORSDOF 20
ENDMDL
MODEL 2
REMARK VINA RESULT:      -6.1      3.307      9.398
REMARK  Name = 
REMARK  22 active torsions:
REMARK  status: ('A' for Active; 'I' for Inactive)
REMARK    1  A    between atoms: C_1  and  C_2
REMARK    2  A    between atoms: C_2  and  C_3
REMARK    3  A    between atoms: C_3  and  C_4
REMARK    4  A    between atoms: C_4  and  C_5
REMARK    5  A    between atoms: C_5  and  C_6
REMARK    6  A    between atoms: C_6  and  C_7
REMARK    7  A    between atoms: C_7  and  C_8
REMARK    8  A    between atoms: C_8  and  C_9
REMARK    9  A    between atoms: C_10  and  C_11
REMARK   10  A    between atoms: C_11  and  C_12
REMARK   11  A    between atoms: C_12  and  C_13
REMARK   12  A    between atoms: C_13  and  C_14
REMARK   13  A    between atoms: C_14  and  C_15
REMARK   14  A    between atoms: C_15  and  C_16
REMARK   15  A    between atoms: C_16  and  C_17
REMARK   16  A    between atoms: C_17  and  C_18
REMARK   17  A    between atoms: C_18  and  O_19
REMARK   18  A    between atoms: O_19  and  C_20
REMARK   19  A    between atoms: C_22  and  O_23
REMARK   20  A    between atoms: C_25  and  O_26
REMARK   21  A    between atoms: C_27  and  C_28
REMARK   22  A    between atoms: C_28  and  C_29
REMARK                            x       y       z     vdW  Elec       q    Type
REMARK                         _______ _______ _______ _____ _____    ______ ____
ROOT
ATOM      1  C   UNL     1       1.379   7.032  20.609  0.00  0.00    +0.000 C 
ENDROOT
BRANCH   1   2
ATOM      2  C   UNL     1       2.587   7.105  19.663  0.00  0.00    +0.000 C 
BRANCH   2   3
ATOM      3  C   UNL     1       2.134   6.866  18.224  0.00  0.00    +0.000 C 
BRANCH   3   4
ATOM      4  O   UNL     1       2.976   5.961  17.539  0.00  0.00    +0.000 OA
BRANCH   4   5
ATOM      5  C   UNL     1       3.065   4.687  18.050  0.00  0.00    +0.000 A 
ATOM      6  C   UNL     1       1.790   4.086  18.019  0.00  0.00    +0.000 A 
ATOM      7  C   UNL     1       1.587   2.809  18.521  0.00  0.00    +0.000 A 
ATOM      8  C   UNL     1       2.643   2.082  19.040  0.00  0.00    +0.000 A 
ATOM      9  C   UNL     1       3.914   2.653  19.070  0.00  0.00    +0.000 A 
ATOM     10  C   UNL     1       4.152   3.967  18.607  0.00  0.00    +0.000 A 
BRANCH  10  11
ATOM     11  C   UNL     1       5.570   4.446  18.744  0.00  0.00    +0.000 C 
ATOM     12  C   UNL     1       6.360   4.771  17.494  0.00  0.00    +0.000 C 
ATOM     13  O   UNL     1       6.071   4.666  19.844  0.00  0.00    +0.000 OA
ENDBRANCH  10  11
BRANCH   9  14
ATOM     14  O   UNL     1       4.949   1.892  19.550  0.00  0.00    +0.000 OA
ATOM     15  H   UNL     1       5.599   2.469  19.986  0.00  0.00    +0.000 HD
ENDBRANCH   9  14
BRANCH   7  16
ATOM     16  O   UNL     1       0.355   2.227  18.525  0.00  0.00    +0.000 OA
ATOM     17  H   UNL     1      -0.307   2.897  18.769  0.00  0.00    +0.000 HD
ENDBRANCH   7  16
ENDBRANCH   4   5
ENDBRANCH   3   4
ENDBRANCH   2   3
ENDBRANCH   1   2
BRANCH   1  18
ATOM     18  C   UNL     1       1.251   8.283  21.482  0.00  0.00    +0.000 C 
BRANCH  18  19
ATOM     19  C   UNL     1      -0.197   8.680  21.675  0.00  0.00    +0.000 C 
BRANCH  19  20
ATOM     20  C   UNL     1      -0.332  10.202  21.714  0.00  0.00    +0.000 C 
BRANCH  20  21
ATOM     21  C   UNL     1      -0.927  10.696  23.030  0.00  0.00    +0.000 C 
BRANCH  21  22
ATOM     22  C   UNL     1      -1.294  12.181  23.040  0.00  0.00    +0.000 C 
BRANCH  22  24
ATOM     23  C   UNL     1      -2.605  12.996  21.043  0.00  0.00    +0.000 C 
ATOM     24  C   UNL     1      -2.563  12.470  22.277  0.00  0.00    +0.000 C 
BRANCH  23  25
ATOM     25  C   UNL     1      -1.367  13.319  20.271  0.00  0.00    +0.000 C 
BRANCH  25  26
ATOM     26  C   UNL     1      -1.335  12.659  18.904  0.00  0.00    +0.000 C 
BRANCH  26  27
ATOM     27  C   UNL     1      -2.480  11.659  18.815  0.00  0.00    +0.000 C 
BRANCH  27  28
ATOM     28  C   UNL     1      -1.988  10.335  18.255  0.00  0.00    +0.000 C 
BRANCH  28  29
ATOM     29  C   UNL     1      -3.107   9.626  17.505  0.00  0.00    +0.000 C 
BRANCH  29  30
ATOM     30  C   UNL     1      -3.852  10.620  16.619  0.00  0.00    +0.000 C 
BRANCH  30  32
ATOM     31  C   UNL     1      -3.071   9.917  14.353  0.00  0.00    +0.000 C 
ATOM     32  C   UNL     1      -3.015  11.008  15.407  0.00  0.00    +0.000 C 
ENDBRANCH  30  32
ENDBRANCH  29  30
ENDBRANCH  28  29
ENDBRANCH  27  28
ENDBRANCH  26  27
ENDBRANCH  25  26
ENDBRANCH  23  25
ENDBRANCH  22  24
ENDBRANCH  21  22
ENDBRANCH  20  21
ENDBRANCH  19  20
ENDBRANCH  18  19
ENDBRANCH   1  18
TORSDOF 20
ENDMDL
MODEL 3
REMARK VINA RESULT:      -6.1      1.961      3.537
REMARK  Name = 
REMARK  22 active torsions:
REMARK  status: ('A' for Active; 'I' for Inactive)
REMARK    1  A    between atoms: C_1  and  C_2
REMARK    2  A    between atoms: C_2  and  C_3
REMARK    3  A    between atoms: C_3  and  C_4
REMARK    4  A    between atoms: C_4  and  C_5
REMARK    5  A    between atoms: C_5  and  C_6
REMARK    6  A    between atoms: C_6  and  C_7
REMARK    7  A    between atoms: C_7  and  C_8
REMARK    8  A    between atoms: C_8  and  C_9
REMARK    9  A    between atoms: C_10  and  C_11
REMARK   10  A    between atoms: C_11  and  C_12
REMARK   11  A    between atoms: C_12  and  C_13
REMARK   12  A    between atoms: C_13  and  C_14
REMARK   13  A    between atoms: C_14  and  C_15
REMARK   14  A    between atoms: C_15  and  C_16
REMARK   15  A    between atoms: C_16  and  C_17
REMARK   16  A    between atoms: C_17  and  C_18
REMARK   17  A    between atoms: C_18  and  O_19
REMARK   18  A    between atoms: O_19  and  C_20
REMARK   19  A    between atoms: C_22  and  O_23
REMARK   20  A    between atoms: C_25  and  O_26
REMARK   21  A    between atoms: C_27  and  C_28
REMARK   22  A    between atoms: C_28  and  C_29
REMARK                            x       y       z     vdW  Elec       q    Type
REMARK                         _______ _______ _______ _____ _____    ______ ____
ROOT
ATOM      1  C   UNL     1       1.823   6.955  20.254  0.00  0.00    +0.000 C 
ENDROOT
BRANCH   1   2
ATOM      2  C   UNL     1       2.450   7.323  18.901  0.00  0.00    +0.000 C 
BRANCH   2   3
ATOM      3  C   UNL     1       1.660   8.459  18.255  0.00  0.00    +0.000 C 
BRANCH   3   4
ATOM      4  O   UNL     1       1.556   9.588  19.099  0.00  0.00    +0.000 OA
BRANCH   4   5
ATOM      5  C   UNL     1       0.557  10.490  18.811  0.00  0.00    +0.000 A 
ATOM      6  C   UNL     1      -0.425   9.856  18.023  0.00  0.00    +0.000 A 
ATOM      7  C   UNL     1      -1.526  10.556  17.552  0.00  0.00    +0.000 A 
ATOM      8  C   UNL     1      -1.700  11.891  17.870  0.00  0.00    +0.000 A 
ATOM      9  C   UNL     1      -0.746  12.533  18.658  0.00  0.00    +0.000 A 
ATOM     10  C   UNL     1       0.410  11.866  19.122  0.00  0.00    +0.000 A 
BRANCH  10  11
ATOM     11  C   UNL     1       1.357  12.710  19.927  0.00  0.00    +0.000 C 
ATOM     12  C   UNL     1       2.330  13.617  19.205  0.00  0.00    +0.000 C 
ATOM     13  O   UNL     1       1.298  12.750  21.154  0.00  0.00    +0.000 OA
ENDBRANCH  10  11
BRANCH   9  14
ATOM     14  O   UNL     1      -0.968  13.844  18.993  0.00  0.00    +0.000 OA
ATOM     15  H   UNL     1      -1.832  14.125  18.646  0.00  0.00    +0.000 HD
ENDBRANCH   9  14
BRANCH   7  16
ATOM     16  O   UNL     1      -2.467   9.966  16.764  0.00  0.00    +0.000 OA
ATOM     17  H   UNL     1      -2.985   9.345  17.305  0.00  0.00    +0.000 HD
ENDBRANCH   7  16
ENDBRANCH   4   5
ENDBRANCH   3   4
ENDBRANCH   2   3
ENDBRANCH   1   2
BRANCH   1  18
ATOM     18  C   UNL     1       2.142   5.517  20.669  0.00  0.00    +0.000 C 
BRANCH  18  19
ATOM     19  C   UNL     1       0.934   4.616  20.525  0.00  0.00    +0.000 C 
BRANCH  19  20
ATOM     20  C   UNL     1       1.372   3.162  20.349  0.00  0.00    +0.000 C 
BRANCH  20  21
ATOM     21  C   UNL     1       1.160   2.664  18.922  0.00  0.00    +0.000 C 
BRANCH  21  22
ATOM     22  C   UNL     1       1.605   3.647  17.836  0.00  0.00    +0.000 C 
BRANCH  22  24
ATOM     23  C   UNL     1       4.046   3.396  17.246  0.00  0.00    +0.000 C 
ATOM     24  C   UNL     1       2.754   3.121  17.012  0.00  0.00    +0.000 C 
BRANCH  23  25
ATOM     25  C   UNL     1       4.486   4.243  18.397  0.00  0.00    +0.000 C 
BRANCH  25  26
ATOM     26  C   UNL     1       5.989   4.452  18.434  0.00  0.00    +0.000 C 
BRANCH  26  27
ATOM     27  C   UNL     1       6.287   5.922  18.166  0.00  0.00    +0.000 C 
BRANCH  27  28
ATOM     28  C   UNL     1       7.059   6.080  16.868  0.00  0.00    +0.000 C 
BRANCH  28  29
ATOM     29  C   UNL     1       7.260   4.727  16.199  0.00  0.00    +0.000 C 
BRANCH  29  30
ATOM     30  C   UNL     1       7.089   4.862  14.690  0.00  0.00    +0.000 C 
BRANCH  30  32
ATOM     31  C   UNL     1       6.193   3.599  12.729  0.00  0.00    +0.000 C 
ATOM     32  C   UNL     1       5.964   3.967  14.184  0.00  0.00    +0.000 C 
ENDBRANCH  30  32
ENDBRANCH  29  30
ENDBRANCH  28  29
ENDBRANCH  27  28
ENDBRANCH  26  27
ENDBRANCH  25  26
ENDBRANCH  23  25
ENDBRANCH  22  24
ENDBRANCH  21  22
ENDBRANCH  20  21
ENDBRANCH  19  20
ENDBRANCH  18  19
ENDBRANCH   1  18
TORSDOF 20
ENDMDL
MODEL 4
REMARK VINA RESULT:      -6.0      1.644      3.291
REMARK  Name = 
REMARK  22 active torsions:
REMARK  status: ('A' for Active; 'I' for Inactive)
REMARK    1  A    between atoms: C_1  and  C_2
REMARK    2  A    between atoms: C_2  and  C_3
REMARK    3  A    between atoms: C_3  and  C_4
REMARK    4  A    between atoms: C_4  and  C_5
REMARK    5  A    between atoms: C_5  and  C_6
REMARK    6  A    between atoms: C_6  and  C_7
REMARK    7  A    between atoms: C_7  and  C_8
REMARK    8  A    between atoms: C_8  and  C_9
REMARK    9  A    between atoms: C_10  and  C_11
REMARK   10  A    between atoms: C_11  and  C_12
REMARK   11  A    between atoms: C_12  and  C_13
REMARK   12  A    between atoms: C_13  and  C_14
REMARK   13  A    between atoms: C_14  and  C_15
REMARK   14  A    between atoms: C_15  and  C_16
REMARK   15  A    between atoms: C_16  and  C_17
REMARK   16  A    between atoms: C_17  and  C_18
REMARK   17  A    between atoms: C_18  and  O_19
REMARK   18  A    between atoms: O_19  and  C_20
REMARK   19  A    between atoms: C_22  and  O_23
REMARK   20  A    between atoms: C_25  and  O_26
REMARK   21  A    between atoms: C_27  and  C_28
REMARK   22  A    between atoms: C_28  and  C_29
REMARK                            x       y       z     vdW  Elec       q    Type
REMARK                         _______ _______ _______ _____ _____    ______ ____
ROOT
ATOM      1  C   UNL     1       1.152   9.321  17.945  0.00  0.00    +0.000 C 
ENDROOT
BRANCH   1   2
ATOM      2  C   UNL     1       0.897   9.916  19.339  0.00  0.00    +0.000 C 
BRANCH   2   3
ATOM      3  C   UNL     1      -0.597  10.171  19.529  0.00  0.00    +0.000 C 
BRANCH   3   4
ATOM      4  O   UNL     1      -1.051  11.278  18.778  0.00  0.00    +0.000 OA
BRANCH   4   5
ATOM      5  C   UNL     1      -2.373  11.632  18.928  0.00  0.00    +0.000 A 
ATOM      6  C   UNL     1      -3.087  11.249  17.775  0.00  0.00    +0.000 A 
ATOM      7  C   UNL     1      -4.440  11.531  17.643  0.00  0.00    +0.000 A 
ATOM      8  C   UNL     1      -5.126  12.170  18.660  0.00  0.00    +0.000 A 
ATOM      9  C   UNL     1      -4.440  12.547  19.813  0.00  0.00    +0.000 A 
ATOM     10  C   UNL     1      -3.055  12.316  19.966  0.00  0.00    +0.000 A 
BRANCH  10  11
ATOM     11  C   UNL     1      -2.461  12.816  21.253  0.00  0.00    +0.000 C 
ATOM     12  C   UNL     1      -1.506  13.989  21.215  0.00  0.00    +0.000 C 
ATOM     13  O   UNL     1      -2.801  12.354  22.340  0.00  0.00    +0.000 OA
ENDBRANCH  10  11
BRANCH   9  14
ATOM     14  O   UNL     1      -5.157  13.140  20.821  0.00  0.00    +0.000 OA
ATOM     15  H   UNL     1      -4.664  13.907  21.160  0.00  0.00    +0.000 HD
ENDBRANCH   9  14
BRANCH   7  16
ATOM     16  O   UNL     1      -5.136  11.195  16.522  0.00  0.00    +0.000 OA
ATOM     17  H   UNL     1      -5.265  11.993  15.982  0.00  0.00    +0.000 HD
ENDBRANCH   7  16
ENDBRANCH   4   5
ENDBRANCH   3   4
ENDBRANCH   2   3
ENDBRANCH   1   2
BRANCH   1  18
ATOM     18  C   UNL     1       2.406   8.445  17.910  0.00  0.00    +0.000 C 
BRANCH  18  19
ATOM     19  C   UNL     1       2.100   7.020  18.317  0.00  0.00    +0.000 C 
BRANCH  19  20
ATOM     20  C   UNL     1       2.665   6.729  19.707  0.00  0.00    +0.000 C 
BRANCH  20  21
ATOM     21  C   UNL     1       1.704   5.906  20.561  0.00  0.00    +0.000 C 
BRANCH  21  22
ATOM     22  C   UNL     1       2.219   4.513  20.928  0.00  0.00    +0.000 C 
BRANCH  22  24
ATOM     23  C   UNL     1       0.733   2.972  19.591  0.00  0.00    +0.000 C 
ATOM     24  C   UNL     1       1.166   3.445  20.770  0.00  0.00    +0.000 C 
BRANCH  23  25
ATOM     25  C   UNL     1       1.293   3.443  18.288  0.00  0.00    +0.000 C 
BRANCH  25  26
ATOM     26  C   UNL     1       2.374   2.527  17.744  0.00  0.00    +0.000 C 
BRANCH  26  27
ATOM     27  C   UNL     1       3.480   3.380  17.137  0.00  0.00    +0.000 C 
BRANCH  27  28
ATOM     28  C   UNL     1       4.531   3.711  18.183  0.00  0.00    +0.000 C 
BRANCH  28  29
ATOM     29  C   UNL     1       5.271   4.988  17.809  0.00  0.00    +0.000 C 
BRANCH  29  30
ATOM     30  C   UNL     1       4.779   5.498  16.458  0.00  0.00    +0.000 C 
BRANCH  30  32
ATOM     31  C   UNL     1       7.206   5.176  15.964  0.00  0.00    +0.000 C 
ATOM     32  C   UNL     1       5.813   5.247  15.367  0.00  0.00    +0.000 C 
ENDBRANCH  30  32
ENDBRANCH  29  30
ENDBRANCH  28  29
ENDBRANCH  27  28
ENDBRANCH  26  27
ENDBRANCH  25  26
ENDBRANCH  23  25
ENDBRANCH  22  24
ENDBRANCH  21  22
ENDBRANCH  20  21
ENDBRANCH  19  20
ENDBRANCH  18  19
ENDBRANCH   1  18
TORSDOF 20
ENDMDL
MODEL 5
REMARK VINA RESULT:      -6.0      1.493      4.634
REMARK  Name = 
REMARK  22 active torsions:
REMARK  status: ('A' for Active; 'I' for Inactive)
REMARK    1  A    between atoms: C_1  and  C_2
REMARK    2  A    between atoms: C_2  and  C_3
REMARK    3  A    between atoms: C_3  and  C_4
REMARK    4  A    between atoms: C_4  and  C_5
REMARK    5  A    between atoms: C_5  and  C_6
REMARK    6  A    between atoms: C_6  and  C_7
REMARK    7  A    between atoms: C_7  and  C_8
REMARK    8  A    between atoms: C_8  and  C_9
REMARK    9  A    between atoms: C_10  and  C_11
REMARK   10  A    between atoms: C_11  and  C_12
REMARK   11  A    between atoms: C_12  and  C_13
REMARK   12  A    between atoms: C_13  and  C_14
REMARK   13  A    between atoms: C_14  and  C_15
REMARK   14  A    between atoms: C_15  and  C_16
REMARK   15  A    between atoms: C_16  and  C_17
REMARK   16  A    between atoms: C_17  and  C_18
REMARK   17  A    between atoms: C_18  and  O_19
REMARK   18  A    between atoms: O_19  and  C_20
REMARK   19  A    between atoms: C_22  and  O_23
REMARK   20  A    between atoms: C_25  and  O_26
REMARK   21  A    between atoms: C_27  and  C_28
REMARK   22  A    between atoms: C_28  and  C_29
REMARK                            x       y       z     vdW  Elec       q    Type
REMARK                         _______ _______ _______ _____ _____    ______ ____
ROOT
ATOM      1  C   UNL     1       2.735   7.819  18.268  0.00  0.00    +0.000 C 
ENDROOT
BRANCH   1   2
ATOM      2  C   UNL     1       1.791   8.823  17.591  0.00  0.00    +0.000 C 
BRANCH   2   3
ATOM      3  C   UNL     1       1.409   9.923  18.579  0.00  0.00    +0.000 C 
BRANCH   3   4
ATOM      4  O   UNL     1       0.220   9.624  19.281  0.00  0.00    +0.000 OA
BRANCH   4   5
ATOM      5  C   UNL     1      -0.898  10.356  18.951  0.00  0.00    +0.000 A 
ATOM      6  C   UNL     1      -1.397   9.903  17.713  0.00  0.00    +0.000 A 
ATOM      7  C   UNL     1      -2.499  10.503  17.121  0.00  0.00    +0.000 A 
ATOM      8  C   UNL     1      -3.153  11.546  17.751  0.00  0.00    +0.000 A 
ATOM      9  C   UNL     1      -2.683  12.001  18.982  0.00  0.00    +0.000 A 
ATOM     10  C   UNL     1      -1.539  11.444  19.596  0.00  0.00    +0.000 A 
BRANCH  10  11
ATOM     11  C   UNL     1      -1.143  12.073  20.901  0.00  0.00    +0.000 C 
ATOM     12  C   UNL     1       0.104  12.930  20.956  0.00  0.00    +0.000 C 
ATOM     13  O   UNL     1      -1.852  11.982  21.900  0.00  0.00    +0.000 OA
ENDBRANCH  10  11
BRANCH   9  14
ATOM     14  O   UNL     1      -3.379  13.007  19.602  0.00  0.00    +0.000 OA
ATOM     15  H   UNL     1      -2.876  13.837  19.534  0.00  0.00    +0.000 HD
ENDBRANCH   9  14
BRANCH   7  16
ATOM     16  O   UNL     1      -2.973  10.097  15.911  0.00  0.00    +0.000 OA
ATOM     17  H   UNL     1      -2.470   9.316  15.622  0.00  0.00    +0.000 HD
ENDBRANCH   7  16
ENDBRANCH   4   5
ENDBRANCH   3   4
ENDBRANCH   2   3
ENDBRANCH   1   2
BRANCH   1  18
ATOM     18  C   UNL     1       3.824   7.314  17.317  0.00  0.00    +0.000 C 
BRANCH  18  19
ATOM     19  C   UNL     1       4.938   6.617  18.068  0.00  0.00    +0.000 C 
BRANCH  19  20
ATOM     20  C   UNL     1       6.295   6.979  17.466  0.00  0.00    +0.000 C 
BRANCH  20  21
ATOM     21  C   UNL     1       7.418   6.091  17.995  0.00  0.00    +0.000 C 
BRANCH  21  22
ATOM     22  C   UNL     1       7.566   4.756  17.262  0.00  0.00    +0.000 C 
BRANCH  22  24
ATOM     23  C   UNL     1       6.363   4.151  15.128  0.00  0.00    +0.000 C 
ATOM     24  C   UNL     1       7.286   4.870  15.784  0.00  0.00    +0.000 C 
BRANCH  23  25
ATOM     25  C   UNL     1       5.475   3.168  15.820  0.00  0.00    +0.000 C 
BRANCH  25  26
ATOM     26  C   UNL     1       4.204   3.798  16.360  0.00  0.00    +0.000 C 
BRANCH  26  27
ATOM     27  C   UNL     1       3.780   3.049  17.616  0.00  0.00    +0.000 C 
BRANCH  27  28
ATOM     28  C   UNL     1       2.267   2.932  17.682  0.00  0.00    +0.000 C 
BRANCH  28  29
ATOM     29  C   UNL     1       1.646   4.269  18.065  0.00  0.00    +0.000 C 
BRANCH  29  30
ATOM     30  C   UNL     1       1.660   4.433  19.581  0.00  0.00    +0.000 C 
BRANCH  30  32
ATOM     31  C   UNL     1       1.679   2.880  21.537  0.00  0.00    +0.000 C 
ATOM     32  C   UNL     1       0.950   3.272  20.266  0.00  0.00    +0.000 C 
ENDBRANCH  30  32
ENDBRANCH  29  30
ENDBRANCH  28  29
ENDBRANCH  27  28
ENDBRANCH  26  27
ENDBRANCH  25  26
ENDBRANCH  23  25
ENDBRANCH  22  24
ENDBRANCH  21  22
ENDBRANCH  20  21
ENDBRANCH  19  20
ENDBRANCH  18  19
ENDBRANCH   1  18
TORSDOF 20
ENDMDL
MODEL 6
REMARK VINA RESULT:      -6.0      2.246      4.178
REMARK  Name = 
REMARK  22 active torsions:
REMARK  status: ('A' for Active; 'I' for Inactive)
REMARK    1  A    between atoms: C_1  and  C_2
REMARK    2  A    between atoms: C_2  and  C_3
REMARK    3  A    between atoms: C_3  and  C_4
REMARK    4  A    between atoms: C_4  and  C_5
REMARK    5  A    between atoms: C_5  and  C_6
REMARK    6  A    between atoms: C_6  and  C_7
REMARK    7  A    between atoms: C_7  and  C_8
REMARK    8  A    between atoms: C_8  and  C_9
REMARK    9  A    between atoms: C_10  and  C_11
REMARK   10  A    between atoms: C_11  and  C_12
REMARK   11  A    between atoms: C_12  and  C_13
REMARK   12  A    between atoms: C_13  and  C_14
REMARK   13  A    between atoms: C_14  and  C_15
REMARK   14  A    between atoms: C_15  and  C_16
REMARK   15  A    between atoms: C_16  and  C_17
REMARK   16  A    between atoms: C_17  and  C_18
REMARK   17  A    between atoms: C_18  and  O_19
REMARK   18  A    between atoms: O_19  and  C_20
REMARK   19  A    between atoms: C_22  and  O_23
REMARK   20  A    between atoms: C_25  and  O_26
REMARK   21  A    between atoms: C_27  and  C_28
REMARK   22  A    between atoms: C_28  and  C_29
REMARK                            x       y       z     vdW  Elec       q    Type
REMARK                         _______ _______ _______ _____ _____    ______ ____
ROOT
ATOM      1  C   UNL     1       2.651   7.665  17.938  0.00  0.00    +0.000 C 
ENDROOT
BRANCH   1   2
ATOM      2  C   UNL     1       2.236   9.141  18.032  0.00  0.00    +0.000 C 
BRANCH   2   3
ATOM      3  C   UNL     1       0.783   9.243  18.491  0.00  0.00    +0.000 C 
BRANCH   3   4
ATOM      4  O   UNL     1       0.360  10.582  18.643  0.00  0.00    +0.000 OA
BRANCH   4   5
ATOM      5  C   UNL     1      -0.974  10.842  18.428  0.00  0.00    +0.000 A 
ATOM      6  C   UNL     1      -1.417  10.094  17.319  0.00  0.00    +0.000 A 
ATOM      7  C   UNL     1      -2.720  10.205  16.855  0.00  0.00    +0.000 A 
ATOM      8  C   UNL     1      -3.625  11.034  17.492  0.00  0.00    +0.000 A 
ATOM      9  C   UNL     1      -3.210  11.774  18.598  0.00  0.00    +0.000 A 
ATOM     10  C   UNL     1      -1.880  11.720  19.075  0.00  0.00    +0.000 A 
BRANCH  10  11
ATOM     11  C   UNL     1      -1.587  12.606  20.252  0.00  0.00    +0.000 C 
ATOM     12  C   UNL     1      -1.114  11.978  21.545  0.00  0.00    +0.000 C 
ATOM     13  O   UNL     1      -1.636  13.831  20.164  0.00  0.00    +0.000 OA
ENDBRANCH  10  11
BRANCH   9  14
ATOM     14  O   UNL     1      -4.141  12.553  19.235  0.00  0.00    +0.000 OA
ATOM     15  H   UNL     1      -5.024  12.160  19.121  0.00  0.00    +0.000 HD
ENDBRANCH   9  14
BRANCH   7  16
ATOM     16  O   UNL     1      -3.155   9.512  15.765  0.00  0.00    +0.000 OA
ATOM     17  H   UNL     1      -2.732   8.636  15.761  0.00  0.00    +0.000 HD
ENDBRANCH   7  16
ENDBRANCH   4   5
ENDBRANCH   3   4
ENDBRANCH   2   3
ENDBRANCH   1   2
BRANCH   1  18
ATOM     18  C   UNL     1       2.729   6.997  19.313  0.00  0.00    +0.000 C 
BRANCH  18  19
ATOM     19  C   UNL     1       2.043   5.648  19.314  0.00  0.00    +0.000 C 
BRANCH  19  20
ATOM     20  C   UNL     1       2.072   5.034  17.914  0.00  0.00    +0.000 C 
BRANCH  20  21
ATOM     21  C   UNL     1       2.301   3.525  17.950  0.00  0.00    +0.000 C 
BRANCH  21  22
ATOM     22  C   UNL     1       3.755   3.101  17.736  0.00  0.00    +0.000 C 
BRANCH  22  24
ATOM     23  C   UNL     1       5.631   4.512  18.664  0.00  0.00    +0.000 C 
ATOM     24  C   UNL     1       4.670   3.591  18.831  0.00  0.00    +0.000 C 
BRANCH  23  25
ATOM     25  C   UNL     1       5.871   5.186  17.352  0.00  0.00    +0.000 C 
BRANCH  25  26
ATOM     26  C   UNL     1       7.127   4.694  16.656  0.00  0.00    +0.000 C 
BRANCH  26  27
ATOM     27  C   UNL     1       6.978   4.920  15.157  0.00  0.00    +0.000 C 
BRANCH  27  28
ATOM     28  C   UNL     1       5.821   4.104  14.608  0.00  0.00    +0.000 C 
BRANCH  28  29
ATOM     29  C   UNL     1       6.148   3.587  13.214  0.00  0.00    +0.000 C 
BRANCH  29  30
ATOM     30  C   UNL     1       4.969   3.831  12.278  0.00  0.00    +0.000 C 
BRANCH  30  32
ATOM     31  C   UNL     1       5.934   1.700  11.401  0.00  0.00    +0.000 C 
ATOM     32  C   UNL     1       4.739   2.635  11.362  0.00  0.00    +0.000 C 
ENDBRANCH  30  32
ENDBRANCH  29  30
ENDBRANCH  28  29
ENDBRANCH  27  28
ENDBRANCH  26  27
ENDBRANCH  25  26
ENDBRANCH  23  25
ENDBRANCH  22  24
ENDBRANCH  21  22
ENDBRANCH  20  21
ENDBRANCH  19  20
ENDBRANCH  18  19
ENDBRANCH   1  18
TORSDOF 20
ENDMDL
MODEL 7
REMARK VINA RESULT:      -6.0      1.519      3.878
REMARK  Name = 
REMARK  22 active torsions:
REMARK  status: ('A' for Active; 'I' for Inactive)
REMARK    1  A    between atoms: C_1  and  C_2
REMARK    2  A    between atoms: C_2  and  C_3
REMARK    3  A    between atoms: C_3  and  C_4
REMARK    4  A    between atoms: C_4  and  C_5
REMARK    5  A    between atoms: C_5  and  C_6
REMARK    6  A    between atoms: C_6  and  C_7
REMARK    7  A    between atoms: C_7  and  C_8
REMARK    8  A    between atoms: C_8  and  C_9
REMARK    9  A    between atoms: C_10  and  C_11
REMARK   10  A    between atoms: C_11  and  C_12
REMARK   11  A    between atoms: C_12  and  C_13
REMARK   12  A    between atoms: C_13  and  C_14
REMARK   13  A    between atoms: C_14  and  C_15
REMARK   14  A    between atoms: C_15  and  C_16
REMARK   15  A    between atoms: C_16  and  C_17
REMARK   16  A    between atoms: C_17  and  C_18
REMARK   17  A    between atoms: C_18  and  O_19
REMARK   18  A    between atoms: O_19  and  C_20
REMARK   19  A    between atoms: C_22  and  O_23
REMARK   20  A    between atoms: C_25  and  O_26
REMARK   21  A    between atoms: C_27  and  C_28
REMARK   22  A    between atoms: C_28  and  C_29
REMARK                            x       y       z     vdW  Elec       q    Type
REMARK                         _______ _______ _______ _____ _____    ______ ____
ROOT
ATOM      1  C   UNL     1       1.825   4.278  20.691  0.00  0.00    +0.000 C 
ENDROOT
BRANCH   1   2
ATOM      2  C   UNL     1       1.023   5.584  20.794  0.00  0.00    +0.000 C 
BRANCH   2   3
ATOM      3  C   UNL     1       1.956   6.780  20.622  0.00  0.00    +0.000 C 
BRANCH   3   4
ATOM      4  O   UNL     1       1.522   7.909  21.352  0.00  0.00    +0.000 OA
BRANCH   4   5
ATOM      5  C   UNL     1       1.120   9.005  20.623  0.00  0.00    +0.000 A 
ATOM      6  C   UNL     1       1.640   8.906  19.316  0.00  0.00    +0.000 A 
ATOM      7  C   UNL     1       1.424   9.908  18.381  0.00  0.00    +0.000 A 
ATOM      8  C   UNL     1       0.665  11.019  18.704  0.00  0.00    +0.000 A 
ATOM      9  C   UNL     1       0.133  11.130  19.987  0.00  0.00    +0.000 A 
ATOM     10  C   UNL     1       0.366  10.151  20.980  0.00  0.00    +0.000 A 
BRANCH  10  11
ATOM     11  C   UNL     1      -0.248  10.441  22.320  0.00  0.00    +0.000 C 
ATOM     12  C   UNL     1      -0.830   9.298  23.124  0.00  0.00    +0.000 C 
ATOM     13  O   UNL     1      -0.209  11.564  22.817  0.00  0.00    +0.000 OA
ENDBRANCH  10  11
BRANCH   9  14
ATOM     14  O   UNL     1      -0.651  12.221  20.264  0.00  0.00    +0.000 OA
ATOM     15  H   UNL     1      -1.171  12.049  21.068  0.00  0.00    +0.000 HD
ENDBRANCH   9  14
BRANCH   7  16
ATOM     16  O   UNL     1       1.946   9.841  17.125  0.00  0.00    +0.000 OA
ATOM     17  H   UNL     1       1.215   9.796  16.484  0.00  0.00    +0.000 HD
ENDBRANCH   7  16
ENDBRANCH   4   5
ENDBRANCH   3   4
ENDBRANCH   2   3
ENDBRANCH   1   2
BRANCH   1  18
ATOM     18  C   UNL     1       0.919   3.045  20.634  0.00  0.00    +0.000 C 
BRANCH  18  19
ATOM     19  C   UNL     1       0.760   2.537  19.217  0.00  0.00    +0.000 C 
BRANCH  19  20
ATOM     20  C   UNL     1       1.495   3.451  18.237  0.00  0.00    +0.000 C 
BRANCH  20  21
ATOM     21  C   UNL     1       2.604   2.720  17.485  0.00  0.00    +0.000 C 
BRANCH  21  22
ATOM     22  C   UNL     1       3.834   3.577  17.182  0.00  0.00    +0.000 C 
BRANCH  22  24
ATOM     23  C   UNL     1       4.352   5.751  18.355  0.00  0.00    +0.000 C 
ATOM     24  C   UNL     1       4.266   4.412  18.362  0.00  0.00    +0.000 C 
BRANCH  23  25
ATOM     25  C   UNL     1       3.985   6.569  17.158  0.00  0.00    +0.000 C 
BRANCH  25  26
ATOM     26  C   UNL     1       5.165   6.836  16.241  0.00  0.00    +0.000 C 
BRANCH  26  27
ATOM     27  C   UNL     1       5.233   5.731  15.195  0.00  0.00    +0.000 C 
BRANCH  27  28
ATOM     28  C   UNL     1       6.628   5.132  15.143  0.00  0.00    +0.000 C 
BRANCH  28  29
ATOM     29  C   UNL     1       7.470   5.641  16.304  0.00  0.00    +0.000 C 
BRANCH  29  30
ATOM     30  C   UNL     1       7.570   4.569  17.384  0.00  0.00    +0.000 C 
BRANCH  30  32
ATOM     31  C   UNL     1       7.983   6.693  18.632  0.00  0.00    +0.000 C 
ATOM     32  C   UNL     1       7.938   5.180  18.731  0.00  0.00    +0.000 C 
ENDBRANCH  30  32
ENDBRANCH  29  30
ENDBRANCH  28  29
ENDBRANCH  27  28
ENDBRANCH  26  27
ENDBRANCH  25  26
ENDBRANCH  23  25
ENDBRANCH  22  24
ENDBRANCH  21  22
ENDBRANCH  20  21
ENDBRANCH  19  20
ENDBRANCH  18  19
ENDBRANCH   1  18
TORSDOF 20
ENDMDL
MODEL 8
REMARK VINA RESULT:      -5.9      2.026      2.998
REMARK  Name = 
REMARK  22 active torsions:
REMARK  status: ('A' for Active; 'I' for Inactive)
REMARK    1  A    between atoms: C_1  and  C_2
REMARK    2  A    between atoms: C_2  and  C_3
REMARK    3  A    between atoms: C_3  and  C_4
REMARK    4  A    between atoms: C_4  and  C_5
REMARK    5  A    between atoms: C_5  and  C_6
REMARK    6  A    between atoms: C_6  and  C_7
REMARK    7  A    between atoms: C_7  and  C_8
REMARK    8  A    between atoms: C_8  and  C_9
REMARK    9  A    between atoms: C_10  and  C_11
REMARK   10  A    between atoms: C_11  and  C_12
REMARK   11  A    between atoms: C_12  and  C_13
REMARK   12  A    between atoms: C_13  and  C_14
REMARK   13  A    between atoms: C_14  and  C_15
REMARK   14  A    between atoms: C_15  and  C_16
REMARK   15  A    between atoms: C_16  and  C_17
REMARK   16  A    between atoms: C_17  and  C_18
REMARK   17  A    between atoms: C_18  and  O_19
REMARK   18  A    between atoms: O_19  and  C_20
REMARK   19  A    between atoms: C_22  and  O_23
REMARK   20  A    between atoms: C_25  and  O_26
REMARK   21  A    between atoms: C_27  and  C_28
REMARK   22  A    between atoms: C_28  and  C_29
REMARK                            x       y       z     vdW  Elec       q    Type
REMARK                         _______ _______ _______ _____ _____    ______ ____
ROOT
ATOM      1  C   UNL     1       1.590   9.053  17.857  0.00  0.00    +0.000 C 
ENDROOT
BRANCH   1   2
ATOM      2  C   UNL     1       1.248   9.899  19.092  0.00  0.00    +0.000 C 
BRANCH   2   3
ATOM      3  C   UNL     1      -0.246  10.221  19.102  0.00  0.00    +0.000 C 
BRANCH   3   4
ATOM      4  O   UNL     1      -0.509  11.555  18.717  0.00  0.00    +0.000 OA
BRANCH   4   5
ATOM      5  C   UNL     1       0.171  12.543  19.392  0.00  0.00    +0.000 A 
ATOM      6  C   UNL     1       1.048  13.193  18.501  0.00  0.00    +0.000 A 
ATOM      7  C   UNL     1       1.892  14.205  18.935  0.00  0.00    +0.000 A 
ATOM      8  C   UNL     1       1.869  14.621  20.255  0.00  0.00    +0.000 A 
ATOM      9  C   UNL     1       1.000  13.999  21.150  0.00  0.00    +0.000 A 
ATOM     10  C   UNL     1       0.157  12.936  20.755  0.00  0.00    +0.000 A 
BRANCH  10  11
ATOM     11  C   UNL     1      -0.691  12.352  21.849  0.00  0.00    +0.000 C 
ATOM     12  C   UNL     1      -2.189  12.568  21.814  0.00  0.00    +0.000 C 
ATOM     13  O   UNL     1      -0.210  11.629  22.719  0.00  0.00    +0.000 OA
ENDBRANCH  10  11
BRANCH   9  14
ATOM     14  O   UNL     1       0.969  14.463  22.440  0.00  0.00    +0.000 OA
ATOM     15  H   UNL     1       0.355  13.919  22.964  0.00  0.00    +0.000 HD
ENDBRANCH   9  14
BRANCH   7  16
ATOM     16  O   UNL     1       2.767  14.820  18.093  0.00  0.00    +0.000 OA
ATOM     17  H   UNL     1       3.627  14.903  18.539  0.00  0.00    +0.000 HD
ENDBRANCH   7  16
ENDBRANCH   4   5
ENDBRANCH   3   4
ENDBRANCH   2   3
ENDBRANCH   1   2
BRANCH   1  18
ATOM     18  C   UNL     1       2.467   7.847  18.205  0.00  0.00    +0.000 C 
BRANCH  18  19
ATOM     19  C   UNL     1       2.201   7.356  19.612  0.00  0.00    +0.000 C 
BRANCH  19  20
ATOM     20  C   UNL     1       1.885   5.860  19.604  0.00  0.00    +0.000 C 
BRANCH  20  21
ATOM     21  C   UNL     1       2.275   5.180  20.914  0.00  0.00    +0.000 C 
BRANCH  21  22
ATOM     22  C   UNL     1       1.892   3.701  20.997  0.00  0.00    +0.000 C 
BRANCH  22  24
ATOM     23  C   UNL     1       1.052   2.716  18.831  0.00  0.00    +0.000 C 
ATOM     24  C   UNL     1       0.821   3.322  20.005  0.00  0.00    +0.000 C 
BRANCH  23  25
ATOM     25  C   UNL     1       2.425   2.314  18.397  0.00  0.00    +0.000 C 
BRANCH  25  26
ATOM     26  C   UNL     1       2.837   2.948  17.081  0.00  0.00    +0.000 C 
BRANCH  26  27
ATOM     27  C   UNL     1       3.800   4.093  17.368  0.00  0.00    +0.000 C 
BRANCH  27  28
ATOM     28  C   UNL     1       4.730   3.731  18.514  0.00  0.00    +0.000 C 
BRANCH  28  29
ATOM     29  C   UNL     1       5.457   4.969  19.020  0.00  0.00    +0.000 C 
BRANCH  29  30
ATOM     30  C   UNL     1       5.603   5.985  17.892  0.00  0.00    +0.000 C 
BRANCH  30  32
ATOM     31  C   UNL     1       7.858   6.012  18.965  0.00  0.00    +0.000 C 
ATOM     32  C   UNL     1       7.044   6.463  17.767  0.00  0.00    +0.000 C 
ENDBRANCH  30  32
ENDBRANCH  29  30
ENDBRANCH  28  29
ENDBRANCH  27  28
ENDBRANCH  26  27
ENDBRANCH  25  26
ENDBRANCH  23  25
ENDBRANCH  22  24
ENDBRANCH  21  22
ENDBRANCH  20  21
ENDBRANCH  19  20
ENDBRANCH  18  19
ENDBRANCH   1  18
TORSDOF 20
ENDMDL
MODEL 9
REMARK VINA RESULT:      -5.9      5.154      9.303
REMARK  Name = 
REMARK  22 active torsions:
REMARK  status: ('A' for Active; 'I' for Inactive)
REMARK    1  A    between atoms: C_1  and  C_2
REMARK    2  A    between atoms: C_2  and  C_3
REMARK    3  A    between atoms: C_3  and  C_4
REMARK    4  A    between atoms: C_4  and  C_5
REMARK    5  A    between atoms: C_5  and  C_6
REMARK    6  A    between atoms: C_6  and  C_7
REMARK    7  A    between atoms: C_7  and  C_8
REMARK    8  A    between atoms: C_8  and  C_9
REMARK    9  A    between atoms: C_10  and  C_11
REMARK   10  A    between atoms: C_11  and  C_12
REMARK   11  A    between atoms: C_12  and  C_13
REMARK   12  A    between atoms: C_13  and  C_14
REMARK   13  A    between atoms: C_14  and  C_15
REMARK   14  A    between atoms: C_15  and  C_16
REMARK   15  A    between atoms: C_16  and  C_17
REMARK   16  A    between atoms: C_17  and  C_18
REMARK   17  A    between atoms: C_18  and  O_19
REMARK   18  A    between atoms: O_19  and  C_20
REMARK   19  A    between atoms: C_22  and  O_23
REMARK   20  A    between atoms: C_25  and  O_26
REMARK   21  A    between atoms: C_27  and  C_28
REMARK   22  A    between atoms: C_28  and  C_29
REMARK                            x       y       z     vdW  Elec       q    Type
REMARK                         _______ _______ _______ _____ _____    ______ ____
ROOT
ATOM      1  C   UNL     1       6.030   7.407  17.531  0.00  0.00    +0.000 C 
ENDROOT
BRANCH   1   2
ATOM      2  C   UNL     1       5.473   6.375  16.539  0.00  0.00    +0.000 C 
BRANCH   2   3
ATOM      3  C   UNL     1       4.916   5.173  17.299  0.00  0.00    +0.000 C 
BRANCH   3   4
ATOM      4  O   UNL     1       3.517   5.043  17.148  0.00  0.00    +0.000 OA
BRANCH   4   5
ATOM      5  C   UNL     1       2.769   4.987  18.301  0.00  0.00    +0.000 A 
ATOM      6  C   UNL     1       2.767   6.257  18.912  0.00  0.00    +0.000 A 
ATOM      7  C   UNL     1       2.121   6.469  20.122  0.00  0.00    +0.000 A 
ATOM      8  C   UNL     1       1.438   5.440  20.744  0.00  0.00    +0.000 A 
ATOM      9  C   UNL     1       1.419   4.179  20.150  0.00  0.00    +0.000 A 
ATOM     10  C   UNL     1       2.100   3.913  18.941  0.00  0.00    +0.000 A 
BRANCH  10  11
ATOM     11  C   UNL     1       2.010   2.494  18.455  0.00  0.00    +0.000 C 
ATOM     12  C   UNL     1       3.283   1.691  18.292  0.00  0.00    +0.000 C 
ATOM     13  O   UNL     1       0.927   1.944  18.273  0.00  0.00    +0.000 OA
ENDBRANCH  10  11
BRANCH   9  14
ATOM     14  O   UNL     1       0.697   3.190  20.768  0.00  0.00    +0.000 OA
ATOM     15  H   UNL     1      -0.200   3.161  20.391  0.00  0.00    +0.000 HD
ENDBRANCH   9  14
BRANCH   7  16
ATOM     16  O   UNL     1       2.136   7.683  20.740  0.00  0.00    +0.000 OA
ATOM     17  H   UNL     1       1.477   8.259  20.315  0.00  0.00    +0.000 HD
ENDBRANCH   7  16
ENDBRANCH   4   5
ENDBRANCH   3   4
ENDBRANCH   2   3
ENDBRANCH   1   2
BRANCH   1  18
ATOM     18  C   UNL     1       7.482   7.781  17.224  0.00  0.00    +0.000 C 
BRANCH  18  19
ATOM     19  C   UNL     1       8.350   7.703  18.462  0.00  0.00    +0.000 C 
BRANCH  19  20
ATOM     20  C   UNL     1       8.867   9.091  18.839  0.00  0.00    +0.000 C 
BRANCH  20  21
ATOM     21  C   UNL     1       8.270  10.188  17.961  0.00  0.00    +0.000 C 
BRANCH  21  22
ATOM     22  C   UNL     1       9.004  11.528  18.036  0.00  0.00    +0.000 C 
BRANCH  22  24
ATOM     23  C   UNL     1      11.460  11.645  18.608  0.00  0.00    +0.000 C 
ATOM     24  C   UNL     1      10.476  11.402  17.729  0.00  0.00    +0.000 C 
BRANCH  23  25
ATOM     25  C   UNL     1      11.186  12.039  20.024  0.00  0.00    +0.000 C 
BRANCH  25  26
ATOM     26  C   UNL     1      11.320  13.532  20.258  0.00  0.00    +0.000 C 
BRANCH  26  27
ATOM     27  C   UNL     1      10.250  13.972  21.248  0.00  0.00    +0.000 C 
BRANCH  27  28
ATOM     28  C   UNL     1       9.250  12.852  21.484  0.00  0.00    +0.000 C 
BRANCH  28  29
ATOM     29  C   UNL     1       7.863  13.423  21.742  0.00  0.00    +0.000 C 
BRANCH  29  30
ATOM     30  C   UNL     1       7.521  13.310  23.224  0.00  0.00    +0.000 C 
BRANCH  30  32
ATOM     31  C   UNL     1       7.091  11.509  24.902  0.00  0.00    +0.000 C 
ATOM     32  C   UNL     1       8.020  11.991  23.803  0.00  0.00    +0.000 C 
ENDBRANCH  30  32
ENDBRANCH  29  30
ENDBRANCH  28  29
ENDBRANCH  27  28
ENDBRANCH  26  27
ENDBRANCH  25  26
ENDBRANCH  23  25
ENDBRANCH  22  24
ENDBRANCH  21  22
ENDBRANCH  20  21
ENDBRANCH  19  20
ENDBRANCH  18  19
ENDBRANCH   1  18
TORSDOF 20
ENDMDL
