MODEL 1
REMARK VINA RESULT:     -10.3      0.000      0.000
REMARK  Name = 
REMARK  4 active torsions:
REMARK  status: ('A' for Active; 'I' for Inactive)
REMARK    1  A    between atoms: C_2  and  C_26
REMARK    2  A    between atoms: N_3  and  C_4
REMARK    3  A    between atoms: C_7  and  N_8
REMARK    4  A    between atoms: N_8  and  C_9
REMARK                            x       y       z     vdW  Elec       q    Type
REMARK                         _______ _______ _______ _____ _____    ______ ____
ROOT
ATOM      1  C   UNL     1       0.678   9.955  20.173  0.00  0.00    +0.000 A 
ATOM      2  C   UNL     1       0.918  10.267  18.832  0.00  0.00    +0.000 A 
ATOM      3  C   UNL     1       1.609   9.369  17.990  0.00  0.00    +0.000 A 
ATOM      4  C   UNL     1       2.082   8.150  18.491  0.00  0.00    +0.000 A 
ATOM      5  C   UNL     1       1.867   7.875  19.848  0.00  0.00    +0.000 A 
ATOM      6  C   UNL     1       1.206   8.772  20.686  0.00  0.00    +0.000 A 
ENDROOT
BRANCH   1   9
ATOM      7  O   UNL     1       1.264  12.563  21.429  0.00  0.00    +0.000 OA
ATOM      8  C   UNL     1       0.188  11.960  21.556  0.00  0.00    +0.000 C 
ATOM      9  N   UNL     1      -0.116  10.722  21.052  0.00  0.00    +0.000 N 
ATOM     10  H   UNL     1      -1.072  10.394  21.166  0.00  0.00    +0.000 HD
BRANCH   8  11
ATOM     11  C   UNL     1      -0.892  12.685  22.287  0.00  0.00    +0.000 A 
ATOM     12  C   UNL     1      -0.979  14.085  22.298  0.00  0.00    +0.000 A 
ATOM     13  C   UNL     1      -2.032  14.706  22.974  0.00  0.00    +0.000 A 
ATOM     14  C   UNL     1      -2.989  13.935  23.628  0.00  0.00    +0.000 A 
ATOM     15  F   UNL     1      -3.996  14.544  24.267  0.00  0.00    +0.000 F 
ATOM     16  C   UNL     1      -2.906  12.548  23.611  0.00  0.00    +0.000 A 
ATOM     17  F   UNL     1      -3.833  11.808  24.234  0.00  0.00    +0.000 F 
ATOM     18  C   UNL     1      -1.864  11.918  22.947  0.00  0.00    +0.000 A 
ENDBRANCH   8  11
ENDBRANCH   1   9
BRANCH   4  19
ATOM     19  N   UNL     1       2.707   7.161  17.660  0.00  0.00    +0.000 N 
ATOM     20  H   UNL     1       2.914   7.589  16.751  0.00  0.00    +0.000 HD
BRANCH  19  21
ATOM     21  C   UNL     1       3.884   6.439  18.077  0.00  0.00    +0.000 A 
ATOM     22  C   UNL     1       5.076   6.679  17.347  0.00  0.00    +0.000 A 
ATOM     23  C   UNL     1       6.165   5.847  17.501  0.00  0.00    +0.000 A 
ATOM     24  N   UNL     1       6.072   4.672  18.125  0.00  0.00    +0.000 NA
ATOM     25  C   UNL     1       4.847   4.385  18.606  0.00  0.00    +0.000 A 
ATOM     26  N   UNL     1       4.299   3.142  18.119  0.00  0.00    +0.000 N 
ATOM     27  C   UNL     1       2.936   3.233  17.756  0.00  0.00    +0.000 A 
ATOM     28  O   UNL     1       2.461   3.040  16.658  0.00  0.00    +0.000 OA
ATOM     29  C   UNL     1       2.076   3.673  18.894  0.00  0.00    +0.000 A 
ATOM     30  C   UNL     1       1.154   2.748  19.391  0.00  0.00    +0.000 A 
ATOM     31  C   UNL     1       1.075   2.592  20.765  0.00  0.00    +0.000 A 
ATOM     32  C   UNL     1       1.901   3.368  21.584  0.00  0.00    +0.000 A 
ATOM     33  C   UNL     1       2.700   4.406  21.043  0.00  0.00    +0.000 A 
ATOM     34  C   UNL     1       2.733   4.648  19.653  0.00  0.00    +0.000 A 
ATOM     35  C   UNL     1       3.851   5.319  18.929  0.00  0.00    +0.000 A 
ATOM     36  H   UNL     1       4.451   2.479  18.872  0.00  0.00    +0.000 HD
ENDBRANCH  19  21
ENDBRANCH   4  19
TORSDOF 4
ENDMDL
MODEL 2
REMARK VINA RESULT:     -10.2      1.723      3.410
REMARK  Name = 
REMARK  4 active torsions:
REMARK  status: ('A' for Active; 'I' for Inactive)
REMARK    1  A    between atoms: C_2  and  C_26
REMARK    2  A    between atoms: N_3  and  C_4
REMARK    3  A    between atoms: C_7  and  N_8
REMARK    4  A    between atoms: N_8  and  C_9
REMARK                            x       y       z     vdW  Elec       q    Type
REMARK                         _______ _______ _______ _____ _____    ______ ____
ROOT
ATOM      1  C   UNL     1       0.170   9.740  20.120  0.00  0.00    +0.000 A 
ATOM      2  C   UNL     1       0.484   9.892  18.767  0.00  0.00    +0.000 A 
ATOM      3  C   UNL     1       1.444   9.064  18.147  0.00  0.00    +0.000 A 
ATOM      4  C   UNL     1       2.114   8.081  18.885  0.00  0.00    +0.000 A 
ATOM      5  C   UNL     1       1.814   7.972  20.250  0.00  0.00    +0.000 A 
ATOM      6  C   UNL     1       0.883   8.806  20.868  0.00  0.00    +0.000 A 
ENDROOT
BRANCH   1   9
ATOM      7  O   UNL     1       0.327  12.093  21.897  0.00  0.00    +0.000 OA
ATOM      8  C   UNL     1      -0.736  11.552  21.558  0.00  0.00    +0.000 C 
ATOM      9  N   UNL     1      -0.866  10.423  20.791  0.00  0.00    +0.000 N 
ATOM     10  H   UNL     1      -1.808  10.147  20.525  0.00  0.00    +0.000 HD
BRANCH   8  11
ATOM     11  C   UNL     1      -1.991  12.235  21.989  0.00  0.00    +0.000 A 
ATOM     12  C   UNL     1      -2.698  13.105  21.146  0.00  0.00    +0.000 A 
ATOM     13  C   UNL     1      -3.884  13.689  21.596  0.00  0.00    +0.000 A 
ATOM     14  C   UNL     1      -4.359  13.404  22.872  0.00  0.00    +0.000 A 
ATOM     15  F   UNL     1      -5.501  13.968  23.287  0.00  0.00    +0.000 F 
ATOM     16  C   UNL     1      -3.661  12.538  23.705  0.00  0.00    +0.000 A 
ATOM     17  F   UNL     1      -4.125  12.259  24.930  0.00  0.00    +0.000 F 
ATOM     18  C   UNL     1      -2.480  11.953  23.273  0.00  0.00    +0.000 A 
ENDBRANCH   8  11
ENDBRANCH   1   9
BRANCH   4  19
ATOM     19  N   UNL     1       3.029   7.151  18.287  0.00  0.00    +0.000 N 
ATOM     20  H   UNL     1       3.973   7.365  18.628  0.00  0.00    +0.000 HD
BRANCH  19  21
ATOM     21  C   UNL     1       2.848   5.723  18.383  0.00  0.00    +0.000 A 
ATOM     22  C   UNL     1       2.004   5.253  19.422  0.00  0.00    +0.000 A 
ATOM     23  C   UNL     1       1.987   3.914  19.751  0.00  0.00    +0.000 A 
ATOM     24  N   UNL     1       2.913   3.066  19.302  0.00  0.00    +0.000 NA
ATOM     25  C   UNL     1       3.837   3.618  18.492  0.00  0.00    +0.000 A 
ATOM     26  N   UNL     1       5.197   3.440  18.942  0.00  0.00    +0.000 N 
ATOM     27  C   UNL     1       5.985   4.608  18.822  0.00  0.00    +0.000 A 
ATOM     28  O   UNL     1       6.528   5.214  19.721  0.00  0.00    +0.000 OA
ATOM     29  C   UNL     1       6.051   5.104  17.416  0.00  0.00    +0.000 A 
ATOM     30  C   UNL     1       7.295   5.049  16.780  0.00  0.00    +0.000 A 
ATOM     31  C   UNL     1       7.337   4.543  15.492  0.00  0.00    +0.000 A 
ATOM     32  C   UNL     1       6.147   4.125  14.888  0.00  0.00    +0.000 A 
ATOM     33  C   UNL     1       4.893   4.351  15.509  0.00  0.00    +0.000 A 
ATOM     34  C   UNL     1       4.813   4.948  16.785  0.00  0.00    +0.000 A 
ATOM     35  C   UNL     1       3.672   4.787  17.733  0.00  0.00    +0.000 A 
ATOM     36  H   UNL     1       5.559   2.676  18.381  0.00  0.00    +0.000 HD
ENDBRANCH  19  21
ENDBRANCH   4  19
TORSDOF 4
ENDMDL
MODEL 3
REMARK VINA RESULT:     -10.1      0.717      1.226
REMARK  Name = 
REMARK  4 active torsions:
REMARK  status: ('A' for Active; 'I' for Inactive)
REMARK    1  A    between atoms: C_2  and  C_26
REMARK    2  A    between atoms: N_3  and  C_4
REMARK    3  A    between atoms: C_7  and  N_8
REMARK    4  A    between atoms: N_8  and  C_9
REMARK                            x       y       z     vdW  Elec       q    Type
REMARK                         _______ _______ _______ _____ _____    ______ ____
ROOT
ATOM      1  C   UNL     1       0.657   9.700  19.913  0.00  0.00    +0.000 A 
ATOM      2  C   UNL     1       0.977  10.032  18.594  0.00  0.00    +0.000 A 
ATOM      3  C   UNL     1       1.812   9.198  17.818  0.00  0.00    +0.000 A 
ATOM      4  C   UNL     1       2.349   8.027  18.366  0.00  0.00    +0.000 A 
ATOM      5  C   UNL     1       2.048   7.734  19.703  0.00  0.00    +0.000 A 
ATOM      6  C   UNL     1       1.244   8.570  20.477  0.00  0.00    +0.000 A 
ENDROOT
BRANCH   1   9
ATOM      7  O   UNL     1       1.043  12.135  21.539  0.00  0.00    +0.000 OA
ATOM      8  C   UNL     1      -0.047  11.559  21.404  0.00  0.00    +0.000 C 
ATOM      9  N   UNL     1      -0.272  10.394  20.718  0.00  0.00    +0.000 N 
ATOM     10  H   UNL     1      -1.237  10.089  20.623  0.00  0.00    +0.000 HD
BRANCH   8  11
ATOM     11  C   UNL     1      -1.230  12.237  22.009  0.00  0.00    +0.000 A 
ATOM     12  C   UNL     1      -1.955  11.673  23.069  0.00  0.00    +0.000 A 
ATOM     13  C   UNL     1      -3.035  12.371  23.615  0.00  0.00    +0.000 A 
ATOM     14  C   UNL     1      -3.383  13.620  23.108  0.00  0.00    +0.000 A 
ATOM     15  F   UNL     1      -4.417  14.279  23.646  0.00  0.00    +0.000 F 
ATOM     16  C   UNL     1      -2.661  14.180  22.062  0.00  0.00    +0.000 A 
ATOM     17  F   UNL     1      -2.993  15.386  21.582  0.00  0.00    +0.000 F 
ATOM     18  C   UNL     1      -1.589  13.497  21.508  0.00  0.00    +0.000 A 
ENDBRANCH   8  11
ENDBRANCH   1   9
BRANCH   4  19
ATOM     19  N   UNL     1       3.125   7.096  17.597  0.00  0.00    +0.000 N 
ATOM     20  H   UNL     1       3.521   7.596  16.793  0.00  0.00    +0.000 HD
BRANCH  19  21
ATOM     21  C   UNL     1       4.183   6.309  18.182  0.00  0.00    +0.000 A 
ATOM     22  C   UNL     1       5.482   6.472  17.635  0.00  0.00    +0.000 A 
ATOM     23  C   UNL     1       6.484   5.578  17.947  0.00  0.00    +0.000 A 
ATOM     24  N   UNL     1       6.230   4.416  18.550  0.00  0.00    +0.000 NA
ATOM     25  C   UNL     1       4.933   4.206  18.846  0.00  0.00    +0.000 A 
ATOM     26  N   UNL     1       4.389   2.994  18.283  0.00  0.00    +0.000 N 
ATOM     27  C   UNL     1       3.101   3.163  17.724  0.00  0.00    +0.000 A 
ATOM     28  O   UNL     1       2.782   2.989  16.567  0.00  0.00    +0.000 OA
ATOM     29  C   UNL     1       2.112   3.663  18.723  0.00  0.00    +0.000 A 
ATOM     30  C   UNL     1       1.073   2.798  19.079  0.00  0.00    +0.000 A 
ATOM     31  C   UNL     1       0.784   2.660  20.426  0.00  0.00    +0.000 A 
ATOM     32  C   UNL     1       1.526   3.392  21.358  0.00  0.00    +0.000 A 
ATOM     33  C   UNL     1       2.457   4.376  20.941  0.00  0.00    +0.000 A 
ATOM     34  C   UNL     1       2.708   4.603  19.571  0.00  0.00    +0.000 A 
ATOM     35  C   UNL     1       3.958   5.201  19.020  0.00  0.00    +0.000 A 
ATOM     36  H   UNL     1       4.388   2.329  19.050  0.00  0.00    +0.000 HD
ENDBRANCH  19  21
ENDBRANCH   4  19
TORSDOF 4
ENDMDL
MODEL 4
REMARK VINA RESULT:     -10.0      1.740      3.512
REMARK  Name = 
REMARK  4 active torsions:
REMARK  status: ('A' for Active; 'I' for Inactive)
REMARK    1  A    between atoms: C_2  and  C_26
REMARK    2  A    between atoms: N_3  and  C_4
REMARK    3  A    between atoms: C_7  and  N_8
REMARK    4  A    between atoms: N_8  and  C_9
REMARK                            x       y       z     vdW  Elec       q    Type
REMARK                         _______ _______ _______ _____ _____    ______ ____
ROOT
ATOM      1  C   UNL     1       0.201   9.657  20.678  0.00  0.00    +0.000 A 
ATOM      2  C   UNL     1       0.682   8.551  21.384  0.00  0.00    +0.000 A 
ATOM      3  C   UNL     1       1.582   7.642  20.785  0.00  0.00    +0.000 A 
ATOM      4  C   UNL     1       1.997   7.826  19.460  0.00  0.00    +0.000 A 
ATOM      5  C   UNL     1       1.471   8.918  18.757  0.00  0.00    +0.000 A 
ATOM      6  C   UNL     1       0.564   9.802  19.340  0.00  0.00    +0.000 A 
ENDROOT
BRANCH   1   9
ATOM      7  O   UNL     1      -0.246  10.355  23.512  0.00  0.00    +0.000 OA
ATOM      8  C   UNL     1      -0.708  11.001  22.559  0.00  0.00    +0.000 C 
ATOM      9  N   UNL     1      -0.588  10.688  21.230  0.00  0.00    +0.000 N 
ATOM     10  H   UNL     1      -0.948  11.362  20.559  0.00  0.00    +0.000 HD
BRANCH   8  11
ATOM     11  C   UNL     1      -1.417  12.267  22.903  0.00  0.00    +0.000 A 
ATOM     12  C   UNL     1      -0.819  13.527  22.747  0.00  0.00    +0.000 A 
ATOM     13  C   UNL     1      -1.546  14.679  23.056  0.00  0.00    +0.000 A 
ATOM     14  C   UNL     1      -2.856  14.573  23.512  0.00  0.00    +0.000 A 
ATOM     15  F   UNL     1      -3.542  15.686  23.799  0.00  0.00    +0.000 F 
ATOM     16  C   UNL     1      -3.450  13.325  23.661  0.00  0.00    +0.000 A 
ATOM     17  F   UNL     1      -4.715  13.226  24.092  0.00  0.00    +0.000 F 
ATOM     18  C   UNL     1      -2.740  12.173  23.361  0.00  0.00    +0.000 A 
ENDBRANCH   8  11
ENDBRANCH   1   9
BRANCH   4  19
ATOM     19  N   UNL     1       2.979   6.989  18.833  0.00  0.00    +0.000 N 
ATOM     20  H   UNL     1       3.907   7.291  19.148  0.00  0.00    +0.000 HD
BRANCH  19  21
ATOM     21  C   UNL     1       2.937   5.550  18.928  0.00  0.00    +0.000 A 
ATOM     22  C   UNL     1       2.271   5.001  20.054  0.00  0.00    +0.000 A 
ATOM     23  C   UNL     1       2.412   3.665  20.361  0.00  0.00    +0.000 A 
ATOM     24  N   UNL     1       3.348   2.904  19.789  0.00  0.00    +0.000 NA
ATOM     25  C   UNL     1       4.113   3.540  18.882  0.00  0.00    +0.000 A 
ATOM     26  N   UNL     1       5.529   3.483  19.160  0.00  0.00    +0.000 N 
ATOM     27  C   UNL     1       6.190   4.717  18.964  0.00  0.00    +0.000 A 
ATOM     28  O   UNL     1       6.784   5.365  19.800  0.00  0.00    +0.000 OA
ATOM     29  C   UNL     1       6.040   5.223  17.569  0.00  0.00    +0.000 A 
ATOM     30  C   UNL     1       7.196   5.283  16.785  0.00  0.00    +0.000 A 
ATOM     31  C   UNL     1       7.124   4.789  15.494  0.00  0.00    +0.000 A 
ATOM     32  C   UNL     1       5.911   4.270  15.033  0.00  0.00    +0.000 A 
ATOM     33  C   UNL     1       4.728   4.380  15.805  0.00  0.00    +0.000 A 
ATOM     34  C   UNL     1       4.752   4.961  17.091  0.00  0.00    +0.000 A 
ATOM     35  C   UNL     1       3.755   4.694  18.167  0.00  0.00    +0.000 A 
ATOM     36  H   UNL     1       5.884   2.757  18.548  0.00  0.00    +0.000 HD
ENDBRANCH  19  21
ENDBRANCH   4  19
TORSDOF 4
ENDMDL
MODEL 5
REMARK VINA RESULT:      -9.8      1.172      1.298
REMARK  Name = 
REMARK  4 active torsions:
REMARK  status: ('A' for Active; 'I' for Inactive)
REMARK    1  A    between atoms: C_2  and  C_26
REMARK    2  A    between atoms: N_3  and  C_4
REMARK    3  A    between atoms: C_7  and  N_8
REMARK    4  A    between atoms: N_8  and  C_9
REMARK                            x       y       z     vdW  Elec       q    Type
REMARK                         _______ _______ _______ _____ _____    ______ ____
ROOT
ATOM      1  C   UNL     1       0.924  10.022  19.853  0.00  0.00    +0.000 A 
ATOM      2  C   UNL     1       1.368  10.263  18.550  0.00  0.00    +0.000 A 
ATOM      3  C   UNL     1       2.048   9.266  17.818  0.00  0.00    +0.000 A 
ATOM      4  C   UNL     1       2.306   8.016  18.394  0.00  0.00    +0.000 A 
ATOM      5  C   UNL     1       1.888   7.809  19.716  0.00  0.00    +0.000 A 
ATOM      6  C   UNL     1       1.237   8.801  20.447  0.00  0.00    +0.000 A 
ENDROOT
BRANCH   1   9
ATOM      7  O   UNL     1      -1.633  11.310  19.130  0.00  0.00    +0.000 OA
ATOM      8  C   UNL     1      -1.093  11.421  20.240  0.00  0.00    +0.000 C 
ATOM      9  N   UNL     1       0.121  10.901  20.609  0.00  0.00    +0.000 N 
ATOM     10  H   UNL     1       0.394  11.004  21.584  0.00  0.00    +0.000 HD
BRANCH   8  11
ATOM     11  C   UNL     1      -1.871  12.149  21.283  0.00  0.00    +0.000 A 
ATOM     12  C   UNL     1      -1.396  12.315  22.593  0.00  0.00    +0.000 A 
ATOM     13  C   UNL     1      -2.157  13.036  23.517  0.00  0.00    +0.000 A 
ATOM     14  C   UNL     1      -3.377  13.586  23.134  0.00  0.00    +0.000 A 
ATOM     15  F   UNL     1      -4.092  14.278  24.029  0.00  0.00    +0.000 F 
ATOM     16  C   UNL     1      -3.844  13.426  21.835  0.00  0.00    +0.000 A 
ATOM     17  F   UNL     1      -5.015  13.964  21.468  0.00  0.00    +0.000 F 
ATOM     18  C   UNL     1      -3.101  12.711  20.909  0.00  0.00    +0.000 A 
ENDBRANCH   8  11
ENDBRANCH   1   9
BRANCH   4  19
ATOM     19  N   UNL     1       2.909   6.937  17.666  0.00  0.00    +0.000 N 
ATOM     20  H   UNL     1       3.156   7.278  16.731  0.00  0.00    +0.000 HD
BRANCH  19  21
ATOM     21  C   UNL     1       4.045   6.207  18.174  0.00  0.00    +0.000 A 
ATOM     22  C   UNL     1       5.278   6.386  17.497  0.00  0.00    +0.000 A 
ATOM     23  C   UNL     1       6.336   5.537  17.743  0.00  0.00    +0.000 A 
ATOM     24  N   UNL     1       6.182   4.393  18.412  0.00  0.00    +0.000 NA
ATOM     25  C   UNL     1       4.927   4.157  18.841  0.00  0.00    +0.000 A 
ATOM     26  N   UNL     1       4.373   2.906  18.380  0.00  0.00    +0.000 N 
ATOM     27  C   UNL     1       3.032   3.013  17.944  0.00  0.00    +0.000 A 
ATOM     28  O   UNL     1       2.609   2.782  16.832  0.00  0.00    +0.000 OA
ATOM     29  C   UNL     1       2.128   3.523  19.016  0.00  0.00    +0.000 A 
ATOM     30  C   UNL     1       1.158   2.642  19.504  0.00  0.00    +0.000 A 
ATOM     31  C   UNL     1       1.006   2.550  20.877  0.00  0.00    +0.000 A 
ATOM     32  C   UNL     1       1.809   3.342  21.703  0.00  0.00    +0.000 A 
ATOM     33  C   UNL     1       2.660   4.337  21.160  0.00  0.00    +0.000 A 
ATOM     34  C   UNL     1       2.770   4.515  19.765  0.00  0.00    +0.000 A 
ATOM     35  C   UNL     1       3.940   5.127  19.071  0.00  0.00    +0.000 A 
ATOM     36  H   UNL     1       4.469   2.274  19.168  0.00  0.00    +0.000 HD
ENDBRANCH  19  21
ENDBRANCH   4  19
TORSDOF 4
ENDMDL
MODEL 6
REMARK VINA RESULT:      -9.8      3.204      4.698
REMARK  Name = 
REMARK  4 active torsions:
REMARK  status: ('A' for Active; 'I' for Inactive)
REMARK    1  A    between atoms: C_2  and  C_26
REMARK    2  A    between atoms: N_3  and  C_4
REMARK    3  A    between atoms: C_7  and  N_8
REMARK    4  A    between atoms: N_8  and  C_9
REMARK                            x       y       z     vdW  Elec       q    Type
REMARK                         _______ _______ _______ _____ _____    ______ ____
ROOT
ATOM      1  C   UNL     1       1.064  10.189  19.456  0.00  0.00    +0.000 A 
ATOM      2  C   UNL     1       0.871   9.491  20.651  0.00  0.00    +0.000 A 
ATOM      3  C   UNL     1       1.333   8.164  20.799  0.00  0.00    +0.000 A 
ATOM      4  C   UNL     1       1.981   7.517  19.740  0.00  0.00    +0.000 A 
ATOM      5  C   UNL     1       2.127   8.221  18.537  0.00  0.00    +0.000 A 
ATOM      6  C   UNL     1       1.650   9.522  18.382  0.00  0.00    +0.000 A 
ENDROOT
BRANCH   1   9
ATOM      7  O   UNL     1       1.896  12.535  21.044  0.00  0.00    +0.000 OA
ATOM      8  C   UNL     1       1.232  12.607  20.000  0.00  0.00    +0.000 C 
ATOM      9  N   UNL     1       0.763  11.553  19.259  0.00  0.00    +0.000 N 
ATOM     10  H   UNL     1       0.304  11.771  18.378  0.00  0.00    +0.000 HD
BRANCH   8  11
ATOM     11  C   UNL     1       0.965  13.981  19.481  0.00  0.00    +0.000 A 
ATOM     12  C   UNL     1      -0.314  14.556  19.507  0.00  0.00    +0.000 A 
ATOM     13  C   UNL     1      -0.494  15.859  19.036  0.00  0.00    +0.000 A 
ATOM     14  C   UNL     1       0.593  16.578  18.547  0.00  0.00    +0.000 A 
ATOM     15  F   UNL     1       0.405  17.827  18.104  0.00  0.00    +0.000 F 
ATOM     16  C   UNL     1       1.860  16.009  18.526  0.00  0.00    +0.000 A 
ATOM     17  F   UNL     1       2.906  16.707  18.063  0.00  0.00    +0.000 F 
ATOM     18  C   UNL     1       2.054  14.716  18.988  0.00  0.00    +0.000 A 
ENDBRANCH   8  11
ENDBRANCH   1   9
BRANCH   4  19
ATOM     19  N   UNL     1       2.551   6.207  19.865  0.00  0.00    +0.000 N 
ATOM     20  H   UNL     1       2.364   5.864  20.814  0.00  0.00    +0.000 HD
BRANCH  19  21
ATOM     21  C   UNL     1       2.234   5.139  18.949  0.00  0.00    +0.000 A 
ATOM     22  C   UNL     1       1.125   4.318  19.280  0.00  0.00    +0.000 A 
ATOM     23  C   UNL     1       0.917   3.129  18.614  0.00  0.00    +0.000 A 
ATOM     24  N   UNL     1       1.852   2.586  17.831  0.00  0.00    +0.000 NA
ATOM     25  C   UNL     1       2.988   3.302  17.731  0.00  0.00    +0.000 A 
ATOM     26  N   UNL     1       4.177   2.576  18.111  0.00  0.00    +0.000 N 
ATOM     27  C   UNL     1       5.064   3.332  18.912  0.00  0.00    +0.000 A 
ATOM     28  O   UNL     1       5.419   3.077  20.043  0.00  0.00    +0.000 OA
ATOM     29  C   UNL     1       5.514   4.582  18.232  0.00  0.00    +0.000 A 
ATOM     30  C   UNL     1       6.866   4.670  17.890  0.00  0.00    +0.000 A 
ATOM     31  C   UNL     1       7.180   5.115  16.617  0.00  0.00    +0.000 A 
ATOM     32  C   UNL     1       6.144   5.465  15.746  0.00  0.00    +0.000 A 
ATOM     33  C   UNL     1       4.800   5.515  16.191  0.00  0.00    +0.000 A 
ATOM     34  C   UNL     1       4.459   5.152  17.512  0.00  0.00    +0.000 A 
ATOM     35  C   UNL     1       3.112   4.683  17.948  0.00  0.00    +0.000 A 
ATOM     36  H   UNL     1       4.600   2.294  17.233  0.00  0.00    +0.000 HD
ENDBRANCH  19  21
ENDBRANCH   4  19
TORSDOF 4
ENDMDL
MODEL 7
REMARK VINA RESULT:      -9.7      3.253      4.456
REMARK  Name = 
REMARK  4 active torsions:
REMARK  status: ('A' for Active; 'I' for Inactive)
REMARK    1  A    between atoms: C_2  and  C_26
REMARK    2  A    between atoms: N_3  and  C_4
REMARK    3  A    between atoms: C_7  and  N_8
REMARK    4  A    between atoms: N_8  and  C_9
REMARK                            x       y       z     vdW  Elec       q    Type
REMARK                         _______ _______ _______ _____ _____    ______ ____
ROOT
ATOM      1  C   UNL     1      -0.081   9.912  18.894  0.00  0.00    +0.000 A 
ATOM      2  C   UNL     1       0.668   9.589  17.758  0.00  0.00    +0.000 A 
ATOM      3  C   UNL     1       1.773   8.715  17.842  0.00  0.00    +0.000 A 
ATOM      4  C   UNL     1       2.151   8.166  19.074  0.00  0.00    +0.000 A 
ATOM      5  C   UNL     1       1.412   8.536  20.206  0.00  0.00    +0.000 A 
ATOM      6  C   UNL     1       0.335   9.418  20.128  0.00  0.00    +0.000 A 
ENDROOT
BRANCH   1   9
ATOM      7  O   UNL     1      -2.097  10.200  16.755  0.00  0.00    +0.000 OA
ATOM      8  C   UNL     1      -2.206  10.708  17.882  0.00  0.00    +0.000 C 
ATOM      9  N   UNL     1      -1.275  10.662  18.888  0.00  0.00    +0.000 N 
ATOM     10  H   UNL     1      -1.544  11.053  19.787  0.00  0.00    +0.000 HD
BRANCH   8  11
ATOM     11  C   UNL     1      -3.500  11.388  18.176  0.00  0.00    +0.000 A 
ATOM     12  C   UNL     1      -4.598  11.319  17.305  0.00  0.00    +0.000 A 
ATOM     13  C   UNL     1      -5.795  11.950  17.652  0.00  0.00    +0.000 A 
ATOM     14  C   UNL     1      -5.894  12.640  18.857  0.00  0.00    +0.000 A 
ATOM     15  F   UNL     1      -7.049  13.235  19.178  0.00  0.00    +0.000 F 
ATOM     16  C   UNL     1      -4.808  12.703  19.722  0.00  0.00    +0.000 A 
ATOM     17  F   UNL     1      -4.908  13.360  20.885  0.00  0.00    +0.000 F 
ATOM     18  C   UNL     1      -3.612  12.084  19.389  0.00  0.00    +0.000 A 
ENDBRANCH   8  11
ENDBRANCH   1   9
BRANCH   4  19
ATOM     19  N   UNL     1       3.205   7.202  19.202  0.00  0.00    +0.000 N 
ATOM     20  H   UNL     1       3.743   7.424  20.047  0.00  0.00    +0.000 HD
BRANCH  19  21
ATOM     21  C   UNL     1       2.951   5.782  19.213  0.00  0.00    +0.000 A 
ATOM     22  C   UNL     1       2.233   5.267  20.322  0.00  0.00    +0.000 A 
ATOM     23  C   UNL     1       2.180   3.908  20.545  0.00  0.00    +0.000 A 
ATOM     24  N   UNL     1       2.981   3.055  19.903  0.00  0.00    +0.000 NA
ATOM     25  C   UNL     1       3.814   3.627  19.014  0.00  0.00    +0.000 A 
ATOM     26  N   UNL     1       5.211   3.345  19.249  0.00  0.00    +0.000 N 
ATOM     27  C   UNL     1       6.044   4.478  19.108  0.00  0.00    +0.000 A 
ATOM     28  O   UNL     1       6.744   4.977  19.964  0.00  0.00    +0.000 OA
ATOM     29  C   UNL     1       5.945   5.088  17.750  0.00  0.00    +0.000 A 
ATOM     30  C   UNL     1       7.082   5.026  16.939  0.00  0.00    +0.000 A 
ATOM     31  C   UNL     1       6.913   4.630  15.623  0.00  0.00    +0.000 A 
ATOM     32  C   UNL     1       5.627   4.325  15.166  0.00  0.00    +0.000 A 
ATOM     33  C   UNL     1       4.488   4.560  15.976  0.00  0.00    +0.000 A 
ATOM     34  C   UNL     1       4.623   5.049  17.293  0.00  0.00    +0.000 A 
ATOM     35  C   UNL     1       3.618   4.864  18.380  0.00  0.00    +0.000 A 
ATOM     36  H   UNL     1       5.443   2.614  18.584  0.00  0.00    +0.000 HD
ENDBRANCH  19  21
ENDBRANCH   4  19
TORSDOF 4
ENDMDL
MODEL 8
REMARK VINA RESULT:      -9.7      0.849      1.199
REMARK  Name = 
REMARK  4 active torsions:
REMARK  status: ('A' for Active; 'I' for Inactive)
REMARK    1  A    between atoms: C_2  and  C_26
REMARK    2  A    between atoms: N_3  and  C_4
REMARK    3  A    between atoms: C_7  and  N_8
REMARK    4  A    between atoms: N_8  and  C_9
REMARK                            x       y       z     vdW  Elec       q    Type
REMARK                         _______ _______ _______ _____ _____    ______ ____
ROOT
ATOM      1  C   UNL     1       0.975   9.993  20.170  0.00  0.00    +0.000 A 
ATOM      2  C   UNL     1       1.218   8.706  20.658  0.00  0.00    +0.000 A 
ATOM      3  C   UNL     1       1.838   7.728  19.850  0.00  0.00    +0.000 A 
ATOM      4  C   UNL     1       2.206   8.027  18.533  0.00  0.00    +0.000 A 
ATOM      5  C   UNL     1       1.915   9.310  18.049  0.00  0.00    +0.000 A 
ATOM      6  C   UNL     1       1.282  10.269  18.839  0.00  0.00    +0.000 A 
ENDROOT
BRANCH   1   9
ATOM      7  O   UNL     1      -1.660  11.322  20.070  0.00  0.00    +0.000 OA
ATOM      8  C   UNL     1      -0.772  11.607  20.887  0.00  0.00    +0.000 C 
ATOM      9  N   UNL     1       0.488  11.071  20.939  0.00  0.00    +0.000 N 
ATOM     10  H   UNL     1       1.078  11.342  21.721  0.00  0.00    +0.000 HD
BRANCH   8  11
ATOM     11  C   UNL     1      -1.140  12.593  21.945  0.00  0.00    +0.000 A 
ATOM     12  C   UNL     1      -0.378  13.744  22.193  0.00  0.00    +0.000 A 
ATOM     13  C   UNL     1      -0.792  14.647  23.176  0.00  0.00    +0.000 A 
ATOM     14  C   UNL     1      -1.956  14.403  23.898  0.00  0.00    +0.000 A 
ATOM     15  F   UNL     1      -2.343  15.280  24.833  0.00  0.00    +0.000 F 
ATOM     16  C   UNL     1      -2.714  13.266  23.647  0.00  0.00    +0.000 A 
ATOM     17  F   UNL     1      -3.839  13.037  24.338  0.00  0.00    +0.000 F 
ATOM     18  C   UNL     1      -2.314  12.359  22.678  0.00  0.00    +0.000 A 
ENDBRANCH   8  11
ENDBRANCH   1   9
BRANCH   4  19
ATOM     19  N   UNL     1       2.921   7.104  17.699  0.00  0.00    +0.000 N 
ATOM     20  H   UNL     1       3.232   7.604  16.859  0.00  0.00    +0.000 HD
BRANCH  19  21
ATOM     21  C   UNL     1       4.042   6.337  18.186  0.00  0.00    +0.000 A 
ATOM     22  C   UNL     1       5.287   6.535  17.535  0.00  0.00    +0.000 A 
ATOM     23  C   UNL     1       6.331   5.663  17.753  0.00  0.00    +0.000 A 
ATOM     24  N   UNL     1       6.156   4.490  18.364  0.00  0.00    +0.000 NA
ATOM     25  C   UNL     1       4.893   4.248  18.765  0.00  0.00    +0.000 A 
ATOM     26  N   UNL     1       4.331   3.027  18.238  0.00  0.00    +0.000 N 
ATOM     27  C   UNL     1       2.998   3.170  17.790  0.00  0.00    +0.000 A 
ATOM     28  O   UNL     1       2.587   2.997  16.663  0.00  0.00    +0.000 OA
ATOM     29  C   UNL     1       2.085   3.639  18.874  0.00  0.00    +0.000 A 
ATOM     30  C   UNL     1       1.099   2.747  19.307  0.00  0.00    +0.000 A 
ATOM     31  C   UNL     1       0.927   2.592  20.671  0.00  0.00    +0.000 A 
ATOM     32  C   UNL     1       1.728   3.334  21.545  0.00  0.00    +0.000 A 
ATOM     33  C   UNL     1       2.598   4.343  21.061  0.00  0.00    +0.000 A 
ATOM     34  C   UNL     1       2.728   4.587  19.677  0.00  0.00    +0.000 A 
ATOM     35  C   UNL     1       3.913   5.218  19.029  0.00  0.00    +0.000 A 
ATOM     36  H   UNL     1       4.410   2.357  18.996  0.00  0.00    +0.000 HD
ENDBRANCH  19  21
ENDBRANCH   4  19
TORSDOF 4
ENDMDL
MODEL 9
REMARK VINA RESULT:      -9.7      3.309      4.415
REMARK  Name = 
REMARK  4 active torsions:
REMARK  status: ('A' for Active; 'I' for Inactive)
REMARK    1  A    between atoms: C_2  and  C_26
REMARK    2  A    between atoms: N_3  and  C_4
REMARK    3  A    between atoms: C_7  and  N_8
REMARK    4  A    between atoms: N_8  and  C_9
REMARK                            x       y       z     vdW  Elec       q    Type
REMARK                         _______ _______ _______ _____ _____    ______ ____
ROOT
ATOM      1  C   UNL     1      -0.147  10.008  19.105  0.00  0.00    +0.000 A 
ATOM      2  C   UNL     1       0.417   9.682  17.869  0.00  0.00    +0.000 A 
ATOM      3  C   UNL     1       1.525   8.811  17.783  0.00  0.00    +0.000 A 
ATOM      4  C   UNL     1       2.092   8.270  18.943  0.00  0.00    +0.000 A 
ATOM      5  C   UNL     1       1.537   8.643  20.176  0.00  0.00    +0.000 A 
ATOM      6  C   UNL     1       0.458   9.521  20.262  0.00  0.00    +0.000 A 
ENDROOT
BRANCH   1   9
ATOM      7  O   UNL     1      -1.997  11.089  17.073  0.00  0.00    +0.000 OA
ATOM      8  C   UNL     1      -2.184  11.178  18.296  0.00  0.00    +0.000 C 
ATOM      9  N   UNL     1      -1.331  10.754  19.282  0.00  0.00    +0.000 N 
ATOM     10  H   UNL     1      -1.661  10.818  20.242  0.00  0.00    +0.000 HD
BRANCH   8  11
ATOM     11  C   UNL     1      -3.490  11.758  18.723  0.00  0.00    +0.000 A 
ATOM     12  C   UNL     1      -3.634  12.480  19.917  0.00  0.00    +0.000 A 
ATOM     13  C   UNL     1      -4.877  13.026  20.247  0.00  0.00    +0.000 A 
ATOM     14  C   UNL     1      -5.961  12.856  19.392  0.00  0.00    +0.000 A 
ATOM     15  F   UNL     1      -7.144  13.390  19.719  0.00  0.00    +0.000 F 
ATOM     16  C   UNL     1      -5.816  12.145  18.206  0.00  0.00    +0.000 A 
ATOM     17  F   UNL     1      -6.859  11.989  17.380  0.00  0.00    +0.000 F 
ATOM     18  C   UNL     1      -4.590  11.594  17.867  0.00  0.00    +0.000 A 
ENDBRANCH   8  11
ENDBRANCH   1   9
BRANCH   4  19
ATOM     19  N   UNL     1       3.157   7.309  18.910  0.00  0.00    +0.000 N 
ATOM     20  H   UNL     1       3.836   7.557  19.639  0.00  0.00    +0.000 HD
BRANCH  19  21
ATOM     21  C   UNL     1       2.916   5.890  19.007  0.00  0.00    +0.000 A 
ATOM     22  C   UNL     1       2.176   5.441  20.130  0.00  0.00    +0.000 A 
ATOM     23  C   UNL     1       2.130   4.098  20.441  0.00  0.00    +0.000 A 
ATOM     24  N   UNL     1       2.954   3.215  19.875  0.00  0.00    +0.000 NA
ATOM     25  C   UNL     1       3.804   3.737  18.970  0.00  0.00    +0.000 A 
ATOM     26  N   UNL     1       5.197   3.486  19.257  0.00  0.00    +0.000 N 
ATOM     27  C   UNL     1       6.023   4.616  19.062  0.00  0.00    +0.000 A 
ATOM     28  O   UNL     1       6.696   5.178  19.900  0.00  0.00    +0.000 OA
ATOM     29  C   UNL     1       5.951   5.135  17.665  0.00  0.00    +0.000 A 
ATOM     30  C   UNL     1       7.108   5.033  16.887  0.00  0.00    +0.000 A 
ATOM     31  C   UNL     1       6.976   4.551  15.596  0.00  0.00    +0.000 A 
ATOM     32  C   UNL     1       5.704   4.203  15.130  0.00  0.00    +0.000 A 
ATOM     33  C   UNL     1       4.544   4.477  15.895  0.00  0.00    +0.000 A 
ATOM     34  C   UNL     1       4.642   5.052  17.180  0.00  0.00    +0.000 A 
ATOM     35  C   UNL     1       3.612   4.928  18.252  0.00  0.00    +0.000 A 
ATOM     36  H   UNL     1       5.452   2.716  18.647  0.00  0.00    +0.000 HD
ENDBRANCH  19  21
ENDBRANCH   4  19
TORSDOF 4
ENDMDL
