MODEL 1
REMARK VINA RESULT:      -7.9      0.000      0.000
REMARK  Name = 
REMARK  10 active torsions:
REMARK  status: ('A' for Active; 'I' for Inactive)
REMARK    1  A    between atoms: C_1  and  C_2
REMARK    2  A    between atoms: C_2  and  O_3
REMARK    3  A    between atoms: O_3  and  C_4
REMARK    4  A    between atoms: C_7  and  O_8
REMARK    5  A    between atoms: O_8  and  C_9
REMARK    6  A    between atoms: C_9  and  C_10
REMARK    7  A    between atoms: C_14  and  O_15
REMARK    8  A    between atoms: O_15  and  C_16
REMARK    9  A    between atoms: C_16  and  C_17
REMARK   10  A    between atoms: C_23  and  C_25
REMARK                            x       y       z     vdW  Elec       q    Type
REMARK                         _______ _______ _______ _____ _____    ______ ____
ROOT
ATOM      1  C   UNL     1       6.345   6.148  17.122  0.00  0.00    +0.000 C 
ATOM      2  C   UNL     1       7.165   7.281  17.709  0.00  0.00    +0.000 A 
ATOM      3  C   UNL     1       7.273   8.521  17.068  0.00  0.00    +0.000 A 
ATOM      4  C   UNL     1       8.134   9.501  17.573  0.00  0.00    +0.000 A 
ATOM      5  C   UNL     1       8.908   9.250  18.707  0.00  0.00    +0.000 A 
ATOM      6  C   UNL     1       8.764   8.032  19.373  0.00  0.00    +0.000 A 
ATOM      7  C   UNL     1       7.873   7.058  18.899  0.00  0.00    +0.000 A 
ATOM      8  C   UNL     1       7.691   5.771  19.660  0.00  0.00    +0.000 C 
ATOM      9  C   UNL     1       6.472   4.910  19.270  0.00  0.00    +0.000 C 
ATOM     10  N   UNL     1       5.620   5.452  18.204  0.00  0.00    +0.000 N 
ATOM     11  C   UNL     1       4.348   4.981  17.874  0.00  0.00    +0.000 C 
ATOM     12  O   UNL     1       3.762   5.297  16.832  0.00  0.00    +0.000 OA
ENDROOT
BRANCH  11  13
ATOM     13  C   UNL     1       3.609   4.038  18.758  0.00  0.00    +0.000 A 
ATOM     14  C   UNL     1       3.270   2.770  18.247  0.00  0.00    +0.000 A 
ATOM     15  C   UNL     1       2.515   1.875  19.010  0.00  0.00    +0.000 A 
ATOM     16  C   UNL     1       2.110   2.236  20.292  0.00  0.00    +0.000 A 
ATOM     17  C   UNL     1       2.429   3.498  20.783  0.00  0.00    +0.000 A 
ATOM     18  F   UNL     1       2.040   3.841  22.017  0.00  0.00    +0.000 F 
ATOM     19  C   UNL     1       3.140   4.413  20.017  0.00  0.00    +0.000 A 
ENDBRANCH  11  13
BRANCH   1  20
ATOM     20  C   UNL     1       7.281   5.183  16.330  0.00  0.00    +0.000 C 
BRANCH  20  21
ATOM     21  O   UNL     1       7.438   5.659  14.991  0.00  0.00    +0.000 OA
BRANCH  21  25
ATOM     22  C   UNL     1       5.611   3.399  12.011  0.00  0.00    +0.000 A 
ATOM     23  C   UNL     1       5.083   3.494  13.298  0.00  0.00    +0.000 A 
ATOM     24  C   UNL     1       5.741   4.243  14.274  0.00  0.00    +0.000 A 
ATOM     25  C   UNL     1       6.950   4.876  13.986  0.00  0.00    +0.000 A 
ATOM     26  C   UNL     1       7.512   4.733  12.718  0.00  0.00    +0.000 A 
ATOM     27  C   UNL     1       6.844   3.990  11.732  0.00  0.00    +0.000 A 
BRANCH  22  28
ATOM     28  O   UNL     1       4.843   2.706  11.119  0.00  0.00    +0.000 OA
BRANCH  28  30
ATOM     29  C   UNL     1       3.197   3.845   9.823  0.00  0.00    +0.000 C 
ATOM     30  C   UNL     1       3.454   3.041  11.087  0.00  0.00    +0.000 C 
ENDBRANCH  28  30
ENDBRANCH  22  28
ENDBRANCH  21  25
ENDBRANCH  20  21
ENDBRANCH   1  20
BRANCH   5  31
ATOM     31  O   UNL     1       9.757  10.261  19.070  0.00  0.00    +0.000 OA
BRANCH  31  32
ATOM     32  C   UNL     1       9.887  11.347  18.151  0.00  0.00    +0.000 C 
ATOM     33  C   UNL     1      11.354  11.720  18.046  0.00  0.00    +0.000 C 
ENDBRANCH  31  32
ENDBRANCH   5  31
TORSDOF 8
ENDMDL
MODEL 2
REMARK VINA RESULT:      -7.3      8.345     11.389
REMARK  Name = 
REMARK  10 active torsions:
REMARK  status: ('A' for Active; 'I' for Inactive)
REMARK    1  A    between atoms: C_1  and  C_2
REMARK    2  A    between atoms: C_2  and  O_3
REMARK    3  A    between atoms: O_3  and  C_4
REMARK    4  A    between atoms: C_7  and  O_8
REMARK    5  A    between atoms: O_8  and  C_9
REMARK    6  A    between atoms: C_9  and  C_10
REMARK    7  A    between atoms: C_14  and  O_15
REMARK    8  A    between atoms: O_15  and  C_16
REMARK    9  A    between atoms: C_16  and  C_17
REMARK   10  A    between atoms: C_23  and  C_25
REMARK                            x       y       z     vdW  Elec       q    Type
REMARK                         _______ _______ _______ _____ _____    ______ ____
ROOT
ATOM      1  C   UNL     1       0.928  10.476  18.583  0.00  0.00    +0.000 C 
ATOM      2  C   UNL     1       1.519   9.123  18.931  0.00  0.00    +0.000 A 
ATOM      3  C   UNL     1       2.147   8.324  17.967  0.00  0.00    +0.000 A 
ATOM      4  C   UNL     1       2.571   7.032  18.295  0.00  0.00    +0.000 A 
ATOM      5  C   UNL     1       2.360   6.517  19.574  0.00  0.00    +0.000 A 
ATOM      6  C   UNL     1       1.779   7.331  20.547  0.00  0.00    +0.000 A 
ATOM      7  C   UNL     1       1.386   8.643  20.242  0.00  0.00    +0.000 A 
ATOM      8  C   UNL     1       0.809   9.525  21.317  0.00  0.00    +0.000 C 
ATOM      9  C   UNL     1       0.716  11.030  20.994  0.00  0.00    +0.000 C 
ATOM     10  N   UNL     1       1.212  11.433  19.672  0.00  0.00    +0.000 N 
ATOM     11  C   UNL     1       1.461  12.748  19.272  0.00  0.00    +0.000 C 
ATOM     12  O   UNL     1       1.648  13.068  18.093  0.00  0.00    +0.000 OA
ENDROOT
BRANCH  11  13
ATOM     13  C   UNL     1       1.498  13.869  20.250  0.00  0.00    +0.000 A 
ATOM     14  C   UNL     1       0.412  14.765  20.279  0.00  0.00    +0.000 A 
ATOM     15  C   UNL     1       0.430  15.876  21.129  0.00  0.00    +0.000 A 
ATOM     16  C   UNL     1       1.523  16.085  21.964  0.00  0.00    +0.000 A 
ATOM     17  C   UNL     1       2.603  15.208  21.915  0.00  0.00    +0.000 A 
ATOM     18  F   UNL     1       3.652  15.411  22.721  0.00  0.00    +0.000 F 
ATOM     19  C   UNL     1       2.617  14.127  21.042  0.00  0.00    +0.000 A 
ENDBRANCH  11  13
BRANCH   1  20
ATOM     20  C   UNL     1      -0.602  10.325  18.322  0.00  0.00    +0.000 C 
BRANCH  20  21
ATOM     21  O   UNL     1      -1.164  11.602  18.010  0.00  0.00    +0.000 OA
BRANCH  21  25
ATOM     22  C   UNL     1      -4.936  12.225  19.656  0.00  0.00    +0.000 A 
ATOM     23  C   UNL     1      -4.762  11.648  18.399  0.00  0.00    +0.000 A 
ATOM     24  C   UNL     1      -3.480  11.480  17.874  0.00  0.00    +0.000 A 
ATOM     25  C   UNL     1      -2.362  11.917  18.583  0.00  0.00    +0.000 A 
ATOM     26  C   UNL     1      -2.535  12.551  19.813  0.00  0.00    +0.000 A 
ATOM     27  C   UNL     1      -3.824  12.708  20.347  0.00  0.00    +0.000 A 
BRANCH  22  28
ATOM     28  O   UNL     1      -6.227  12.269  20.101  0.00  0.00    +0.000 OA
BRANCH  28  30
ATOM     29  C   UNL     1      -7.632  10.409  20.604  0.00  0.00    +0.000 C 
ATOM     30  C   UNL     1      -7.130  11.335  19.508  0.00  0.00    +0.000 C 
ENDBRANCH  28  30
ENDBRANCH  22  28
ENDBRANCH  21  25
ENDBRANCH  20  21
ENDBRANCH   1  20
BRANCH   5  31
ATOM     31  O   UNL     1       2.763   5.222  19.756  0.00  0.00    +0.000 OA
BRANCH  31  32
ATOM     32  C   UNL     1       2.260   4.552  20.913  0.00  0.00    +0.000 C 
ATOM     33  C   UNL     1       1.077   3.695  20.501  0.00  0.00    +0.000 C 
ENDBRANCH  31  32
ENDBRANCH   5  31
TORSDOF 8
ENDMDL
MODEL 3
REMARK VINA RESULT:      -7.3      0.917      1.491
REMARK  Name = 
REMARK  10 active torsions:
REMARK  status: ('A' for Active; 'I' for Inactive)
REMARK    1  A    between atoms: C_1  and  C_2
REMARK    2  A    between atoms: C_2  and  O_3
REMARK    3  A    between atoms: O_3  and  C_4
REMARK    4  A    between atoms: C_7  and  O_8
REMARK    5  A    between atoms: O_8  and  C_9
REMARK    6  A    between atoms: C_9  and  C_10
REMARK    7  A    between atoms: C_14  and  O_15
REMARK    8  A    between atoms: O_15  and  C_16
REMARK    9  A    between atoms: C_16  and  C_17
REMARK   10  A    between atoms: C_23  and  C_25
REMARK                            x       y       z     vdW  Elec       q    Type
REMARK                         _______ _______ _______ _____ _____    ______ ____
ROOT
ATOM      1  C   UNL     1       6.368   6.246  17.104  0.00  0.00    +0.000 C 
ATOM      2  C   UNL     1       7.201   7.357  17.713  0.00  0.00    +0.000 A 
ATOM      3  C   UNL     1       7.307   8.615  17.105  0.00  0.00    +0.000 A 
ATOM      4  C   UNL     1       8.179   9.576  17.627  0.00  0.00    +0.000 A 
ATOM      5  C   UNL     1       8.967   9.290  18.744  0.00  0.00    +0.000 A 
ATOM      6  C   UNL     1       8.824   8.055  19.377  0.00  0.00    +0.000 A 
ATOM      7  C   UNL     1       7.923   7.098  18.887  0.00  0.00    +0.000 A 
ATOM      8  C   UNL     1       7.745   5.791  19.613  0.00  0.00    +0.000 C 
ATOM      9  C   UNL     1       6.517   4.947  19.215  0.00  0.00    +0.000 C 
ATOM     10  N   UNL     1       5.654   5.522  18.175  0.00  0.00    +0.000 N 
ATOM     11  C   UNL     1       4.375   5.066  17.848  0.00  0.00    +0.000 C 
ATOM     12  O   UNL     1       3.778   5.415  16.823  0.00  0.00    +0.000 OA
ENDROOT
BRANCH  11  13
ATOM     13  C   UNL     1       3.642   4.103  18.714  0.00  0.00    +0.000 A 
ATOM     14  C   UNL     1       3.296   2.849  18.173  0.00  0.00    +0.000 A 
ATOM     15  C   UNL     1       2.546   1.936  18.920  0.00  0.00    +0.000 A 
ATOM     16  C   UNL     1       2.155   2.264  20.215  0.00  0.00    +0.000 A 
ATOM     17  C   UNL     1       2.482   3.512  20.736  0.00  0.00    +0.000 A 
ATOM     18  F   UNL     1       2.106   3.823  21.983  0.00  0.00    +0.000 F 
ATOM     19  C   UNL     1       3.187   4.446  19.988  0.00  0.00    +0.000 A 
ENDBRANCH  11  13
BRANCH   1  20
ATOM     20  C   UNL     1       7.289   5.299  16.273  0.00  0.00    +0.000 C 
BRANCH  20  21
ATOM     21  O   UNL     1       7.281   5.704  14.902  0.00  0.00    +0.000 OA
BRANCH  21  25
ATOM     22  C   UNL     1       5.842   2.966  12.117  0.00  0.00    +0.000 A 
ATOM     23  C   UNL     1       7.048   3.642  11.937  0.00  0.00    +0.000 A 
ATOM     24  C   UNL     1       7.481   4.571  12.884  0.00  0.00    +0.000 A 
ATOM     25  C   UNL     1       6.700   4.858  14.002  0.00  0.00    +0.000 A 
ATOM     26  C   UNL     1       5.464   4.231  14.154  0.00  0.00    +0.000 A 
ATOM     27  C   UNL     1       5.034   3.287  13.208  0.00  0.00    +0.000 A 
BRANCH  22  28
ATOM     28  O   UNL     1       5.557   2.026  11.167  0.00  0.00    +0.000 OA
BRANCH  28  30
ATOM     29  C   UNL     1       6.051  -0.304  11.291  0.00  0.00    +0.000 C 
ATOM     30  C   UNL     1       6.581   1.066  10.902  0.00  0.00    +0.000 C 
ENDBRANCH  28  30
ENDBRANCH  22  28
ENDBRANCH  21  25
ENDBRANCH  20  21
ENDBRANCH   1  20
BRANCH   5  31
ATOM     31  O   UNL     1       9.824  10.287  19.124  0.00  0.00    +0.000 OA
BRANCH  31  32
ATOM     32  C   UNL     1       9.687  11.539  18.452  0.00  0.00    +0.000 C 
ATOM     33  C   UNL     1       9.238  12.583  19.458  0.00  0.00    +0.000 C 
ENDBRANCH  31  32
ENDBRANCH   5  31
TORSDOF 8
ENDMDL
MODEL 4
REMARK VINA RESULT:      -7.2      8.236     10.895
REMARK  Name = 
REMARK  10 active torsions:
REMARK  status: ('A' for Active; 'I' for Inactive)
REMARK    1  A    between atoms: C_1  and  C_2
REMARK    2  A    between atoms: C_2  and  O_3
REMARK    3  A    between atoms: O_3  and  C_4
REMARK    4  A    between atoms: C_7  and  O_8
REMARK    5  A    between atoms: O_8  and  C_9
REMARK    6  A    between atoms: C_9  and  C_10
REMARK    7  A    between atoms: C_14  and  O_15
REMARK    8  A    between atoms: O_15  and  C_16
REMARK    9  A    between atoms: C_16  and  C_17
REMARK   10  A    between atoms: C_23  and  C_25
REMARK                            x       y       z     vdW  Elec       q    Type
REMARK                         _______ _______ _______ _____ _____    ______ ____
ROOT
ATOM      1  C   UNL     1       0.925  10.186  18.798  0.00  0.00    +0.000 C 
ATOM      2  C   UNL     1       1.566   8.840  19.075  0.00  0.00    +0.000 A 
ATOM      3  C   UNL     1       2.124   8.065  18.050  0.00  0.00    +0.000 A 
ATOM      4  C   UNL     1       2.597   6.777  18.322  0.00  0.00    +0.000 A 
ATOM      5  C   UNL     1       2.502   6.241  19.608  0.00  0.00    +0.000 A 
ATOM      6  C   UNL     1       1.991   7.032  20.638  0.00  0.00    +0.000 A 
ATOM      7  C   UNL     1       1.551   8.340  20.385  0.00  0.00    +0.000 A 
ATOM      8  C   UNL     1       1.052   9.197  21.518  0.00  0.00    +0.000 C 
ATOM      9  C   UNL     1       0.906  10.704  21.225  0.00  0.00    +0.000 C 
ATOM     10  N   UNL     1       1.283  11.133  19.873  0.00  0.00    +0.000 N 
ATOM     11  C   UNL     1       1.474  12.458  19.473  0.00  0.00    +0.000 C 
ATOM     12  O   UNL     1       1.557  12.797  18.287  0.00  0.00    +0.000 OA
ENDROOT
BRANCH  11  13
ATOM     13  C   UNL     1       1.574  13.567  20.461  0.00  0.00    +0.000 A 
ATOM     14  C   UNL     1       0.413  14.309  20.750  0.00  0.00    +0.000 A 
ATOM     15  C   UNL     1       0.468  15.406  21.616  0.00  0.00    +0.000 A 
ATOM     16  C   UNL     1       1.678  15.753  22.209  0.00  0.00    +0.000 A 
ATOM     17  C   UNL     1       2.826  15.028  21.903  0.00  0.00    +0.000 A 
ATOM     18  F   UNL     1       3.988  15.363  22.477  0.00  0.00    +0.000 F 
ATOM     19  C   UNL     1       2.793  13.966  21.009  0.00  0.00    +0.000 A 
ENDBRANCH  11  13
BRANCH   1  20
ATOM     20  C   UNL     1      -0.619  10.011  18.663  0.00  0.00    +0.000 C 
BRANCH  20  21
ATOM     21  O   UNL     1      -1.018  10.283  17.318  0.00  0.00    +0.000 OA
BRANCH  21  25
ATOM     22  C   UNL     1      -4.880  11.782  16.917  0.00  0.00    +0.000 A 
ATOM     23  C   UNL     1      -4.232  11.724  18.150  0.00  0.00    +0.000 A 
ATOM     24  C   UNL     1      -2.946  11.191  18.243  0.00  0.00    +0.000 A 
ATOM     25  C   UNL     1      -2.308  10.680  17.114  0.00  0.00    +0.000 A 
ATOM     26  C   UNL     1      -2.977  10.679  15.890  0.00  0.00    +0.000 A 
ATOM     27  C   UNL     1      -4.266  11.227  15.794  0.00  0.00    +0.000 A 
BRANCH  22  28
ATOM     28  O   UNL     1      -6.102  12.394  16.932  0.00  0.00    +0.000 OA
BRANCH  28  30
ATOM     29  C   UNL     1      -7.770  13.168  18.450  0.00  0.00    +0.000 C 
ATOM     30  C   UNL     1      -7.016  11.952  17.937  0.00  0.00    +0.000 C 
ENDBRANCH  28  30
ENDBRANCH  22  28
ENDBRANCH  21  25
ENDBRANCH  20  21
ENDBRANCH   1  20
BRANCH   5  31
ATOM     31  O   UNL     1       2.942   4.951  19.736  0.00  0.00    +0.000 OA
BRANCH  31  32
ATOM     32  C   UNL     1       2.097   3.931  19.200  0.00  0.00    +0.000 C 
ATOM     33  C   UNL     1       1.132   3.483  20.282  0.00  0.00    +0.000 C 
ENDBRANCH  31  32
ENDBRANCH   5  31
TORSDOF 8
ENDMDL
MODEL 5
REMARK VINA RESULT:      -7.1      8.509     11.265
REMARK  Name = 
REMARK  10 active torsions:
REMARK  status: ('A' for Active; 'I' for Inactive)
REMARK    1  A    between atoms: C_1  and  C_2
REMARK    2  A    between atoms: C_2  and  O_3
REMARK    3  A    between atoms: O_3  and  C_4
REMARK    4  A    between atoms: C_7  and  O_8
REMARK    5  A    between atoms: O_8  and  C_9
REMARK    6  A    between atoms: C_9  and  C_10
REMARK    7  A    between atoms: C_14  and  O_15
REMARK    8  A    between atoms: O_15  and  C_16
REMARK    9  A    between atoms: C_16  and  C_17
REMARK   10  A    between atoms: C_23  and  C_25
REMARK                            x       y       z     vdW  Elec       q    Type
REMARK                         _______ _______ _______ _____ _____    ______ ____
ROOT
ATOM      1  C   UNL     1       0.855  10.487  18.557  0.00  0.00    +0.000 C 
ATOM      2  C   UNL     1       1.531   9.165  18.870  0.00  0.00    +0.000 A 
ATOM      3  C   UNL     1       2.235   8.449  17.894  0.00  0.00    +0.000 A 
ATOM      4  C   UNL     1       2.741   7.178  18.185  0.00  0.00    +0.000 A 
ATOM      5  C   UNL     1       2.536   6.600  19.439  0.00  0.00    +0.000 A 
ATOM      6  C   UNL     1       1.877   7.334  20.425  0.00  0.00    +0.000 A 
ATOM      7  C   UNL     1       1.400   8.627  20.158  0.00  0.00    +0.000 A 
ATOM      8  C   UNL     1       0.738   9.424  21.250  0.00  0.00    +0.000 C 
ATOM      9  C   UNL     1       0.548  10.931  20.980  0.00  0.00    +0.000 C 
ATOM     10  N   UNL     1       1.046  11.418  19.687  0.00  0.00    +0.000 N 
ATOM     11  C   UNL     1       1.211  12.761  19.343  0.00  0.00    +0.000 C 
ATOM     12  O   UNL     1       1.403  13.139  18.182  0.00  0.00    +0.000 OA
ENDROOT
BRANCH  11  13
ATOM     13  C   UNL     1       1.146  13.844  20.363  0.00  0.00    +0.000 A 
ATOM     14  C   UNL     1      -0.053  14.572  20.488  0.00  0.00    +0.000 A 
ATOM     15  C   UNL     1      -0.142  15.645  21.380  0.00  0.00    +0.000 A 
ATOM     16  C   UNL     1       0.958  15.983  22.161  0.00  0.00    +0.000 A 
ATOM     17  C   UNL     1       2.147  15.273  22.017  0.00  0.00    +0.000 A 
ATOM     18  F   UNL     1       3.203  15.600  22.772  0.00  0.00    +0.000 F 
ATOM     19  C   UNL     1       2.263  14.235  21.102  0.00  0.00    +0.000 A 
ENDBRANCH  11  13
BRANCH   1  20
ATOM     20  C   UNL     1      -0.655  10.240  18.250  0.00  0.00    +0.000 C 
BRANCH  20  21
ATOM     21  O   UNL     1      -1.279  11.475  17.894  0.00  0.00    +0.000 OA
BRANCH  21  25
ATOM     22  C   UNL     1      -5.121  12.364  19.227  0.00  0.00    +0.000 A 
ATOM     23  C   UNL     1      -3.993  12.580  20.018  0.00  0.00    +0.000 A 
ATOM     24  C   UNL     1      -2.725  12.245  19.541  0.00  0.00    +0.000 A 
ATOM     25  C   UNL     1      -2.574  11.659  18.285  0.00  0.00    +0.000 A 
ATOM     26  C   UNL     1      -3.704  11.384  17.516  0.00  0.00    +0.000 A 
ATOM     27  C   UNL     1      -4.979  11.734  17.991  0.00  0.00    +0.000 A 
BRANCH  22  28
ATOM     28  O   UNL     1      -6.298  12.801  19.764  0.00  0.00    +0.000 OA
BRANCH  28  30
ATOM     29  C   UNL     1      -7.575  10.961  20.585  0.00  0.00    +0.000 C 
ATOM     30  C   UNL     1      -7.452  12.005  19.487  0.00  0.00    +0.000 C 
ENDBRANCH  28  30
ENDBRANCH  22  28
ENDBRANCH  21  25
ENDBRANCH  20  21
ENDBRANCH   1  20
BRANCH   5  31
ATOM     31  O   UNL     1       3.025   5.330  19.583  0.00  0.00    +0.000 OA
BRANCH  31  32
ATOM     32  C   UNL     1       4.409   5.140  19.287  0.00  0.00    +0.000 C 
ATOM     33  C   UNL     1       4.692   3.650  19.227  0.00  0.00    +0.000 C 
ENDBRANCH  31  32
ENDBRANCH   5  31
TORSDOF 8
ENDMDL
MODEL 6
REMARK VINA RESULT:      -7.1      8.617     11.258
REMARK  Name = 
REMARK  10 active torsions:
REMARK  status: ('A' for Active; 'I' for Inactive)
REMARK    1  A    between atoms: C_1  and  C_2
REMARK    2  A    between atoms: C_2  and  O_3
REMARK    3  A    between atoms: O_3  and  C_4
REMARK    4  A    between atoms: C_7  and  O_8
REMARK    5  A    between atoms: O_8  and  C_9
REMARK    6  A    between atoms: C_9  and  C_10
REMARK    7  A    between atoms: C_14  and  O_15
REMARK    8  A    between atoms: O_15  and  C_16
REMARK    9  A    between atoms: C_16  and  C_17
REMARK   10  A    between atoms: C_23  and  C_25
REMARK                            x       y       z     vdW  Elec       q    Type
REMARK                         _______ _______ _______ _____ _____    ______ ____
ROOT
ATOM      1  C   UNL     1       0.571  10.468  18.649  0.00  0.00    +0.000 C 
ATOM      2  C   UNL     1       1.356   9.197  18.912  0.00  0.00    +0.000 A 
ATOM      3  C   UNL     1       2.059   8.541  17.893  0.00  0.00    +0.000 A 
ATOM      4  C   UNL     1       2.671   7.309  18.144  0.00  0.00    +0.000 A 
ATOM      5  C   UNL     1       2.573   6.708  19.400  0.00  0.00    +0.000 A 
ATOM      6  C   UNL     1       1.915   7.385  20.427  0.00  0.00    +0.000 A 
ATOM      7  C   UNL     1       1.333   8.641  20.199  0.00  0.00    +0.000 A 
ATOM      8  C   UNL     1       0.672   9.380  21.333  0.00  0.00    +0.000 C 
ATOM      9  C   UNL     1       0.359  10.871  21.089  0.00  0.00    +0.000 C 
ATOM     10  N   UNL     1       0.752  11.402  19.778  0.00  0.00    +0.000 N 
ATOM     11  C   UNL     1       0.801  12.757  19.441  0.00  0.00    +0.000 C 
ATOM     12  O   UNL     1       0.905  13.156  18.276  0.00  0.00    +0.000 OA
ENDROOT
BRANCH  11  13
ATOM     13  C   UNL     1       0.711  13.824  20.474  0.00  0.00    +0.000 A 
ATOM     14  C   UNL     1       1.909  14.339  21.006  0.00  0.00    +0.000 A 
ATOM     15  C   UNL     1       1.880  15.291  22.030  0.00  0.00    +0.000 A 
ATOM     16  C   UNL     1       0.656  15.744  22.514  0.00  0.00    +0.000 A 
ATOM     17  C   UNL     1      -0.524  15.215  21.999  0.00  0.00    +0.000 A 
ATOM     18  F   UNL     1      -1.699  15.654  22.464  0.00  0.00    +0.000 F 
ATOM     19  C   UNL     1      -0.507  14.236  21.014  0.00  0.00    +0.000 A 
ENDBRANCH  11  13
BRANCH   1  20
ATOM     20  C   UNL     1      -0.931  10.114  18.417  0.00  0.00    +0.000 C 
BRANCH  20  21
ATOM     21  O   UNL     1      -1.560  11.159  17.672  0.00  0.00    +0.000 OA
BRANCH  21  25
ATOM     22  C   UNL     1      -5.447  12.109  18.816  0.00  0.00    +0.000 A 
ATOM     23  C   UNL     1      -5.155  11.564  17.566  0.00  0.00    +0.000 A 
ATOM     24  C   UNL     1      -3.834  11.283  17.214  0.00  0.00    +0.000 A 
ATOM     25  C   UNL     1      -2.790  11.575  18.091  0.00  0.00    +0.000 A 
ATOM     26  C   UNL     1      -3.073  12.177  19.316  0.00  0.00    +0.000 A 
ATOM     27  C   UNL     1      -4.403  12.448  19.676  0.00  0.00    +0.000 A 
BRANCH  22  28
ATOM     28  O   UNL     1      -6.778  12.270  19.081  0.00  0.00    +0.000 OA
BRANCH  28  30
ATOM     29  C   UNL     1      -7.473  10.404  20.393  0.00  0.00    +0.000 C 
ATOM     30  C   UNL     1      -7.209  11.900  20.392  0.00  0.00    +0.000 C 
ENDBRANCH  28  30
ENDBRANCH  22  28
ENDBRANCH  21  25
ENDBRANCH  20  21
ENDBRANCH   1  20
BRANCH   5  31
ATOM     31  O   UNL     1       3.160   5.476  19.505  0.00  0.00    +0.000 OA
BRANCH  31  32
ATOM     32  C   UNL     1       4.561   5.410  19.237  0.00  0.00    +0.000 C 
ATOM     33  C   UNL     1       4.814   4.282  18.254  0.00  0.00    +0.000 C 
ENDBRANCH  31  32
ENDBRANCH   5  31
TORSDOF 8
ENDMDL
MODEL 7
REMARK VINA RESULT:      -7.0      9.352     11.761
REMARK  Name = 
REMARK  10 active torsions:
REMARK  status: ('A' for Active; 'I' for Inactive)
REMARK    1  A    between atoms: C_1  and  C_2
REMARK    2  A    between atoms: C_2  and  O_3
REMARK    3  A    between atoms: O_3  and  C_4
REMARK    4  A    between atoms: C_7  and  O_8
REMARK    5  A    between atoms: O_8  and  C_9
REMARK    6  A    between atoms: C_9  and  C_10
REMARK    7  A    between atoms: C_14  and  O_15
REMARK    8  A    between atoms: O_15  and  C_16
REMARK    9  A    between atoms: C_16  and  C_17
REMARK   10  A    between atoms: C_23  and  C_25
REMARK                            x       y       z     vdW  Elec       q    Type
REMARK                         _______ _______ _______ _____ _____    ______ ____
ROOT
ATOM      1  C   UNL     1      -0.059  10.772  18.706  0.00  0.00    +0.000 C 
ATOM      2  C   UNL     1       0.871   9.608  18.991  0.00  0.00    +0.000 A 
ATOM      3  C   UNL     1       1.687   9.057  17.995  0.00  0.00    +0.000 A 
ATOM      4  C   UNL     1       2.440   7.909  18.261  0.00  0.00    +0.000 A 
ATOM      5  C   UNL     1       2.375   7.288  19.509  0.00  0.00    +0.000 A 
ATOM      6  C   UNL     1       1.600   7.866  20.516  0.00  0.00    +0.000 A 
ATOM      7  C   UNL     1       0.872   9.041  20.273  0.00  0.00    +0.000 A 
ATOM      8  C   UNL     1       0.083   9.679  21.386  0.00  0.00    +0.000 C 
ATOM      9  C   UNL     1      -0.407  11.120  21.139  0.00  0.00    +0.000 C 
ATOM     10  N   UNL     1      -0.038  11.710  19.846  0.00  0.00    +0.000 N 
ATOM     11  C   UNL     1      -0.150  13.063  19.518  0.00  0.00    +0.000 C 
ATOM     12  O   UNL     1      -0.056  13.484  18.360  0.00  0.00    +0.000 OA
ENDROOT
BRANCH  11  13
ATOM     13  C   UNL     1      -0.410  14.101  20.553  0.00  0.00    +0.000 A 
ATOM     14  C   UNL     1       0.669  14.540  21.344  0.00  0.00    +0.000 A 
ATOM     15  C   UNL     1       0.466  15.459  22.378  0.00  0.00    +0.000 A 
ATOM     16  C   UNL     1      -0.813  15.955  22.614  0.00  0.00    +0.000 A 
ATOM     17  C   UNL     1      -1.880  15.501  21.843  0.00  0.00    +0.000 A 
ATOM     18  F   UNL     1      -3.107  15.982  22.072  0.00  0.00    +0.000 F 
ATOM     19  C   UNL     1      -1.697  14.554  20.844  0.00  0.00    +0.000 A 
ENDBRANCH  11  13
BRANCH   1  20
ATOM     20  C   UNL     1      -1.495  10.233  18.418  0.00  0.00    +0.000 C 
BRANCH  20  21
ATOM     21  O   UNL     1      -2.138  11.073  17.456  0.00  0.00    +0.000 OA
BRANCH  21  25
ATOM     22  C   UNL     1      -5.864  12.599  18.512  0.00  0.00    +0.000 A 
ATOM     23  C   UNL     1      -4.843  12.426  19.445  0.00  0.00    +0.000 A 
ATOM     24  C   UNL     1      -3.617  11.887  19.053  0.00  0.00    +0.000 A 
ATOM     25  C   UNL     1      -3.409  11.485  17.734  0.00  0.00    +0.000 A 
ATOM     26  C   UNL     1      -4.449  11.599  16.812  0.00  0.00    +0.000 A 
ATOM     27  C   UNL     1      -5.678  12.152  17.203  0.00  0.00    +0.000 A 
BRANCH  22  28
ATOM     28  O   UNL     1      -6.991  13.205  18.991  0.00  0.00    +0.000 OA
BRANCH  28  30
ATOM     29  C   UNL     1      -7.905  13.537  21.168  0.00  0.00    +0.000 C 
ATOM     30  C   UNL     1      -6.834  13.976  20.183  0.00  0.00    +0.000 C 
ENDBRANCH  28  30
ENDBRANCH  22  28
ENDBRANCH  21  25
ENDBRANCH  20  21
ENDBRANCH   1  20
BRANCH   5  31
ATOM     31  O   UNL     1       3.109   6.139  19.629  0.00  0.00    +0.000 OA
BRANCH  31  32
ATOM     32  C   UNL     1       4.011   5.842  18.562  0.00  0.00    +0.000 C 
ATOM     33  C   UNL     1       5.261   5.209  19.145  0.00  0.00    +0.000 C 
ENDBRANCH  31  32
ENDBRANCH   5  31
TORSDOF 8
ENDMDL
MODEL 8
REMARK VINA RESULT:      -6.9      8.557     11.172
REMARK  Name = 
REMARK  10 active torsions:
REMARK  status: ('A' for Active; 'I' for Inactive)
REMARK    1  A    between atoms: C_1  and  C_2
REMARK    2  A    between atoms: C_2  and  O_3
REMARK    3  A    between atoms: O_3  and  C_4
REMARK    4  A    between atoms: C_7  and  O_8
REMARK    5  A    between atoms: O_8  and  C_9
REMARK    6  A    between atoms: C_9  and  C_10
REMARK    7  A    between atoms: C_14  and  O_15
REMARK    8  A    between atoms: O_15  and  C_16
REMARK    9  A    between atoms: C_16  and  C_17
REMARK   10  A    between atoms: C_23  and  C_25
REMARK                            x       y       z     vdW  Elec       q    Type
REMARK                         _______ _______ _______ _____ _____    ______ ____
ROOT
ATOM      1  C   UNL     1       1.002  10.345  18.571  0.00  0.00    +0.000 C 
ATOM      2  C   UNL     1       1.606   9.015  18.981  0.00  0.00    +0.000 A 
ATOM      3  C   UNL     1       2.327   8.224  18.077  0.00  0.00    +0.000 A 
ATOM      4  C   UNL     1       2.764   6.950  18.454  0.00  0.00    +0.000 A 
ATOM      5  C   UNL     1       2.473   6.443  19.721  0.00  0.00    +0.000 A 
ATOM      6  C   UNL     1       1.798   7.251  20.637  0.00  0.00    +0.000 A 
ATOM      7  C   UNL     1       1.390   8.547  20.285  0.00  0.00    +0.000 A 
ATOM      8  C   UNL     1       0.709   9.423  21.302  0.00  0.00    +0.000 C 
ATOM      9  C   UNL     1       0.595  10.921  20.951  0.00  0.00    +0.000 C 
ATOM     10  N   UNL     1       1.176  11.323  19.664  0.00  0.00    +0.000 N 
ATOM     11  C   UNL     1       1.414  12.640  19.265  0.00  0.00    +0.000 C 
ATOM     12  O   UNL     1       1.679  12.952  18.099  0.00  0.00    +0.000 OA
ENDROOT
BRANCH  11  13
ATOM     13  C   UNL     1       1.346  13.773  20.227  0.00  0.00    +0.000 A 
ATOM     14  C   UNL     1       2.495  14.078  20.982  0.00  0.00    +0.000 A 
ATOM     15  C   UNL     1       2.463  15.086  21.951  0.00  0.00    +0.000 A 
ATOM     16  C   UNL     1       1.288  15.804  22.157  0.00  0.00    +0.000 A 
ATOM     17  C   UNL     1       0.150  15.483  21.423  0.00  0.00    +0.000 A 
ATOM     18  F   UNL     1      -0.977  16.177  21.622  0.00  0.00    +0.000 F 
ATOM     19  C   UNL     1       0.157  14.454  20.490  0.00  0.00    +0.000 A 
ENDBRANCH  11  13
BRANCH   1  20
ATOM     20  C   UNL     1      -0.500  10.144  18.200  0.00  0.00    +0.000 C 
BRANCH  20  21
ATOM     21  O   UNL     1      -1.262  11.260  18.664  0.00  0.00    +0.000 OA
BRANCH  21  25
ATOM     22  C   UNL     1      -5.185  11.941  17.451  0.00  0.00    +0.000 A 
ATOM     23  C   UNL     1      -4.741  12.257  18.734  0.00  0.00    +0.000 A 
ATOM     24  C   UNL     1      -3.423  11.989  19.107  0.00  0.00    +0.000 A 
ATOM     25  C   UNL     1      -2.546  11.372  18.216  0.00  0.00    +0.000 A 
ATOM     26  C   UNL     1      -3.004  10.998  16.953  0.00  0.00    +0.000 A 
ATOM     27  C   UNL     1      -4.326  11.279  16.573  0.00  0.00    +0.000 A 
BRANCH  22  28
ATOM     28  O   UNL     1      -6.468  12.318  17.172  0.00  0.00    +0.000 OA
BRANCH  28  30
ATOM     29  C   UNL     1      -7.041  14.571  16.638  0.00  0.00    +0.000 C 
ATOM     30  C   UNL     1      -6.905  13.548  17.754  0.00  0.00    +0.000 C 
ENDBRANCH  28  30
ENDBRANCH  22  28
ENDBRANCH  21  25
ENDBRANCH  20  21
ENDBRANCH   1  20
BRANCH   5  31
ATOM     31  O   UNL     1       2.901   5.163  19.951  0.00  0.00    +0.000 OA
BRANCH  31  32
ATOM     32  C   UNL     1       2.204   4.427  20.957  0.00  0.00    +0.000 C 
ATOM     33  C   UNL     1       1.011   3.740  20.317  0.00  0.00    +0.000 C 
ENDBRANCH  31  32
ENDBRANCH   5  31
TORSDOF 8
ENDMDL
MODEL 9
REMARK VINA RESULT:      -6.9      4.348      5.762
REMARK  Name = 
REMARK  10 active torsions:
REMARK  status: ('A' for Active; 'I' for Inactive)
REMARK    1  A    between atoms: C_1  and  C_2
REMARK    2  A    between atoms: C_2  and  O_3
REMARK    3  A    between atoms: O_3  and  C_4
REMARK    4  A    between atoms: C_7  and  O_8
REMARK    5  A    between atoms: O_8  and  C_9
REMARK    6  A    between atoms: C_9  and  C_10
REMARK    7  A    between atoms: C_14  and  O_15
REMARK    8  A    between atoms: O_15  and  C_16
REMARK    9  A    between atoms: C_16  and  C_17
REMARK   10  A    between atoms: C_23  and  C_25
REMARK                            x       y       z     vdW  Elec       q    Type
REMARK                         _______ _______ _______ _____ _____    ______ ____
ROOT
ATOM      1  C   UNL     1       1.844   7.575  18.088  0.00  0.00    +0.000 C 
ATOM      2  C   UNL     1       0.957   8.744  18.470  0.00  0.00    +0.000 A 
ATOM      3  C   UNL     1       0.142   9.388  17.530  0.00  0.00    +0.000 A 
ATOM      4  C   UNL     1      -0.569  10.537  17.888  0.00  0.00    +0.000 A 
ATOM      5  C   UNL     1      -0.463  11.068  19.174  0.00  0.00    +0.000 A 
ATOM      6  C   UNL     1       0.310  10.398  20.124  0.00  0.00    +0.000 A 
ATOM      7  C   UNL     1       0.996   9.221  19.788  0.00  0.00    +0.000 A 
ATOM      8  C   UNL     1       1.783   8.484  20.838  0.00  0.00    +0.000 C 
ATOM      9  C   UNL     1       2.223   7.049  20.484  0.00  0.00    +0.000 C 
ATOM     10  N   UNL     1       1.813   6.561  19.161  0.00  0.00    +0.000 N 
ATOM     11  C   UNL     1       1.875   5.231  18.739  0.00  0.00    +0.000 C 
ATOM     12  O   UNL     1       1.748   4.894  17.557  0.00  0.00    +0.000 OA
ENDROOT
BRANCH  11  13
ATOM     13  C   UNL     1       2.120   4.118  19.696  0.00  0.00    +0.000 A 
ATOM     14  C   UNL     1       1.071   3.730  20.551  0.00  0.00    +0.000 A 
ATOM     15  C   UNL     1       1.270   2.739  21.517  0.00  0.00    +0.000 A 
ATOM     16  C   UNL     1       2.512   2.120  21.620  0.00  0.00    +0.000 A 
ATOM     17  C   UNL     1       3.552   2.522  20.786  0.00  0.00    +0.000 A 
ATOM     18  F   UNL     1       4.744   1.922  20.886  0.00  0.00    +0.000 F 
ATOM     19  C   UNL     1       3.379   3.537  19.854  0.00  0.00    +0.000 A 
ENDBRANCH  11  13
BRANCH   1  20
ATOM     20  C   UNL     1       3.292   8.088  17.810  0.00  0.00    +0.000 C 
BRANCH  20  21
ATOM     21  O   UNL     1       4.237   7.087  18.194  0.00  0.00    +0.000 OA
BRANCH  21  25
ATOM     22  C   UNL     1       5.907   4.602  15.303  0.00  0.00    +0.000 A 
ATOM     23  C   UNL     1       5.920   4.275  16.658  0.00  0.00    +0.000 A 
ATOM     24  C   UNL     1       5.371   5.149  17.597  0.00  0.00    +0.000 A 
ATOM     25  C   UNL     1       4.834   6.372  17.197  0.00  0.00    +0.000 A 
ATOM     26  C   UNL     1       4.875   6.730  15.850  0.00  0.00    +0.000 A 
ATOM     27  C   UNL     1       5.417   5.845  14.904  0.00  0.00    +0.000 A 
BRANCH  22  28
ATOM     28  O   UNL     1       6.402   3.639  14.470  0.00  0.00    +0.000 OA
BRANCH  28  30
ATOM     29  C   UNL     1       5.590   3.230  12.265  0.00  0.00    +0.000 C 
ATOM     30  C   UNL     1       6.582   4.018  13.104  0.00  0.00    +0.000 C 
ENDBRANCH  28  30
ENDBRANCH  22  28
ENDBRANCH  21  25
ENDBRANCH  20  21
ENDBRANCH   1  20
BRANCH   5  31
ATOM     31  O   UNL     1      -1.158  12.228  19.387  0.00  0.00    +0.000 OA
BRANCH  31  32
ATOM     32  C   UNL     1      -0.410  13.340  19.880  0.00  0.00    +0.000 C 
ATOM     33  C   UNL     1       0.313  13.993  18.716  0.00  0.00    +0.000 C 
ENDBRANCH  31  32
ENDBRANCH   5  31
TORSDOF 8
ENDMDL
