MODEL 1
REMARK VINA RESULT:      -7.3      0.000      0.000
REMARK  Name = 
REMARK  9 active torsions:
REMARK  status: ('A' for Active; 'I' for Inactive)
REMARK    1  A    between atoms: C_2  and  C_17
REMARK    2  A    between atoms: N_3  and  C_4
REMARK    3  A    between atoms: C_4  and  C_5
REMARK    4  A    between atoms: C_5  and  N_6
REMARK    5  A    between atoms: C_7  and  C_9
REMARK    6  A    between atoms: C_12  and  O_13
REMARK    7  A    between atoms: C_14  and  O_15
REMARK    8  A    between atoms: C_20  and  O_21
REMARK    9  A    between atoms: C_22  and  O_23
REMARK                            x       y       z     vdW  Elec       q    Type
REMARK                         _______ _______ _______ _____ _____    ______ ____
ROOT
ATOM      1  C   UNL     1       3.164   2.238  19.222  0.00  0.00    +0.000 C 
ENDROOT
BRANCH   1   4
ATOM      2  O   UNL     1       2.699   3.702  16.866  0.00  0.00    +0.000 OA
ATOM      3  C   UNL     1       3.857   3.457  17.192  0.00  0.00    +0.000 C 
ATOM      4  N   UNL     1       4.188   2.743  18.323  0.00  0.00    +0.000 N 
ATOM      5  H   UNL     1       5.147   2.739  18.649  0.00  0.00    +0.000 HD
BRANCH   3   6
ATOM      6  C   UNL     1       4.978   3.965  16.360  0.00  0.00    +0.000 A 
ATOM      7  C   UNL     1       5.740   5.032  16.866  0.00  0.00    +0.000 A 
ATOM      8  C   UNL     1       6.792   5.574  16.121  0.00  0.00    +0.000 A 
ATOM      9  C   UNL     1       7.063   5.049  14.865  0.00  0.00    +0.000 A 
ATOM     10  C   UNL     1       6.298   3.999  14.357  0.00  0.00    +0.000 A 
ATOM     11  C   UNL     1       5.255   3.448  15.089  0.00  0.00    +0.000 A 
BRANCH   9  12
ATOM     12  O   UNL     1       8.069   5.541  14.080  0.00  0.00    +0.000 OA
ATOM     13  H   UNL     1       7.732   5.627  13.172  0.00  0.00    +0.000 HD
ENDBRANCH   9  12
BRANCH  10  14
ATOM     14  O   UNL     1       6.568   3.507  13.112  0.00  0.00    +0.000 OA
ATOM     15  H   UNL     1       7.025   4.238  12.650  0.00  0.00    +0.000 HD
ENDBRANCH  10  14
ENDBRANCH   3   6
ENDBRANCH   1   4
BRANCH   1  16
ATOM     16  C   UNL     1       2.869   3.185  20.393  0.00  0.00    +0.000 C 
BRANCH  16  17
ATOM     17  N   UNL     1       2.416   4.491  19.953  0.00  0.00    +0.000 N 
ATOM     18  C   UNL     1       3.280   5.550  19.795  0.00  0.00    +0.000 C 
ATOM     19  O   UNL     1       4.493   5.465  19.953  0.00  0.00    +0.000 OA
ATOM     20  H   UNL     1       1.454   4.570  19.654  0.00  0.00    +0.000 HD
BRANCH  18  21
ATOM     21  C   UNL     1       2.665   6.838  19.371  0.00  0.00    +0.000 A 
ATOM     22  C   UNL     1       2.886   7.290  18.058  0.00  0.00    +0.000 A 
ATOM     23  C   UNL     1       2.305   8.481  17.609  0.00  0.00    +0.000 A 
ATOM     24  C   UNL     1       1.513   9.215  18.484  0.00  0.00    +0.000 A 
ATOM     25  C   UNL     1       1.316   8.781  19.792  0.00  0.00    +0.000 A 
ATOM     26  C   UNL     1       1.892   7.605  20.250  0.00  0.00    +0.000 A 
BRANCH  24  27
ATOM     27  O   UNL     1       0.905  10.380  18.107  0.00  0.00    +0.000 OA
ATOM     28  H   UNL     1       0.395  10.716  18.867  0.00  0.00    +0.000 HD
ENDBRANCH  24  27
BRANCH  25  29
ATOM     29  O   UNL     1       0.546   9.514  20.648  0.00  0.00    +0.000 OA
ATOM     30  H   UNL     1      -0.345   9.508  20.247  0.00  0.00    +0.000 HD
ENDBRANCH  25  29
ENDBRANCH  18  21
ENDBRANCH  16  17
ENDBRANCH   1  16
TORSDOF 9
ENDMDL
MODEL 2
REMARK VINA RESULT:      -7.2      1.309      1.864
REMARK  Name = 
REMARK  9 active torsions:
REMARK  status: ('A' for Active; 'I' for Inactive)
REMARK    1  A    between atoms: C_2  and  C_17
REMARK    2  A    between atoms: N_3  and  C_4
REMARK    3  A    between atoms: C_4  and  C_5
REMARK    4  A    between atoms: C_5  and  N_6
REMARK    5  A    between atoms: C_7  and  C_9
REMARK    6  A    between atoms: C_12  and  O_13
REMARK    7  A    between atoms: C_14  and  O_15
REMARK    8  A    between atoms: C_20  and  O_21
REMARK    9  A    between atoms: C_22  and  O_23
REMARK                            x       y       z     vdW  Elec       q    Type
REMARK                         _______ _______ _______ _____ _____    ______ ____
ROOT
ATOM      1  C   UNL     1       2.521   2.222  19.134  0.00  0.00    +0.000 C 
ENDROOT
BRANCH   1   4
ATOM      2  O   UNL     1       5.030   3.399  19.611  0.00  0.00    +0.000 OA
ATOM      3  C   UNL     1       4.572   3.422  18.472  0.00  0.00    +0.000 C 
ATOM      4  N   UNL     1       3.351   2.879  18.138  0.00  0.00    +0.000 N 
ATOM      5  H   UNL     1       3.111   2.748  17.163  0.00  0.00    +0.000 HD
BRANCH   3   6
ATOM      6  C   UNL     1       5.363   4.034  17.375  0.00  0.00    +0.000 A 
ATOM      7  C   UNL     1       5.339   3.406  16.117  0.00  0.00    +0.000 A 
ATOM      8  C   UNL     1       6.083   3.917  15.050  0.00  0.00    +0.000 A 
ATOM      9  C   UNL     1       6.859   5.049  15.255  0.00  0.00    +0.000 A 
ATOM     10  C   UNL     1       6.893   5.665  16.506  0.00  0.00    +0.000 A 
ATOM     11  C   UNL     1       6.155   5.172  17.572  0.00  0.00    +0.000 A 
BRANCH   9  12
ATOM     12  O   UNL     1       7.619   5.593  14.257  0.00  0.00    +0.000 OA
ATOM     13  H   UNL     1       7.065   6.215  13.756  0.00  0.00    +0.000 HD
ENDBRANCH   9  12
BRANCH  10  14
ATOM     14  O   UNL     1       7.676   6.769  16.695  0.00  0.00    +0.000 OA
ATOM     15  H   UNL     1       7.197   7.492  16.240  0.00  0.00    +0.000 HD
ENDBRANCH  10  14
ENDBRANCH   3   6
ENDBRANCH   1   4
BRANCH   1  16
ATOM     16  C   UNL     1       1.439   3.139  19.718  0.00  0.00    +0.000 C 
BRANCH  16  17
ATOM     17  N   UNL     1       1.542   4.502  19.231  0.00  0.00    +0.000 N 
ATOM     18  C   UNL     1       2.067   5.516  20.001  0.00  0.00    +0.000 C 
ATOM     19  O   UNL     1       2.538   5.344  21.120  0.00  0.00    +0.000 OA
ATOM     20  H   UNL     1       1.319   4.665  18.259  0.00  0.00    +0.000 HD
BRANCH  18  21
ATOM     21  C   UNL     1       2.077   6.869  19.380  0.00  0.00    +0.000 A 
ATOM     22  C   UNL     1       2.733   7.041  18.149  0.00  0.00    +0.000 A 
ATOM     23  C   UNL     1       2.743   8.289  17.517  0.00  0.00    +0.000 A 
ATOM     24  C   UNL     1       2.104   9.359  18.130  0.00  0.00    +0.000 A 
ATOM     25  C   UNL     1       1.477   9.195  19.363  0.00  0.00    +0.000 A 
ATOM     26  C   UNL     1       1.464   7.964  20.001  0.00  0.00    +0.000 A 
BRANCH  24  27
ATOM     27  O   UNL     1       2.065  10.603  17.563  0.00  0.00    +0.000 OA
ATOM     28  H   UNL     1       1.909  11.255  18.270  0.00  0.00    +0.000 HD
ENDBRANCH  24  27
BRANCH  25  29
ATOM     29  O   UNL     1       0.861  10.254  19.964  0.00  0.00    +0.000 OA
ATOM     30  H   UNL     1       1.291  11.043  19.577  0.00  0.00    +0.000 HD
ENDBRANCH  25  29
ENDBRANCH  18  21
ENDBRANCH  16  17
ENDBRANCH   1  16
TORSDOF 9
ENDMDL
MODEL 3
REMARK VINA RESULT:      -7.2      1.976      2.830
REMARK  Name = 
REMARK  9 active torsions:
REMARK  status: ('A' for Active; 'I' for Inactive)
REMARK    1  A    between atoms: C_2  and  C_17
REMARK    2  A    between atoms: N_3  and  C_4
REMARK    3  A    between atoms: C_4  and  C_5
REMARK    4  A    between atoms: C_5  and  N_6
REMARK    5  A    between atoms: C_7  and  C_9
REMARK    6  A    between atoms: C_12  and  O_13
REMARK    7  A    between atoms: C_14  and  O_15
REMARK    8  A    between atoms: C_20  and  O_21
REMARK    9  A    between atoms: C_22  and  O_23
REMARK                            x       y       z     vdW  Elec       q    Type
REMARK                         _______ _______ _______ _____ _____    ______ ____
ROOT
ATOM      1  C   UNL     1       3.323   1.927  18.230  0.00  0.00    +0.000 C 
ENDROOT
BRANCH   1   4
ATOM      2  O   UNL     1       4.169   3.946  16.465  0.00  0.00    +0.000 OA
ATOM      3  C   UNL     1       4.703   3.862  17.568  0.00  0.00    +0.000 C 
ATOM      4  N   UNL     1       4.363   2.906  18.500  0.00  0.00    +0.000 N 
ATOM      5  H   UNL     1       4.686   3.000  19.454  0.00  0.00    +0.000 HD
BRANCH   3   6
ATOM      6  C   UNL     1       5.749   4.842  17.955  0.00  0.00    +0.000 A 
ATOM      7  C   UNL     1       6.053   5.872  17.047  0.00  0.00    +0.000 A 
ATOM      8  C   UNL     1       7.046   6.811  17.340  0.00  0.00    +0.000 A 
ATOM      9  C   UNL     1       7.739   6.703  18.537  0.00  0.00    +0.000 A 
ATOM     10  C   UNL     1       7.447   5.673  19.432  0.00  0.00    +0.000 A 
ATOM     11  C   UNL     1       6.459   4.738  19.157  0.00  0.00    +0.000 A 
BRANCH   9  12
ATOM     12  O   UNL     1       8.730   7.580  18.879  0.00  0.00    +0.000 OA
ATOM     13  H   UNL     1       9.583   7.195  18.614  0.00  0.00    +0.000 HD
ENDBRANCH   9  12
BRANCH  10  14
ATOM     14  O   UNL     1       8.151   5.571  20.599  0.00  0.00    +0.000 OA
ATOM     15  H   UNL     1       7.944   4.676  20.935  0.00  0.00    +0.000 HD
ENDBRANCH  10  14
ENDBRANCH   3   6
ENDBRANCH   1   4
BRANCH   1  16
ATOM     16  C   UNL     1       1.916   2.432  18.573  0.00  0.00    +0.000 C 
BRANCH  16  17
ATOM     17  N   UNL     1       1.833   3.880  18.590  0.00  0.00    +0.000 N 
ATOM     18  C   UNL     1       2.151   4.618  19.708  0.00  0.00    +0.000 C 
ATOM     19  O   UNL     1       2.581   4.126  20.745  0.00  0.00    +0.000 OA
ATOM     20  H   UNL     1       1.640   4.343  17.713  0.00  0.00    +0.000 HD
BRANCH  18  21
ATOM     21  C   UNL     1       1.984   6.093  19.587  0.00  0.00    +0.000 A 
ATOM     22  C   UNL     1       2.268   6.704  18.354  0.00  0.00    +0.000 A 
ATOM     23  C   UNL     1       2.099   8.083  18.189  0.00  0.00    +0.000 A 
ATOM     24  C   UNL     1       1.655   8.841  19.265  0.00  0.00    +0.000 A 
ATOM     25  C   UNL     1       1.398   8.238  20.494  0.00  0.00    +0.000 A 
ATOM     26  C   UNL     1       1.567   6.873  20.672  0.00  0.00    +0.000 A 
BRANCH  24  27
ATOM     27  O   UNL     1       1.456  10.190  19.169  0.00  0.00    +0.000 OA
ATOM     28  H   UNL     1       1.942  10.621  19.896  0.00  0.00    +0.000 HD
ENDBRANCH  24  27
BRANCH  25  29
ATOM     29  O   UNL     1       0.973   8.992  21.550  0.00  0.00    +0.000 OA
ATOM     30  H   UNL     1       1.418   9.855  21.434  0.00  0.00    +0.000 HD
ENDBRANCH  25  29
ENDBRANCH  18  21
ENDBRANCH  16  17
ENDBRANCH   1  16
TORSDOF 9
ENDMDL
MODEL 4
REMARK VINA RESULT:      -7.2      5.432      7.247
REMARK  Name = 
REMARK  9 active torsions:
REMARK  status: ('A' for Active; 'I' for Inactive)
REMARK    1  A    between atoms: C_2  and  C_17
REMARK    2  A    between atoms: N_3  and  C_4
REMARK    3  A    between atoms: C_4  and  C_5
REMARK    4  A    between atoms: C_5  and  N_6
REMARK    5  A    between atoms: C_7  and  C_9
REMARK    6  A    between atoms: C_12  and  O_13
REMARK    7  A    between atoms: C_14  and  O_15
REMARK    8  A    between atoms: C_20  and  O_21
REMARK    9  A    between atoms: C_22  and  O_23
REMARK                            x       y       z     vdW  Elec       q    Type
REMARK                         _______ _______ _______ _____ _____    ______ ____
ROOT
ATOM      1  C   UNL     1       7.770   6.926  18.255  0.00  0.00    +0.000 C 
ENDROOT
BRANCH   1   4
ATOM      2  O   UNL     1       7.495   9.598  17.421  0.00  0.00    +0.000 OA
ATOM      3  C   UNL     1       8.393   9.313  18.208  0.00  0.00    +0.000 C 
ATOM      4  N   UNL     1       8.613   8.034  18.671  0.00  0.00    +0.000 N 
ATOM      5  H   UNL     1       9.231   7.887  19.460  0.00  0.00    +0.000 HD
BRANCH   3   6
ATOM      6  C   UNL     1       9.284  10.383  18.725  0.00  0.00    +0.000 A 
ATOM      7  C   UNL     1       9.307  10.605  20.114  0.00  0.00    +0.000 A 
ATOM      8  C   UNL     1      10.104  11.615  20.661  0.00  0.00    +0.000 A 
ATOM      9  C   UNL     1      10.864  12.405  19.810  0.00  0.00    +0.000 A 
ATOM     10  C   UNL     1      10.831  12.193  18.431  0.00  0.00    +0.000 A 
ATOM     11  C   UNL     1      10.049  11.190  17.875  0.00  0.00    +0.000 A 
BRANCH   9  12
ATOM     12  O   UNL     1      11.655  13.416  20.279  0.00  0.00    +0.000 OA
ATOM     13  H   UNL     1      11.666  13.369  21.250  0.00  0.00    +0.000 HD
ENDBRANCH   9  12
BRANCH  10  14
ATOM     14  O   UNL     1      11.572  12.991  17.606  0.00  0.00    +0.000 OA
ATOM     15  H   UNL     1      11.862  12.398  16.884  0.00  0.00    +0.000 HD
ENDBRANCH  10  14
ENDBRANCH   3   6
ENDBRANCH   1   4
BRANCH   1  16
ATOM     16  C   UNL     1       7.753   5.769  19.262  0.00  0.00    +0.000 C 
BRANCH  16  17
ATOM     17  N   UNL     1       6.411   5.302  19.552  0.00  0.00    +0.000 N 
ATOM     18  C   UNL     1       5.671   4.589  18.636  0.00  0.00    +0.000 C 
ATOM     19  O   UNL     1       6.099   4.241  17.541  0.00  0.00    +0.000 OA
ATOM     20  H   UNL     1       6.073   5.422  20.497  0.00  0.00    +0.000 HD
BRANCH  18  21
ATOM     21  C   UNL     1       4.296   4.206  19.062  0.00  0.00    +0.000 A 
ATOM     22  C   UNL     1       3.544   5.124  19.816  0.00  0.00    +0.000 A 
ATOM     23  C   UNL     1       2.239   4.818  20.213  0.00  0.00    +0.000 A 
ATOM     24  C   UNL     1       1.699   3.588  19.859  0.00  0.00    +0.000 A 
ATOM     25  C   UNL     1       2.453   2.668  19.134  0.00  0.00    +0.000 A 
ATOM     26  C   UNL     1       3.750   2.959  18.739  0.00  0.00    +0.000 A 
BRANCH  24  27
ATOM     27  O   UNL     1       0.425   3.228  20.203  0.00  0.00    +0.000 OA
ATOM     28  H   UNL     1      -0.182   3.572  19.522  0.00  0.00    +0.000 HD
ENDBRANCH  24  27
BRANCH  25  29
ATOM     29  O   UNL     1       1.918   1.457  18.799  0.00  0.00    +0.000 OA
ATOM     30  H   UNL     1       1.211   1.667  18.157  0.00  0.00    +0.000 HD
ENDBRANCH  25  29
ENDBRANCH  18  21
ENDBRANCH  16  17
ENDBRANCH   1  16
TORSDOF 9
ENDMDL
MODEL 5
REMARK VINA RESULT:      -7.1      3.149      8.329
REMARK  Name = 
REMARK  9 active torsions:
REMARK  status: ('A' for Active; 'I' for Inactive)
REMARK    1  A    between atoms: C_2  and  C_17
REMARK    2  A    between atoms: N_3  and  C_4
REMARK    3  A    between atoms: C_4  and  C_5
REMARK    4  A    between atoms: C_5  and  N_6
REMARK    5  A    between atoms: C_7  and  C_9
REMARK    6  A    between atoms: C_12  and  O_13
REMARK    7  A    between atoms: C_14  and  O_15
REMARK    8  A    between atoms: C_20  and  O_21
REMARK    9  A    between atoms: C_22  and  O_23
REMARK                            x       y       z     vdW  Elec       q    Type
REMARK                         _______ _______ _______ _____ _____    ______ ____
ROOT
ATOM      1  C   UNL     1       1.329   8.500  21.223  0.00  0.00    +0.000 C 
ENDROOT
BRANCH   1   4
ATOM      2  O   UNL     1       1.448  10.179  18.969  0.00  0.00    +0.000 OA
ATOM      3  C   UNL     1       0.352   9.919  19.457  0.00  0.00    +0.000 C 
ATOM      4  N   UNL     1       0.188   9.113  20.562  0.00  0.00    +0.000 N 
ATOM      5  H   UNL     1      -0.735   8.774  20.801  0.00  0.00    +0.000 HD
BRANCH   3   6
ATOM      6  C   UNL     1      -0.879  10.465  18.829  0.00  0.00    +0.000 A 
ATOM      7  C   UNL     1      -1.236   9.984  17.556  0.00  0.00    +0.000 A 
ATOM      8  C   UNL     1      -2.368  10.476  16.900  0.00  0.00    +0.000 A 
ATOM      9  C   UNL     1      -3.128  11.458  17.519  0.00  0.00    +0.000 A 
ATOM     10  C   UNL     1      -2.767  11.945  18.776  0.00  0.00    +0.000 A 
ATOM     11  C   UNL     1      -1.649  11.461  19.442  0.00  0.00    +0.000 A 
BRANCH   9  12
ATOM     12  O   UNL     1      -4.239  11.991  16.927  0.00  0.00    +0.000 OA
ATOM     13  H   UNL     1      -3.949  12.609  16.234  0.00  0.00    +0.000 HD
ENDBRANCH   9  12
BRANCH  10  14
ATOM     14  O   UNL     1      -3.517  12.924  19.364  0.00  0.00    +0.000 OA
ATOM     15  H   UNL     1      -4.385  12.504  19.528  0.00  0.00    +0.000 HD
ENDBRANCH  10  14
ENDBRANCH   3   6
ENDBRANCH   1   4
BRANCH   1  16
ATOM     16  C   UNL     1       1.557   7.043  20.803  0.00  0.00    +0.000 C 
BRANCH  16  17
ATOM     17  N   UNL     1       2.638   6.902  19.846  0.00  0.00    +0.000 N 
ATOM     18  C   UNL     1       3.223   5.685  19.578  0.00  0.00    +0.000 C 
ATOM     19  O   UNL     1       2.847   4.628  20.071  0.00  0.00    +0.000 OA
ATOM     20  H   UNL     1       2.876   7.714  19.293  0.00  0.00    +0.000 HD
BRANCH  18  21
ATOM     21  C   UNL     1       4.345   5.701  18.598  0.00  0.00    +0.000 A 
ATOM     22  C   UNL     1       4.228   6.508  17.453  0.00  0.00    +0.000 A 
ATOM     23  C   UNL     1       5.268   6.574  16.521  0.00  0.00    +0.000 A 
ATOM     24  C   UNL     1       6.416   5.822  16.738  0.00  0.00    +0.000 A 
ATOM     25  C   UNL     1       6.521   5.002  17.859  0.00  0.00    +0.000 A 
ATOM     26  C   UNL     1       5.494   4.925  18.788  0.00  0.00    +0.000 A 
BRANCH  24  27
ATOM     27  O   UNL     1       7.476   5.849  15.874  0.00  0.00    +0.000 OA
ATOM     28  H   UNL     1       7.350   6.598  15.263  0.00  0.00    +0.000 HD
ENDBRANCH  24  27
BRANCH  25  29
ATOM     29  O   UNL     1       7.648   4.258  18.060  0.00  0.00    +0.000 OA
ATOM     30  H   UNL     1       7.929   3.988  17.163  0.00  0.00    +0.000 HD
ENDBRANCH  25  29
ENDBRANCH  18  21
ENDBRANCH  16  17
ENDBRANCH   1  16
TORSDOF 9
ENDMDL
MODEL 6
REMARK VINA RESULT:      -7.1      0.572      1.333
REMARK  Name = 
REMARK  9 active torsions:
REMARK  status: ('A' for Active; 'I' for Inactive)
REMARK    1  A    between atoms: C_2  and  C_17
REMARK    2  A    between atoms: N_3  and  C_4
REMARK    3  A    between atoms: C_4  and  C_5
REMARK    4  A    between atoms: C_5  and  N_6
REMARK    5  A    between atoms: C_7  and  C_9
REMARK    6  A    between atoms: C_12  and  O_13
REMARK    7  A    between atoms: C_14  and  O_15
REMARK    8  A    between atoms: C_20  and  O_21
REMARK    9  A    between atoms: C_22  and  O_23
REMARK                            x       y       z     vdW  Elec       q    Type
REMARK                         _______ _______ _______ _____ _____    ______ ____
ROOT
ATOM      1  C   UNL     1       3.159   2.206  18.970  0.00  0.00    +0.000 C 
ENDROOT
BRANCH   1   4
ATOM      2  O   UNL     1       2.729   3.955  16.810  0.00  0.00    +0.000 OA
ATOM      3  C   UNL     1       3.871   3.567  17.039  0.00  0.00    +0.000 C 
ATOM      4  N   UNL     1       4.183   2.706  18.069  0.00  0.00    +0.000 N 
ATOM      5  H   UNL     1       5.151   2.575  18.335  0.00  0.00    +0.000 HD
BRANCH   3   6
ATOM      6  C   UNL     1       4.995   4.054  16.199  0.00  0.00    +0.000 A 
ATOM      7  C   UNL     1       5.853   5.023  16.748  0.00  0.00    +0.000 A 
ATOM      8  C   UNL     1       6.914   5.542  16.000  0.00  0.00    +0.000 A 
ATOM      9  C   UNL     1       7.100   5.094  14.699  0.00  0.00    +0.000 A 
ATOM     10  C   UNL     1       6.241   4.142  14.150  0.00  0.00    +0.000 A 
ATOM     11  C   UNL     1       5.187   3.614  14.884  0.00  0.00    +0.000 A 
BRANCH   9  12
ATOM     12  O   UNL     1       8.110   5.569  13.910  0.00  0.00    +0.000 OA
ATOM     13  H   UNL     1       8.135   5.038  13.095  0.00  0.00    +0.000 HD
ENDBRANCH   9  12
BRANCH  10  14
ATOM     14  O   UNL     1       6.427   3.724  12.863  0.00  0.00    +0.000 OA
ATOM     15  H   UNL     1       7.363   3.934  12.669  0.00  0.00    +0.000 HD
ENDBRANCH  10  14
ENDBRANCH   3   6
ENDBRANCH   1   4
BRANCH   1  16
ATOM     16  C   UNL     1       3.047   3.018  20.267  0.00  0.00    +0.000 C 
BRANCH  16  17
ATOM     17  N   UNL     1       2.469   4.332  20.053  0.00  0.00    +0.000 N 
ATOM     18  C   UNL     1       3.248   5.452  19.869  0.00  0.00    +0.000 C 
ATOM     19  O   UNL     1       4.472   5.425  19.811  0.00  0.00    +0.000 OA
ATOM     20  H   UNL     1       1.468   4.382  19.930  0.00  0.00    +0.000 HD
BRANCH  18  21
ATOM     21  C   UNL     1       2.515   6.736  19.696  0.00  0.00    +0.000 A 
ATOM     22  C   UNL     1       1.735   7.216  20.762  0.00  0.00    +0.000 A 
ATOM     23  C   UNL     1       1.052   8.432  20.653  0.00  0.00    +0.000 A 
ATOM     24  C   UNL     1       1.148   9.154  19.470  0.00  0.00    +0.000 A 
ATOM     25  C   UNL     1       1.900   8.666  18.404  0.00  0.00    +0.000 A 
ATOM     26  C   UNL     1       2.577   7.459  18.499  0.00  0.00    +0.000 A 
BRANCH  24  27
ATOM     27  O   UNL     1       0.517  10.355  19.299  0.00  0.00    +0.000 OA
ATOM     28  H   UNL     1       0.756  10.702  18.420  0.00  0.00    +0.000 HD
ENDBRANCH  24  27
BRANCH  25  29
ATOM     29  O   UNL     1       1.980   9.376  17.241  0.00  0.00    +0.000 OA
ATOM     30  H   UNL     1       1.567  10.238  17.448  0.00  0.00    +0.000 HD
ENDBRANCH  25  29
ENDBRANCH  18  21
ENDBRANCH  16  17
ENDBRANCH   1  16
TORSDOF 9
ENDMDL
MODEL 7
REMARK VINA RESULT:      -7.1      6.048      8.053
REMARK  Name = 
REMARK  9 active torsions:
REMARK  status: ('A' for Active; 'I' for Inactive)
REMARK    1  A    between atoms: C_2  and  C_17
REMARK    2  A    between atoms: N_3  and  C_4
REMARK    3  A    between atoms: C_4  and  C_5
REMARK    4  A    between atoms: C_5  and  N_6
REMARK    5  A    between atoms: C_7  and  C_9
REMARK    6  A    between atoms: C_12  and  O_13
REMARK    7  A    between atoms: C_14  and  O_15
REMARK    8  A    between atoms: C_20  and  O_21
REMARK    9  A    between atoms: C_22  and  O_23
REMARK                            x       y       z     vdW  Elec       q    Type
REMARK                         _______ _______ _______ _____ _____    ______ ____
ROOT
ATOM      1  C   UNL     1       8.149   8.348  18.367  0.00  0.00    +0.000 C 
ENDROOT
BRANCH   1   4
ATOM      2  O   UNL     1       9.362  10.299  19.988  0.00  0.00    +0.000 OA
ATOM      3  C   UNL     1       9.282  10.500  18.780  0.00  0.00    +0.000 C 
ATOM      4  N   UNL     1       8.702   9.610  17.903  0.00  0.00    +0.000 N 
ATOM      5  H   UNL     1       8.837   9.729  16.907  0.00  0.00    +0.000 HD
BRANCH   3   6
ATOM      6  C   UNL     1       9.856  11.743  18.202  0.00  0.00    +0.000 A 
ATOM      7  C   UNL     1      11.201  11.718  17.794  0.00  0.00    +0.000 A 
ATOM      8  C   UNL     1      11.808  12.862  17.268  0.00  0.00    +0.000 A 
ATOM      9  C   UNL     1      11.063  14.029  17.166  0.00  0.00    +0.000 A 
ATOM     10  C   UNL     1       9.732  14.057  17.582  0.00  0.00    +0.000 A 
ATOM     11  C   UNL     1       9.116  12.927  18.101  0.00  0.00    +0.000 A 
BRANCH   9  12
ATOM     12  O   UNL     1      11.599  15.185  16.671  0.00  0.00    +0.000 OA
ATOM     13  H   UNL     1      12.547  15.037  16.508  0.00  0.00    +0.000 HD
ENDBRANCH   9  12
BRANCH  10  14
ATOM     14  O   UNL     1       9.019  15.219  17.490  0.00  0.00    +0.000 OA
ATOM     15  H   UNL     1       9.675  15.925  17.659  0.00  0.00    +0.000 HD
ENDBRANCH  10  14
ENDBRANCH   3   6
ENDBRANCH   1   4
BRANCH   1  16
ATOM     16  C   UNL     1       7.519   7.516  17.242  0.00  0.00    +0.000 C 
BRANCH  16  17
ATOM     17  N   UNL     1       6.650   6.469  17.744  0.00  0.00    +0.000 N 
ATOM     18  C   UNL     1       5.390   6.257  17.233  0.00  0.00    +0.000 C 
ATOM     19  O   UNL     1       4.927   6.884  16.287  0.00  0.00    +0.000 OA
ATOM     20  H   UNL     1       7.044   5.821  18.412  0.00  0.00    +0.000 HD
BRANCH  18  21
ATOM     21  C   UNL     1       4.600   5.167  17.871  0.00  0.00    +0.000 A 
ATOM     22  C   UNL     1       3.206   5.150  17.689  0.00  0.00    +0.000 A 
ATOM     23  C   UNL     1       2.429   4.130  18.248  0.00  0.00    +0.000 A 
ATOM     24  C   UNL     1       3.055   3.139  18.994  0.00  0.00    +0.000 A 
ATOM     25  C   UNL     1       4.433   3.170  19.196  0.00  0.00    +0.000 A 
ATOM     26  C   UNL     1       5.213   4.180  18.651  0.00  0.00    +0.000 A 
BRANCH  24  27
ATOM     27  O   UNL     1       2.358   2.106  19.558  0.00  0.00    +0.000 OA
ATOM     28  H   UNL     1       2.926   1.687  20.230  0.00  0.00    +0.000 HD
ENDBRANCH  24  27
BRANCH  25  29
ATOM     29  O   UNL     1       5.038   2.199  19.940  0.00  0.00    +0.000 OA
ATOM     30  H   UNL     1       4.307   1.616  20.226  0.00  0.00    +0.000 HD
ENDBRANCH  25  29
ENDBRANCH  18  21
ENDBRANCH  16  17
ENDBRANCH   1  16
TORSDOF 9
ENDMDL
MODEL 8
REMARK VINA RESULT:      -7.0      0.941      6.339
REMARK  Name = 
REMARK  9 active torsions:
REMARK  status: ('A' for Active; 'I' for Inactive)
REMARK    1  A    between atoms: C_2  and  C_17
REMARK    2  A    between atoms: N_3  and  C_4
REMARK    3  A    between atoms: C_4  and  C_5
REMARK    4  A    between atoms: C_5  and  N_6
REMARK    5  A    between atoms: C_7  and  C_9
REMARK    6  A    between atoms: C_12  and  O_13
REMARK    7  A    between atoms: C_14  and  O_15
REMARK    8  A    between atoms: C_20  and  O_21
REMARK    9  A    between atoms: C_22  and  O_23
REMARK                            x       y       z     vdW  Elec       q    Type
REMARK                         _______ _______ _______ _____ _____    ______ ____
ROOT
ATOM      1  C   UNL     1       2.773   3.021  20.097  0.00  0.00    +0.000 C 
ENDROOT
BRANCH   1   4
ATOM      2  O   UNL     1       2.234   5.402  21.493  0.00  0.00    +0.000 OA
ATOM      3  C   UNL     1       2.319   5.440  20.268  0.00  0.00    +0.000 C 
ATOM      4  N   UNL     1       2.574   4.329  19.495  0.00  0.00    +0.000 N 
ATOM      5  H   UNL     1       2.828   4.445  18.521  0.00  0.00    +0.000 HD
BRANCH   3   6
ATOM      6  C   UNL     1       2.171   6.738  19.561  0.00  0.00    +0.000 A 
ATOM      7  C   UNL     1       2.697   6.842  18.261  0.00  0.00    +0.000 A 
ATOM      8  C   UNL     1       2.614   8.043  17.552  0.00  0.00    +0.000 A 
ATOM      9  C   UNL     1       2.015   9.139  18.158  0.00  0.00    +0.000 A 
ATOM     10  C   UNL     1       1.504   9.040  19.452  0.00  0.00    +0.000 A 
ATOM     11  C   UNL     1       1.574   7.851  20.165  0.00  0.00    +0.000 A 
BRANCH   9  12
ATOM     12  O   UNL     1       1.912  10.346  17.524  0.00  0.00    +0.000 OA
ATOM     13  H   UNL     1       1.735  10.182  16.582  0.00  0.00    +0.000 HD
ENDBRANCH   9  12
BRANCH  10  14
ATOM     14  O   UNL     1       0.933  10.133  20.039  0.00  0.00    +0.000 OA
ATOM     15  H   UNL     1       0.771   9.860  20.965  0.00  0.00    +0.000 HD
ENDBRANCH  10  14
ENDBRANCH   3   6
ENDBRANCH   1   4
BRANCH   1  16
ATOM     16  C   UNL     1       3.517   2.042  19.179  0.00  0.00    +0.000 C 
BRANCH  16  17
ATOM     17  N   UNL     1       4.459   2.709  18.301  0.00  0.00    +0.000 N 
ATOM     18  C   UNL     1       4.064   3.321  17.134  0.00  0.00    +0.000 C 
ATOM     19  O   UNL     1       2.895   3.407  16.774  0.00  0.00    +0.000 OA
ATOM     20  H   UNL     1       5.409   2.808  18.631  0.00  0.00    +0.000 HD
BRANCH  18  21
ATOM     21  C   UNL     1       5.148   3.934  16.317  0.00  0.00    +0.000 A 
ATOM     22  C   UNL     1       5.377   3.440  15.021  0.00  0.00    +0.000 A 
ATOM     23  C   UNL     1       6.367   4.005  14.209  0.00  0.00    +0.000 A 
ATOM     24  C   UNL     1       7.126   5.056  14.707  0.00  0.00    +0.000 A 
ATOM     25  C   UNL     1       6.916   5.529  16.000  0.00  0.00    +0.000 A 
ATOM     26  C   UNL     1       5.941   4.974  16.816  0.00  0.00    +0.000 A 
BRANCH  24  27
ATOM     27  O   UNL     1       8.100   5.663  13.963  0.00  0.00    +0.000 OA
ATOM     28  H   UNL     1       8.931   5.639  14.473  0.00  0.00    +0.000 HD
ENDBRANCH  24  27
BRANCH  25  29
ATOM     29  O   UNL     1       7.674   6.556  16.485  0.00  0.00    +0.000 OA
ATOM     30  H   UNL     1       7.846   6.317  17.417  0.00  0.00    +0.000 HD
ENDBRANCH  25  29
ENDBRANCH  18  21
ENDBRANCH  16  17
ENDBRANCH   1  16
TORSDOF 9
ENDMDL
MODEL 9
REMARK VINA RESULT:      -7.0      0.573      6.547
REMARK  Name = 
REMARK  9 active torsions:
REMARK  status: ('A' for Active; 'I' for Inactive)
REMARK    1  A    between atoms: C_2  and  C_17
REMARK    2  A    between atoms: N_3  and  C_4
REMARK    3  A    between atoms: C_4  and  C_5
REMARK    4  A    between atoms: C_5  and  N_6
REMARK    5  A    between atoms: C_7  and  C_9
REMARK    6  A    between atoms: C_12  and  O_13
REMARK    7  A    between atoms: C_14  and  O_15
REMARK    8  A    between atoms: C_20  and  O_21
REMARK    9  A    between atoms: C_22  and  O_23
REMARK                            x       y       z     vdW  Elec       q    Type
REMARK                         _______ _______ _______ _____ _____    ______ ____
ROOT
ATOM      1  C   UNL     1       2.936   3.013  20.324  0.00  0.00    +0.000 C 
ENDROOT
BRANCH   1   4
ATOM      2  O   UNL     1       4.398   5.384  19.941  0.00  0.00    +0.000 OA
ATOM      3  C   UNL     1       3.172   5.442  19.966  0.00  0.00    +0.000 C 
ATOM      4  N   UNL     1       2.368   4.340  20.153  0.00  0.00    +0.000 N 
ATOM      5  H   UNL     1       1.374   4.408  19.969  0.00  0.00    +0.000 HD
BRANCH   3   6
ATOM      6  C   UNL     1       2.494   6.748  19.760  0.00  0.00    +0.000 A 
ATOM      7  C   UNL     1       1.702   7.249  20.807  0.00  0.00    +0.000 A 
ATOM      8  C   UNL     1       1.016   8.459  20.666  0.00  0.00    +0.000 A 
ATOM      9  C   UNL     1       1.118   9.152  19.468  0.00  0.00    +0.000 A 
ATOM     10  C   UNL     1       1.894   8.648  18.424  0.00  0.00    +0.000 A 
ATOM     11  C   UNL     1       2.585   7.451  18.553  0.00  0.00    +0.000 A 
BRANCH   9  12
ATOM     12  O   UNL     1       0.463  10.335  19.261  0.00  0.00    +0.000 OA
ATOM     13  H   UNL     1       0.403  10.485  18.302  0.00  0.00    +0.000 HD
ENDBRANCH   9  12
BRANCH  10  14
ATOM     14  O   UNL     1       1.970   9.335  17.246  0.00  0.00    +0.000 OA
ATOM     15  H   UNL     1       1.039   9.506  16.999  0.00  0.00    +0.000 HD
ENDBRANCH  10  14
ENDBRANCH   3   6
ENDBRANCH   1   4
BRANCH   1  16
ATOM     16  C   UNL     1       3.075   2.242  19.005  0.00  0.00    +0.000 C 
BRANCH  16  17
ATOM     17  N   UNL     1       4.081   2.813  18.130  0.00  0.00    +0.000 N 
ATOM     18  C   UNL     1       3.755   3.666  17.100  0.00  0.00    +0.000 C 
ATOM     19  O   UNL     1       2.615   4.055  16.876  0.00  0.00    +0.000 OA
ATOM     20  H   UNL     1       5.049   2.653  18.371  0.00  0.00    +0.000 HD
BRANCH  18  21
ATOM     21  C   UNL     1       4.891   4.145  16.264  0.00  0.00    +0.000 A 
ATOM     22  C   UNL     1       5.680   5.205  16.743  0.00  0.00    +0.000 A 
ATOM     23  C   UNL     1       6.773   5.668  16.003  0.00  0.00    +0.000 A 
ATOM     24  C   UNL     1       7.062   5.072  14.783  0.00  0.00    +0.000 A 
ATOM     25  C   UNL     1       6.264   4.039  14.296  0.00  0.00    +0.000 A 
ATOM     26  C   UNL     1       5.175   3.574  15.018  0.00  0.00    +0.000 A 
BRANCH  24  27
ATOM     27  O   UNL     1       8.122   5.466  14.015  0.00  0.00    +0.000 OA
ATOM     28  H   UNL     1       8.559   4.668  13.666  0.00  0.00    +0.000 HD
ENDBRANCH  24  27
BRANCH  25  29
ATOM     29  O   UNL     1       6.548   3.465  13.090  0.00  0.00    +0.000 OA
ATOM     30  H   UNL     1       5.947   2.696  13.034  0.00  0.00    +0.000 HD
ENDBRANCH  25  29
ENDBRANCH  18  21
ENDBRANCH  16  17
ENDBRANCH   1  16
TORSDOF 9
ENDMDL
