MODEL 1
REMARK VINA RESULT:      -7.8      0.000      0.000
REMARK  Name = 
REMARK  10 active torsions:
REMARK  status: ('A' for Active; 'I' for Inactive)
REMARK    1  A    between atoms: C_1  and  C_2
REMARK    2  A    between atoms: C_2  and  O_3
REMARK    3  A    between atoms: O_3  and  C_4
REMARK    4  A    between atoms: C_4  and  C_6
REMARK    5  A    between atoms: C_9  and  N_10
REMARK    6  A    between atoms: C_11  and  C_13
REMARK    7  A    between atoms: C_13  and  N_14
REMARK    8  A    between atoms: C_19  and  S_20
REMARK    9  A    between atoms: S_20  and  C_21
REMARK   10  A    between atoms: C_21  and  C_22
REMARK                            x       y       z     vdW  Elec       q    Type
REMARK                         _______ _______ _______ _____ _____    ______ ____
ROOT
ATOM      1  N   UNL     1       1.679   9.099  19.711  0.00  0.00    +0.000 N 
ATOM      2  N   UNL     1       1.596   8.149  20.715  0.00  0.00    +0.000 NA
ATOM      3  C   UNL     1       1.782   7.027  20.087  0.00  0.00    +0.000 A 
ATOM      4  C   UNL     1       1.757   5.676  20.656  0.00  0.00    +0.000 A 
ATOM      5  C   UNL     1       1.978   4.647  19.827  0.00  0.00    +0.000 A 
ATOM      6  C   UNL     1       2.252   4.953  18.400  0.00  0.00    +0.000 A 
ATOM      7  N   UNL     1       2.261   6.136  17.876  0.00  0.00    +0.000 NA
ATOM      8  N   UNL     1       2.011   7.146  18.758  0.00  0.00    +0.000 N 
ATOM      9  C   UNL     1       1.919   8.491  18.459  0.00  0.00    +0.000 A 
ATOM     10  O   UNL     1       1.999   9.052  17.380  0.00  0.00    +0.000 OA
ENDROOT
BRANCH   1  11
ATOM     11  C   UNL     1       1.352  10.492  19.909  0.00  0.00    +0.000 C 
BRANCH  11  13
ATOM     12  N   UNL     1      -0.398  11.685  21.148  0.00  0.00    +0.000 N 
ATOM     13  C   UNL     1      -0.132  10.750  20.159  0.00  0.00    +0.000 C 
ATOM     14  O   UNL     1      -0.969  10.064  19.576  0.00  0.00    +0.000 OA
ATOM     15  H   UNL     1       0.410  12.190  21.500  0.00  0.00    +0.000 HD
BRANCH  12  19
ATOM     16  C   UNL     1      -4.164  12.783  22.737  0.00  0.00    +0.000 A 
ATOM     17  C   UNL     1      -3.920  12.926  21.370  0.00  0.00    +0.000 A 
ATOM     18  C   UNL     1      -2.683  12.564  20.831  0.00  0.00    +0.000 A 
ATOM     19  C   UNL     1      -1.669  12.047  21.640  0.00  0.00    +0.000 A 
ATOM     20  C   UNL     1      -1.925  11.872  23.007  0.00  0.00    +0.000 A 
ATOM     21  C   UNL     1      -3.159  12.249  23.555  0.00  0.00    +0.000 A 
BRANCH  16  22
ATOM     22  C   UNL     1      -5.470  13.269  23.256  0.00  0.00    +0.000 C 
ATOM     23  O   UNL     1      -5.625  14.367  23.768  0.00  0.00    +0.000 OA
BRANCH  22  24
ATOM     24  O   UNL     1      -6.403  12.290  23.169  0.00  0.00    +0.000 OA
BRANCH  24  26
ATOM     25  C   UNL     1      -7.679  11.557  21.286  0.00  0.00    +0.000 C 
ATOM     26  C   UNL     1      -7.548  12.614  22.368  0.00  0.00    +0.000 C 
ENDBRANCH  24  26
ENDBRANCH  22  24
ENDBRANCH  16  22
ENDBRANCH  12  19
ENDBRANCH  11  13
ENDBRANCH   1  11
BRANCH   6  27
ATOM     27  S   UNL     1       2.554   3.526  17.438  0.00  0.00    +0.000 S 
BRANCH  27  28
ATOM     28  C   UNL     1       4.246   3.110  17.957  0.00  0.00    +0.000 C 
BRANCH  28  29
ATOM     29  C   UNL     1       5.156   4.315  17.858  0.00  0.00    +0.000 A 
ATOM     30  C   UNL     1       5.406   4.917  16.614  0.00  0.00    +0.000 A 
ATOM     31  C   UNL     1       6.273   6.009  16.511  0.00  0.00    +0.000 A 
ATOM     32  C   UNL     1       6.900   6.505  17.652  0.00  0.00    +0.000 A 
ATOM     33 CL   UNL     1       7.981   7.838  17.522  0.00  0.00    +0.000 Cl
ATOM     34  C   UNL     1       6.662   5.924  18.894  0.00  0.00    +0.000 A 
ATOM     35  C   UNL     1       5.795   4.831  18.998  0.00  0.00    +0.000 A 
ENDBRANCH  28  29
ENDBRANCH  27  28
ENDBRANCH   6  27
TORSDOF 9
ENDMDL
MODEL 2
REMARK VINA RESULT:      -7.5      4.049      6.175
REMARK  Name = 
REMARK  10 active torsions:
REMARK  status: ('A' for Active; 'I' for Inactive)
REMARK    1  A    between atoms: C_1  and  C_2
REMARK    2  A    between atoms: C_2  and  O_3
REMARK    3  A    between atoms: O_3  and  C_4
REMARK    4  A    between atoms: C_4  and  C_6
REMARK    5  A    between atoms: C_9  and  N_10
REMARK    6  A    between atoms: C_11  and  C_13
REMARK    7  A    between atoms: C_13  and  N_14
REMARK    8  A    between atoms: C_19  and  S_20
REMARK    9  A    between atoms: S_20  and  C_21
REMARK   10  A    between atoms: C_21  and  C_22
REMARK                            x       y       z     vdW  Elec       q    Type
REMARK                         _______ _______ _______ _____ _____    ______ ____
ROOT
ATOM      1  N   UNL     1       0.874   8.993  19.893  0.00  0.00    +0.000 N 
ATOM      2  N   UNL     1       1.476   9.139  18.655  0.00  0.00    +0.000 NA
ATOM      3  C   UNL     1       2.288   8.126  18.591  0.00  0.00    +0.000 A 
ATOM      4  C   UNL     1       3.218   7.800  17.505  0.00  0.00    +0.000 A 
ATOM      5  C   UNL     1       3.970   6.700  17.638  0.00  0.00    +0.000 A 
ATOM      6  C   UNL     1       3.789   5.882  18.864  0.00  0.00    +0.000 A 
ATOM      7  N   UNL     1       2.987   6.161  19.840  0.00  0.00    +0.000 NA
ATOM      8  N   UNL     1       2.260   7.301  19.665  0.00  0.00    +0.000 N 
ATOM      9  C   UNL     1       1.367   7.851  20.563  0.00  0.00    +0.000 A 
ATOM     10  O   UNL     1       1.069   7.479  21.685  0.00  0.00    +0.000 OA
ENDROOT
BRANCH   1  11
ATOM     11  C   UNL     1       0.020   9.998  20.483  0.00  0.00    +0.000 C 
BRANCH  11  13
ATOM     12  N   UNL     1       0.817  11.936  19.206  0.00  0.00    +0.000 N 
ATOM     13  C   UNL     1       0.619  11.402  20.471  0.00  0.00    +0.000 C 
ATOM     14  O   UNL     1       0.980  11.913  21.530  0.00  0.00    +0.000 OA
ATOM     15  H   UNL     1       0.424  11.398  18.440  0.00  0.00    +0.000 HD
BRANCH  12  19
ATOM     16  C   UNL     1       2.736  15.577  18.219  0.00  0.00    +0.000 A 
ATOM     17  C   UNL     1       1.443  15.594  18.745  0.00  0.00    +0.000 A 
ATOM     18  C   UNL     1       0.799  14.401  19.079  0.00  0.00    +0.000 A 
ATOM     19  C   UNL     1       1.431  13.168  18.903  0.00  0.00    +0.000 A 
ATOM     20  C   UNL     1       2.741  13.152  18.405  0.00  0.00    +0.000 A 
ATOM     21  C   UNL     1       3.386  14.346  18.054  0.00  0.00    +0.000 A 
BRANCH  16  22
ATOM     22  C   UNL     1       3.326  16.877  17.804  0.00  0.00    +0.000 C 
ATOM     23  O   UNL     1       2.806  17.626  16.992  0.00  0.00    +0.000 OA
BRANCH  22  24
ATOM     24  O   UNL     1       4.547  17.040  18.371  0.00  0.00    +0.000 OA
BRANCH  24  26
ATOM     25  C   UNL     1       5.603  16.436  20.428  0.00  0.00    +0.000 C 
ATOM     26  C   UNL     1       4.529  17.293  19.783  0.00  0.00    +0.000 C 
ENDBRANCH  24  26
ENDBRANCH  22  24
ENDBRANCH  16  22
ENDBRANCH  12  19
ENDBRANCH  11  13
ENDBRANCH   1  11
BRANCH   6  27
ATOM     27  S   UNL     1       4.805   4.460  18.897  0.00  0.00    +0.000 S 
BRANCH  27  28
ATOM     28  C   UNL     1       6.301   5.085  18.072  0.00  0.00    +0.000 C 
BRANCH  28  29
ATOM     29  C   UNL     1       6.294   4.737  16.599  0.00  0.00    +0.000 A 
ATOM     30  C   UNL     1       5.306   3.888  16.074  0.00  0.00    +0.000 A 
ATOM     31  C   UNL     1       5.315   3.535  14.721  0.00  0.00    +0.000 A 
ATOM     32  C   UNL     1       6.314   4.026  13.884  0.00  0.00    +0.000 A 
ATOM     33 CL   UNL     1       6.334   3.578  12.222  0.00  0.00    +0.000 Cl
ATOM     34  C   UNL     1       7.300   4.871  14.386  0.00  0.00    +0.000 A 
ATOM     35  C   UNL     1       7.291   5.225  15.739  0.00  0.00    +0.000 A 
ENDBRANCH  28  29
ENDBRANCH  27  28
ENDBRANCH   6  27
TORSDOF 9
ENDMDL
MODEL 3
REMARK VINA RESULT:      -7.4      4.135      5.755
REMARK  Name = 
REMARK  10 active torsions:
REMARK  status: ('A' for Active; 'I' for Inactive)
REMARK    1  A    between atoms: C_1  and  C_2
REMARK    2  A    between atoms: C_2  and  O_3
REMARK    3  A    between atoms: O_3  and  C_4
REMARK    4  A    between atoms: C_4  and  C_6
REMARK    5  A    between atoms: C_9  and  N_10
REMARK    6  A    between atoms: C_11  and  C_13
REMARK    7  A    between atoms: C_13  and  N_14
REMARK    8  A    between atoms: C_19  and  S_20
REMARK    9  A    between atoms: S_20  and  C_21
REMARK   10  A    between atoms: C_21  and  C_22
REMARK                            x       y       z     vdW  Elec       q    Type
REMARK                         _______ _______ _______ _____ _____    ______ ____
ROOT
ATOM      1  N   UNL     1       0.867   8.889  19.911  0.00  0.00    +0.000 N 
ATOM      2  N   UNL     1       1.445   9.039  18.661  0.00  0.00    +0.000 NA
ATOM      3  C   UNL     1       2.285   8.049  18.595  0.00  0.00    +0.000 A 
ATOM      4  C   UNL     1       3.207   7.739  17.498  0.00  0.00    +0.000 A 
ATOM      5  C   UNL     1       3.993   6.662  17.632  0.00  0.00    +0.000 A 
ATOM      6  C   UNL     1       3.856   5.853  18.869  0.00  0.00    +0.000 A 
ATOM      7  N   UNL     1       3.062   6.120  19.854  0.00  0.00    +0.000 NA
ATOM      8  N   UNL     1       2.299   7.237  19.678  0.00  0.00    +0.000 N 
ATOM      9  C   UNL     1       1.404   7.771  20.585  0.00  0.00    +0.000 A 
ATOM     10  O   UNL     1       1.135   7.403  21.716  0.00  0.00    +0.000 OA
ENDROOT
BRANCH   1  11
ATOM     11  C   UNL     1      -0.006   9.876  20.503  0.00  0.00    +0.000 C 
BRANCH  11  13
ATOM     12  N   UNL     1       0.613  11.929  19.310  0.00  0.00    +0.000 N 
ATOM     13  C   UNL     1       0.584  11.284  20.537  0.00  0.00    +0.000 C 
ATOM     14  O   UNL     1       1.081  11.704  21.581  0.00  0.00    +0.000 OA
ATOM     15  H   UNL     1       0.122  11.456  18.557  0.00  0.00    +0.000 HD
BRANCH  12  19
ATOM     16  C   UNL     1       2.262  15.762  18.601  0.00  0.00    +0.000 A 
ATOM     17  C   UNL     1       2.833  14.639  17.999  0.00  0.00    +0.000 A 
ATOM     18  C   UNL     1       2.297  13.368  18.221  0.00  0.00    +0.000 A 
ATOM     19  C   UNL     1       1.180  13.191  19.039  0.00  0.00    +0.000 A 
ATOM     20  C   UNL     1       0.585  14.322  19.617  0.00  0.00    +0.000 A 
ATOM     21  C   UNL     1       1.129  15.597  19.409  0.00  0.00    +0.000 A 
BRANCH  16  22
ATOM     22  C   UNL     1       2.935  17.071  18.391  0.00  0.00    +0.000 C 
ATOM     23  O   UNL     1       3.711  17.566  19.194  0.00  0.00    +0.000 OA
BRANCH  22  24
ATOM     24  O   UNL     1       2.482  17.656  17.256  0.00  0.00    +0.000 OA
BRANCH  24  26
ATOM     25  C   UNL     1       0.620  18.454  15.987  0.00  0.00    +0.000 C 
ATOM     26  C   UNL     1       1.211  18.311  17.378  0.00  0.00    +0.000 C 
ENDBRANCH  24  26
ENDBRANCH  22  24
ENDBRANCH  16  22
ENDBRANCH  12  19
ENDBRANCH  11  13
ENDBRANCH   1  11
BRANCH   6  27
ATOM     27  S   UNL     1       4.913   4.462  18.901  0.00  0.00    +0.000 S 
BRANCH  27  28
ATOM     28  C   UNL     1       6.378   5.122  18.048  0.00  0.00    +0.000 C 
BRANCH  28  29
ATOM     29  C   UNL     1       6.361   4.758  16.579  0.00  0.00    +0.000 A 
ATOM     30  C   UNL     1       5.407   3.854  16.082  0.00  0.00    +0.000 A 
ATOM     31  C   UNL     1       5.409   3.487  14.733  0.00  0.00    +0.000 A 
ATOM     32  C   UNL     1       6.366   4.019  13.872  0.00  0.00    +0.000 A 
ATOM     33 CL   UNL     1       6.377   3.554  12.214  0.00  0.00    +0.000 Cl
ATOM     34  C   UNL     1       7.317   4.919  14.346  0.00  0.00    +0.000 A 
ATOM     35  C   UNL     1       7.316   5.286  15.695  0.00  0.00    +0.000 A 
ENDBRANCH  28  29
ENDBRANCH  27  28
ENDBRANCH   6  27
TORSDOF 9
ENDMDL
MODEL 4
REMARK VINA RESULT:      -7.4      6.911      9.900
REMARK  Name = 
REMARK  10 active torsions:
REMARK  status: ('A' for Active; 'I' for Inactive)
REMARK    1  A    between atoms: C_1  and  C_2
REMARK    2  A    between atoms: C_2  and  O_3
REMARK    3  A    between atoms: O_3  and  C_4
REMARK    4  A    between atoms: C_4  and  C_6
REMARK    5  A    between atoms: C_9  and  N_10
REMARK    6  A    between atoms: C_11  and  C_13
REMARK    7  A    between atoms: C_13  and  N_14
REMARK    8  A    between atoms: C_19  and  S_20
REMARK    9  A    between atoms: S_20  and  C_21
REMARK   10  A    between atoms: C_21  and  C_22
REMARK                            x       y       z     vdW  Elec       q    Type
REMARK                         _______ _______ _______ _____ _____    ______ ____
ROOT
ATOM      1  N   UNL     1       7.666   6.922  18.426  0.00  0.00    +0.000 N 
ATOM      2  N   UNL     1       7.140   6.919  17.144  0.00  0.00    +0.000 NA
ATOM      3  C   UNL     1       6.349   5.887  17.144  0.00  0.00    +0.000 A 
ATOM      4  C   UNL     1       5.554   5.379  16.022  0.00  0.00    +0.000 A 
ATOM      5  C   UNL     1       4.798   4.294  16.236  0.00  0.00    +0.000 A 
ATOM      6  C   UNL     1       4.805   3.702  17.598  0.00  0.00    +0.000 A 
ATOM      7  N   UNL     1       5.511   4.126  18.595  0.00  0.00    +0.000 NA
ATOM      8  N   UNL     1       6.279   5.219  18.319  0.00  0.00    +0.000 N 
ATOM      9  C   UNL     1       7.156   5.845  19.184  0.00  0.00    +0.000 A 
ATOM     10  O   UNL     1       7.458   5.551  20.327  0.00  0.00    +0.000 OA
ENDROOT
BRANCH   1  11
ATOM     11  C   UNL     1       8.744   7.791  18.838  0.00  0.00    +0.000 C 
BRANCH  11  13
ATOM     12  N   UNL     1       9.544  10.111  18.856  0.00  0.00    +0.000 N 
ATOM     13  C   UNL     1       8.599   9.231  18.350  0.00  0.00    +0.000 C 
ATOM     14  O   UNL     1       7.631   9.538  17.657  0.00  0.00    +0.000 OA
ATOM     15  H   UNL     1      10.301   9.683  19.382  0.00  0.00    +0.000 HD
BRANCH  12  19
ATOM     16  C   UNL     1       9.715  14.271  18.098  0.00  0.00    +0.000 A 
ATOM     17  C   UNL     1       9.015  13.797  19.208  0.00  0.00    +0.000 A 
ATOM     18  C   UNL     1       8.953  12.427  19.473  0.00  0.00    +0.000 A 
ATOM     19  C   UNL     1       9.592  11.503  18.643  0.00  0.00    +0.000 A 
ATOM     20  C   UNL     1      10.324  11.981  17.547  0.00  0.00    +0.000 A 
ATOM     21  C   UNL     1      10.375  13.354  17.268  0.00  0.00    +0.000 A 
BRANCH  16  22
ATOM     22  C   UNL     1       9.666  15.732  17.827  0.00  0.00    +0.000 C 
ATOM     23  O   UNL     1      10.473  16.314  17.119  0.00  0.00    +0.000 OA
BRANCH  22  24
ATOM     24  O   UNL     1       8.680  16.311  18.554  0.00  0.00    +0.000 OA
BRANCH  24  26
ATOM     25  C   UNL     1       8.386  18.306  19.838  0.00  0.00    +0.000 C 
ATOM     26  C   UNL     1       8.607  17.740  18.447  0.00  0.00    +0.000 C 
ENDBRANCH  24  26
ENDBRANCH  22  24
ENDBRANCH  16  22
ENDBRANCH  12  19
ENDBRANCH  11  13
ENDBRANCH   1  11
BRANCH   6  27
ATOM     27  S   UNL     1       3.753   2.316  17.749  0.00  0.00    +0.000 S 
BRANCH  27  28
ATOM     28  C   UNL     1       2.121   3.099  17.575  0.00  0.00    +0.000 C 
BRANCH  28  29
ATOM     29  C   UNL     1       1.997   4.303  18.482  0.00  0.00    +0.000 A 
ATOM     30  C   UNL     1       2.204   5.598  17.978  0.00  0.00    +0.000 A 
ATOM     31  C   UNL     1       2.126   6.712  18.820  0.00  0.00    +0.000 A 
ATOM     32  C   UNL     1       1.844   6.539  20.172  0.00  0.00    +0.000 A 
ATOM     33 CL   UNL     1       1.764   7.909  21.211  0.00  0.00    +0.000 Cl
ATOM     34  C   UNL     1       1.632   5.264  20.690  0.00  0.00    +0.000 A 
ATOM     35  C   UNL     1       1.710   4.149  19.849  0.00  0.00    +0.000 A 
ENDBRANCH  28  29
ENDBRANCH  27  28
ENDBRANCH   6  27
TORSDOF 9
ENDMDL
MODEL 5
REMARK VINA RESULT:      -7.4      1.575      2.176
REMARK  Name = 
REMARK  10 active torsions:
REMARK  status: ('A' for Active; 'I' for Inactive)
REMARK    1  A    between atoms: C_1  and  C_2
REMARK    2  A    between atoms: C_2  and  O_3
REMARK    3  A    between atoms: O_3  and  C_4
REMARK    4  A    between atoms: C_4  and  C_6
REMARK    5  A    between atoms: C_9  and  N_10
REMARK    6  A    between atoms: C_11  and  C_13
REMARK    7  A    between atoms: C_13  and  N_14
REMARK    8  A    between atoms: C_19  and  S_20
REMARK    9  A    between atoms: S_20  and  C_21
REMARK   10  A    between atoms: C_21  and  C_22
REMARK                            x       y       z     vdW  Elec       q    Type
REMARK                         _______ _______ _______ _____ _____    ______ ____
ROOT
ATOM      1  N   UNL     1       1.567   9.150  18.817  0.00  0.00    +0.000 N 
ATOM      2  N   UNL     1       1.204   8.432  19.944  0.00  0.00    +0.000 NA
ATOM      3  C   UNL     1       1.904   7.341  19.846  0.00  0.00    +0.000 A 
ATOM      4  C   UNL     1       1.887   6.191  20.756  0.00  0.00    +0.000 A 
ATOM      5  C   UNL     1       2.695   5.161  20.471  0.00  0.00    +0.000 A 
ATOM      6  C   UNL     1       3.560   5.270  19.270  0.00  0.00    +0.000 A 
ATOM      7  N   UNL     1       3.577   6.267  18.447  0.00  0.00    +0.000 NA
ATOM      8  N   UNL     1       2.722   7.281  18.770  0.00  0.00    +0.000 N 
ATOM      9  C   UNL     1       2.509   8.436  18.044  0.00  0.00    +0.000 A 
ATOM     10  O   UNL     1       2.987   8.780  16.977  0.00  0.00    +0.000 OA
ENDROOT
BRANCH   1  11
ATOM     11  C   UNL     1       0.901  10.364  18.402  0.00  0.00    +0.000 C 
BRANCH  11  13
ATOM     12  N   UNL     1      -0.202  11.445  20.308  0.00  0.00    +0.000 N 
ATOM     13  C   UNL     1      -0.380  10.663  19.177  0.00  0.00    +0.000 C 
ATOM     14  O   UNL     1      -1.431  10.125  18.835  0.00  0.00    +0.000 OA
ATOM     15  H   UNL     1       0.726  11.842  20.423  0.00  0.00    +0.000 HD
BRANCH  12  19
ATOM     16  C   UNL     1      -3.249  12.533  23.037  0.00  0.00    +0.000 A 
ATOM     17  C   UNL     1      -2.228  11.673  23.444  0.00  0.00    +0.000 A 
ATOM     18  C   UNL     1      -1.214  11.308  22.556  0.00  0.00    +0.000 A 
ATOM     19  C   UNL     1      -1.192  11.798  21.248  0.00  0.00    +0.000 A 
ATOM     20  C   UNL     1      -2.199  12.688  20.849  0.00  0.00    +0.000 A 
ATOM     21  C   UNL     1      -3.227  13.044  21.732  0.00  0.00    +0.000 A 
BRANCH  16  22
ATOM     22  C   UNL     1      -4.343  12.809  24.006  0.00  0.00    +0.000 C 
ATOM     23  O   UNL     1      -4.738  11.996  24.826  0.00  0.00    +0.000 OA
BRANCH  22  24
ATOM     24  O   UNL     1      -4.884  14.029  23.768  0.00  0.00    +0.000 OA
BRANCH  24  26
ATOM     25  C   UNL     1      -6.667  13.017  22.538  0.00  0.00    +0.000 C 
ATOM     26  C   UNL     1      -6.309  14.037  23.604  0.00  0.00    +0.000 C 
ENDBRANCH  24  26
ENDBRANCH  22  24
ENDBRANCH  16  22
ENDBRANCH  12  19
ENDBRANCH  11  13
ENDBRANCH   1  11
BRANCH   6  27
ATOM     27  S   UNL     1       4.585   3.875  19.033  0.00  0.00    +0.000 S 
BRANCH  27  28
ATOM     28  C   UNL     1       4.115   3.382  17.347  0.00  0.00    +0.000 C 
BRANCH  28  29
ATOM     29  C   UNL     1       5.121   3.886  16.334  0.00  0.00    +0.000 A 
ATOM     30  C   UNL     1       6.301   4.519  16.759  0.00  0.00    +0.000 A 
ATOM     31  C   UNL     1       7.216   5.018  15.827  0.00  0.00    +0.000 A 
ATOM     32  C   UNL     1       6.957   4.891  14.465  0.00  0.00    +0.000 A 
ATOM     33 CL   UNL     1       8.077   5.520  13.319  0.00  0.00    +0.000 Cl
ATOM     34  C   UNL     1       5.795   4.264  14.025  0.00  0.00    +0.000 A 
ATOM     35  C   UNL     1       4.878   3.764  14.956  0.00  0.00    +0.000 A 
ENDBRANCH  28  29
ENDBRANCH  27  28
ENDBRANCH   6  27
TORSDOF 9
ENDMDL
MODEL 6
REMARK VINA RESULT:      -7.3      5.275      9.234
REMARK  Name = 
REMARK  10 active torsions:
REMARK  status: ('A' for Active; 'I' for Inactive)
REMARK    1  A    between atoms: C_1  and  C_2
REMARK    2  A    between atoms: C_2  and  O_3
REMARK    3  A    between atoms: O_3  and  C_4
REMARK    4  A    between atoms: C_4  and  C_6
REMARK    5  A    between atoms: C_9  and  N_10
REMARK    6  A    between atoms: C_11  and  C_13
REMARK    7  A    between atoms: C_13  and  N_14
REMARK    8  A    between atoms: C_19  and  S_20
REMARK    9  A    between atoms: S_20  and  C_21
REMARK   10  A    between atoms: C_21  and  C_22
REMARK                            x       y       z     vdW  Elec       q    Type
REMARK                         _______ _______ _______ _____ _____    ______ ____
ROOT
ATOM      1  N   UNL     1       1.174  12.851  19.063  0.00  0.00    +0.000 N 
ATOM      2  N   UNL     1       1.494  13.603  17.945  0.00  0.00    +0.000 NA
ATOM      3  C   UNL     1       2.543  14.272  18.319  0.00  0.00    +0.000 A 
ATOM      4  C   UNL     1       3.287  15.266  17.539  0.00  0.00    +0.000 A 
ATOM      5  C   UNL     1       4.350  15.842  18.117  0.00  0.00    +0.000 A 
ATOM      6  C   UNL     1       4.706  15.416  19.493  0.00  0.00    +0.000 A 
ATOM      7  N   UNL     1       4.053  14.554  20.203  0.00  0.00    +0.000 NA
ATOM      8  N   UNL     1       2.969  14.012  19.578  0.00  0.00    +0.000 N 
ATOM      9  C   UNL     1       2.078  13.107  20.119  0.00  0.00    +0.000 A 
ATOM     10  O   UNL     1       2.037  12.636  21.242  0.00  0.00    +0.000 OA
ENDROOT
BRANCH   1  11
ATOM     11  C   UNL     1      -0.042  12.080  19.179  0.00  0.00    +0.000 C 
BRANCH  11  13
ATOM     12  N   UNL     1       1.351  10.072  19.396  0.00  0.00    +0.000 N 
ATOM     13  C   UNL     1       0.148  10.585  18.936  0.00  0.00    +0.000 C 
ATOM     14  O   UNL     1      -0.688   9.971  18.275  0.00  0.00    +0.000 OA
ATOM     15  H   UNL     1       1.910  10.707  19.958  0.00  0.00    +0.000 HD
BRANCH  12  19
ATOM     16  C   UNL     1       2.833   6.153  18.798  0.00  0.00    +0.000 A 
ATOM     17  C   UNL     1       2.247   6.494  20.018  0.00  0.00    +0.000 A 
ATOM     18  C   UNL     1       1.750   7.782  20.228  0.00  0.00    +0.000 A 
ATOM     19  C   UNL     1       1.820   8.753  19.228  0.00  0.00    +0.000 A 
ATOM     20  C   UNL     1       2.379   8.402  17.990  0.00  0.00    +0.000 A 
ATOM     21  C   UNL     1       2.893   7.114  17.780  0.00  0.00    +0.000 A 
BRANCH  16  22
ATOM     22  C   UNL     1       3.419   4.792  18.674  0.00  0.00    +0.000 C 
ATOM     23  O   UNL     1       4.490   4.566  18.134  0.00  0.00    +0.000 OA
BRANCH  22  24
ATOM     24  O   UNL     1       2.551   3.863  19.143  0.00  0.00    +0.000 OA
BRANCH  24  26
ATOM     25  C   UNL     1       0.646   2.440  18.894  0.00  0.00    +0.000 C 
ATOM     26  C   UNL     1       1.602   3.379  18.181  0.00  0.00    +0.000 C 
ENDBRANCH  24  26
ENDBRANCH  22  24
ENDBRANCH  16  22
ENDBRANCH  12  19
ENDBRANCH  11  13
ENDBRANCH   1  11
BRANCH   6  27
ATOM     27  S   UNL     1       6.128  16.219  20.114  0.00  0.00    +0.000 S 
BRANCH  27  28
ATOM     28  C   UNL     1       7.125  16.376  18.602  0.00  0.00    +0.000 C 
BRANCH  28  29
ATOM     29  C   UNL     1       7.994  15.154  18.396  0.00  0.00    +0.000 A 
ATOM     30  C   UNL     1       9.360  15.190  18.720  0.00  0.00    +0.000 A 
ATOM     31  C   UNL     1      10.175  14.075  18.499  0.00  0.00    +0.000 A 
ATOM     32  C   UNL     1       9.630  12.918  17.949  0.00  0.00    +0.000 A 
ATOM     33 CL   UNL     1      10.636  11.551  17.661  0.00  0.00    +0.000 Cl
ATOM     34  C   UNL     1       8.277  12.862  17.624  0.00  0.00    +0.000 A 
ATOM     35  C   UNL     1       7.462  13.977  17.845  0.00  0.00    +0.000 A 
ENDBRANCH  28  29
ENDBRANCH  27  28
ENDBRANCH   6  27
TORSDOF 9
ENDMDL
MODEL 7
REMARK VINA RESULT:      -7.3      5.323      9.341
REMARK  Name = 
REMARK  10 active torsions:
REMARK  status: ('A' for Active; 'I' for Inactive)
REMARK    1  A    between atoms: C_1  and  C_2
REMARK    2  A    between atoms: C_2  and  O_3
REMARK    3  A    between atoms: O_3  and  C_4
REMARK    4  A    between atoms: C_4  and  C_6
REMARK    5  A    between atoms: C_9  and  N_10
REMARK    6  A    between atoms: C_11  and  C_13
REMARK    7  A    between atoms: C_13  and  N_14
REMARK    8  A    between atoms: C_19  and  S_20
REMARK    9  A    between atoms: S_20  and  C_21
REMARK   10  A    between atoms: C_21  and  C_22
REMARK                            x       y       z     vdW  Elec       q    Type
REMARK                         _______ _______ _______ _____ _____    ______ ____
ROOT
ATOM      1  N   UNL     1       1.201  12.984  19.215  0.00  0.00    +0.000 N 
ATOM      2  N   UNL     1       1.519  13.698  18.072  0.00  0.00    +0.000 NA
ATOM      3  C   UNL     1       2.599  14.339  18.406  0.00  0.00    +0.000 A 
ATOM      4  C   UNL     1       3.358  15.288  17.586  0.00  0.00    +0.000 A 
ATOM      5  C   UNL     1       4.454  15.839  18.124  0.00  0.00    +0.000 A 
ATOM      6  C   UNL     1       4.828  15.433  19.503  0.00  0.00    +0.000 A 
ATOM      7  N   UNL     1       4.163  14.611  20.248  0.00  0.00    +0.000 NA
ATOM      8  N   UNL     1       3.046  14.093  19.660  0.00  0.00    +0.000 N 
ATOM      9  C   UNL     1       2.137  13.232  20.243  0.00  0.00    +0.000 A 
ATOM     10  O   UNL     1       2.107  12.790  21.379  0.00  0.00    +0.000 OA
ENDROOT
BRANCH   1  11
ATOM     11  C   UNL     1      -0.038  12.259  19.378  0.00  0.00    +0.000 C 
BRANCH  11  13
ATOM     12  N   UNL     1       1.228  10.169  19.599  0.00  0.00    +0.000 N 
ATOM     13  C   UNL     1       0.079  10.762  19.098  0.00  0.00    +0.000 C 
ATOM     14  O   UNL     1      -0.757  10.216  18.381  0.00  0.00    +0.000 OA
ATOM     15  H   UNL     1       1.794  10.756  20.205  0.00  0.00    +0.000 HD
BRANCH  12  19
ATOM     16  C   UNL     1       2.363   6.118  19.133  0.00  0.00    +0.000 A 
ATOM     17  C   UNL     1       2.512   7.007  18.067  0.00  0.00    +0.000 A 
ATOM     18  C   UNL     1       2.145   8.348  18.207  0.00  0.00    +0.000 A 
ATOM     19  C   UNL     1       1.631   8.831  19.412  0.00  0.00    +0.000 A 
ATOM     20  C   UNL     1       1.512   7.946  20.493  0.00  0.00    +0.000 A 
ATOM     21  C   UNL     1       1.864   6.596  20.352  0.00  0.00    +0.000 A 
BRANCH  16  22
ATOM     22  C   UNL     1       2.691   4.689  18.886  0.00  0.00    +0.000 C 
ATOM     23  O   UNL     1       2.141   4.008  18.035  0.00  0.00    +0.000 OA
BRANCH  22  24
ATOM     24  O   UNL     1       3.591   4.250  19.799  0.00  0.00    +0.000 OA
BRANCH  24  26
ATOM     25  C   UNL     1       5.665   4.601  18.664  0.00  0.00    +0.000 C 
ATOM     26  C   UNL     1       4.725   3.563  19.250  0.00  0.00    +0.000 C 
ENDBRANCH  24  26
ENDBRANCH  22  24
ENDBRANCH  16  22
ENDBRANCH  12  19
ENDBRANCH  11  13
ENDBRANCH   1  11
BRANCH   6  27
ATOM     27  S   UNL     1       6.291  16.201  20.071  0.00  0.00    +0.000 S 
BRANCH  27  28
ATOM     28  C   UNL     1       7.191  16.430  18.508  0.00  0.00    +0.000 C 
BRANCH  28  29
ATOM     29  C   UNL     1       8.111  15.260  18.235  0.00  0.00    +0.000 A 
ATOM     30  C   UNL     1       7.581  14.006  17.889  0.00  0.00    +0.000 A 
ATOM     31  C   UNL     1       8.425  12.912  17.670  0.00  0.00    +0.000 A 
ATOM     32  C   UNL     1       9.803  13.064  17.798  0.00  0.00    +0.000 A 
ATOM     33 CL   UNL     1      10.839  11.713  17.544  0.00  0.00    +0.000 Cl
ATOM     34  C   UNL     1      10.347  14.300  18.136  0.00  0.00    +0.000 A 
ATOM     35  C   UNL     1       9.504  15.395  18.356  0.00  0.00    +0.000 A 
ENDBRANCH  28  29
ENDBRANCH  27  28
ENDBRANCH   6  27
TORSDOF 9
ENDMDL
MODEL 8
REMARK VINA RESULT:      -7.3      4.371     10.918
REMARK  Name = 
REMARK  10 active torsions:
REMARK  status: ('A' for Active; 'I' for Inactive)
REMARK    1  A    between atoms: C_1  and  C_2
REMARK    2  A    between atoms: C_2  and  O_3
REMARK    3  A    between atoms: O_3  and  C_4
REMARK    4  A    between atoms: C_4  and  C_6
REMARK    5  A    between atoms: C_9  and  N_10
REMARK    6  A    between atoms: C_11  and  C_13
REMARK    7  A    between atoms: C_13  and  N_14
REMARK    8  A    between atoms: C_19  and  S_20
REMARK    9  A    between atoms: S_20  and  C_21
REMARK   10  A    between atoms: C_21  and  C_22
REMARK                            x       y       z     vdW  Elec       q    Type
REMARK                         _______ _______ _______ _____ _____    ______ ____
ROOT
ATOM      1  N   UNL     1       1.364   7.777  20.522  0.00  0.00    +0.000 N 
ATOM      2  N   UNL     1       1.829   8.491  19.430  0.00  0.00    +0.000 NA
ATOM      3  C   UNL     1       1.158   9.602  19.486  0.00  0.00    +0.000 A 
ATOM      4  C   UNL     1       1.217  10.724  18.543  0.00  0.00    +0.000 A 
ATOM      5  C   UNL     1       0.437  11.785  18.788  0.00  0.00    +0.000 A 
ATOM      6  C   UNL     1      -0.412  11.754  20.006  0.00  0.00    +0.000 A 
ATOM      7  N   UNL     1      -0.491  10.768  20.839  0.00  0.00    +0.000 NA
ATOM      8  N   UNL     1       0.307   9.705  20.534  0.00  0.00    +0.000 N 
ATOM      9  C   UNL     1       0.384   8.512  21.225  0.00  0.00    +0.000 A 
ATOM     10  O   UNL     1      -0.245   8.140  22.201  0.00  0.00    +0.000 OA
ENDROOT
BRANCH   1  11
ATOM     11  C   UNL     1       1.697   6.392  20.764  0.00  0.00    +0.000 C 
BRANCH  11  13
ATOM     12  N   UNL     1       3.560   6.188  19.181  0.00  0.00    +0.000 N 
ATOM     13  C   UNL     1       2.325   5.688  19.563  0.00  0.00    +0.000 C 
ATOM     14  O   UNL     1       1.679   4.832  18.961  0.00  0.00    +0.000 OA
ATOM     15  H   UNL     1       3.971   6.868  19.813  0.00  0.00    +0.000 HD
BRANCH  12  19
ATOM     16  C   UNL     1       5.846   5.101  15.789  0.00  0.00    +0.000 A 
ATOM     17  C   UNL     1       5.730   4.214  16.860  0.00  0.00    +0.000 A 
ATOM     18  C   UNL     1       4.976   4.557  17.985  0.00  0.00    +0.000 A 
ATOM     19  C   UNL     1       4.317   5.786  18.062  0.00  0.00    +0.000 A 
ATOM     20  C   UNL     1       4.407   6.664  16.972  0.00  0.00    +0.000 A 
ATOM     21  C   UNL     1       5.175   6.329  15.848  0.00  0.00    +0.000 A 
BRANCH  16  22
ATOM     22  C   UNL     1       6.735   4.706  14.664  0.00  0.00    +0.000 C 
ATOM     23  O   UNL     1       7.752   5.312  14.364  0.00  0.00    +0.000 OA
BRANCH  22  24
ATOM     24  O   UNL     1       6.196   3.667  13.982  0.00  0.00    +0.000 OA
BRANCH  24  26
ATOM     25  C   UNL     1       5.176   3.147  11.883  0.00  0.00    +0.000 C 
ATOM     26  C   UNL     1       6.419   3.693  12.565  0.00  0.00    +0.000 C 
ENDBRANCH  24  26
ENDBRANCH  22  24
ENDBRANCH  16  22
ENDBRANCH  12  19
ENDBRANCH  11  13
ENDBRANCH   1  11
BRANCH   6  27
ATOM     27  S   UNL     1      -1.353  13.210  20.223  0.00  0.00    +0.000 S 
BRANCH  27  28
ATOM     28  C   UNL     1      -0.479  14.356  19.114  0.00  0.00    +0.000 C 
BRANCH  28  29
ATOM     29  C   UNL     1       0.729  14.958  19.799  0.00  0.00    +0.000 A 
ATOM     30  C   UNL     1       1.834  15.387  19.045  0.00  0.00    +0.000 A 
ATOM     31  C   UNL     1       2.967  15.911  19.675  0.00  0.00    +0.000 A 
ATOM     32  C   UNL     1       3.005  16.006  21.063  0.00  0.00    +0.000 A 
ATOM     33 CL   UNL     1       4.407  16.636  21.839  0.00  0.00    +0.000 Cl
ATOM     34  C   UNL     1       1.919  15.589  21.828  0.00  0.00    +0.000 A 
ATOM     35  C   UNL     1       0.785  15.065  21.198  0.00  0.00    +0.000 A 
ENDBRANCH  28  29
ENDBRANCH  27  28
ENDBRANCH   6  27
TORSDOF 9
ENDMDL
MODEL 9
REMARK VINA RESULT:      -7.3      4.716     10.865
REMARK  Name = 
REMARK  10 active torsions:
REMARK  status: ('A' for Active; 'I' for Inactive)
REMARK    1  A    between atoms: C_1  and  C_2
REMARK    2  A    between atoms: C_2  and  O_3
REMARK    3  A    between atoms: O_3  and  C_4
REMARK    4  A    between atoms: C_4  and  C_6
REMARK    5  A    between atoms: C_9  and  N_10
REMARK    6  A    between atoms: C_11  and  C_13
REMARK    7  A    between atoms: C_13  and  N_14
REMARK    8  A    between atoms: C_19  and  S_20
REMARK    9  A    between atoms: S_20  and  C_21
REMARK   10  A    between atoms: C_21  and  C_22
REMARK                            x       y       z     vdW  Elec       q    Type
REMARK                         _______ _______ _______ _____ _____    ______ ____
ROOT
ATOM      1  N   UNL     1       1.349   8.229  20.520  0.00  0.00    +0.000 N 
ATOM      2  N   UNL     1       1.221   8.828  19.278  0.00  0.00    +0.000 NA
ATOM      3  C   UNL     1       1.038  10.082  19.563  0.00  0.00    +0.000 A 
ATOM      4  C   UNL     1       0.801  11.182  18.622  0.00  0.00    +0.000 A 
ATOM      5  C   UNL     1       0.639  12.411  19.129  0.00  0.00    +0.000 A 
ATOM      6  C   UNL     1       0.731  12.571  20.602  0.00  0.00    +0.000 A 
ATOM      7  N   UNL     1       0.922  11.612  21.449  0.00  0.00    +0.000 NA
ATOM      8  N   UNL     1       1.061  10.378  20.884  0.00  0.00    +0.000 N 
ATOM      9  C   UNL     1       1.230   9.183  21.555  0.00  0.00    +0.000 A 
ATOM     10  O   UNL     1       1.252   8.964  22.754  0.00  0.00    +0.000 OA
ENDROOT
BRANCH   1  11
ATOM     11  C   UNL     1       1.386   6.798  20.710  0.00  0.00    +0.000 C 
BRANCH  11  13
ATOM     12  N   UNL     1       2.778   6.636  18.695  0.00  0.00    +0.000 N 
ATOM     13  C   UNL     1       2.511   6.101  19.947  0.00  0.00    +0.000 C 
ATOM     14  O   UNL     1       3.018   5.084  20.416  0.00  0.00    +0.000 OA
ATOM     15  H   UNL     1       2.296   7.503  18.480  0.00  0.00    +0.000 HD
BRANCH  12  19
ATOM     16  C   UNL     1       5.607   5.242  15.873  0.00  0.00    +0.000 A 
ATOM     17  C   UNL     1       4.748   4.337  16.498  0.00  0.00    +0.000 A 
ATOM     18  C   UNL     1       3.807   4.783  17.429  0.00  0.00    +0.000 A 
ATOM     19  C   UNL     1       3.697   6.138  17.750  0.00  0.00    +0.000 A 
ATOM     20  C   UNL     1       4.537   7.051  17.097  0.00  0.00    +0.000 A 
ATOM     21  C   UNL     1       5.494   6.606  16.174  0.00  0.00    +0.000 A 
BRANCH  16  22
ATOM     22  C   UNL     1       6.642   4.688  14.960  0.00  0.00    +0.000 C 
ATOM     23  O   UNL     1       7.698   5.251  14.718  0.00  0.00    +0.000 OA
BRANCH  22  24
ATOM     24  O   UNL     1       6.192   3.551  14.377  0.00  0.00    +0.000 OA
BRANCH  24  26
ATOM     25  C   UNL     1       6.748   3.529  12.052  0.00  0.00    +0.000 C 
ATOM     26  C   UNL     1       5.635   3.722  13.066  0.00  0.00    +0.000 C 
ENDBRANCH  24  26
ENDBRANCH  22  24
ENDBRANCH  16  22
ENDBRANCH  12  19
ENDBRANCH  11  13
ENDBRANCH   1  11
BRANCH   6  27
ATOM     27  S   UNL     1       0.533  14.225  21.127  0.00  0.00    +0.000 S 
BRANCH  27  28
ATOM     28  C   UNL     1       0.722  15.114  19.551  0.00  0.00    +0.000 C 
BRANCH  28  29
ATOM     29  C   UNL     1       2.144  15.601  19.371  0.00  0.00    +0.000 A 
ATOM     30  C   UNL     1       2.779  16.334  20.386  0.00  0.00    +0.000 A 
ATOM     31  C   UNL     1       4.079  16.817  20.210  0.00  0.00    +0.000 A 
ATOM     32  C   UNL     1       4.753  16.573  19.016  0.00  0.00    +0.000 A 
ATOM     33 CL   UNL     1       6.348  17.181  18.794  0.00  0.00    +0.000 Cl
ATOM     34  C   UNL     1       4.142  15.844  17.999  0.00  0.00    +0.000 A 
ATOM     35  C   UNL     1       2.841  15.361  18.175  0.00  0.00    +0.000 A 
ENDBRANCH  28  29
ENDBRANCH  27  28
ENDBRANCH   6  27
TORSDOF 9
ENDMDL
