MODEL 1
REMARK VINA RESULT:      -7.3      0.000      0.000
REMARK  Name = 
REMARK  7 active torsions:
REMARK  status: ('A' for Active; 'I' for Inactive)
REMARK    1  A    between atoms: C_1  and  C_2
REMARK    2  A    between atoms: C_2  and  N_3
REMARK    3  A    between atoms: N_3  and  C_4
REMARK    4  A    between atoms: N_3  and  C_18
REMARK    5  A    between atoms: C_4  and  C_5
REMARK    6  A    between atoms: N_10  and  C_11
REMARK    7  A    between atoms: C_18  and  C_19
REMARK                            x       y       z     vdW  Elec       q    Type
REMARK                         _______ _______ _______ _____ _____    ______ ____
ROOT
ATOM      1  C   UNL     1       2.015   7.074  19.995  0.00  0.00    +0.000 C 
ATOM      2  O   UNL     1       1.519   7.714  20.923  0.00  0.00    +0.000 OA
ATOM      3  N   UNL     1       2.419   7.663  18.812  0.00  0.00    +0.000 N 
ATOM      4  C   UNL     1       1.952   8.867  18.320  0.00  0.00    +0.000 C 
ATOM      5  O   UNL     1       2.175   9.173  17.153  0.00  0.00    +0.000 OA
ATOM      6  N   UNL     1       1.256   9.621  19.223  0.00  0.00    +0.000 N 
ATOM      7  H   UNL     1       2.924   7.129  18.122  0.00  0.00    +0.000 HD
ATOM      8  H   UNL     1       1.495   9.425  20.200  0.00  0.00    +0.000 HD
ENDROOT
BRANCH   6   9
ATOM      9  C   UNL     1       0.686  10.873  18.972  0.00  0.00    +0.000 A 
ATOM     10  C   UNL     1       1.447  12.039  18.990  0.00  0.00    +0.000 A 
ATOM     11  C   UNL     1       0.854  13.247  18.612  0.00  0.00    +0.000 A 
ATOM     12  C   UNL     1      -0.495  13.297  18.259  0.00  0.00    +0.000 A 
ATOM     13  C   UNL     1      -1.257  12.130  18.262  0.00  0.00    +0.000 A 
ATOM     14  C   UNL     1      -0.658  10.921  18.598  0.00  0.00    +0.000 A 
ATOM     15  F   UNL     1      -1.399   9.807  18.625  0.00  0.00    +0.000 F 
ENDBRANCH   6   9
BRANCH   1  16
ATOM     16  C   UNL     1       2.288   5.573  20.110  0.00  0.00    +0.000 C 
BRANCH  16  17
ATOM     17  N   UNL     1       2.699   4.940  18.828  0.00  0.00    +0.000 NA
BRANCH  17  19
ATOM     18  C   UNL     1       0.990   3.176  19.387  0.00  0.00    +0.000 C 
ATOM     19  C   UNL     1       1.726   3.966  18.311  0.00  0.00    +0.000 C 
ENDBRANCH  17  19
BRANCH  17  20
ATOM     20  C   UNL     1       4.044   4.321  18.945  0.00  0.00    +0.000 C 
BRANCH  20  21
ATOM     21  C   UNL     1       5.174   5.203  18.448  0.00  0.00    +0.000 A 
ATOM     22  C   UNL     1       6.395   5.271  19.131  0.00  0.00    +0.000 A 
ATOM     23  C   UNL     1       7.419   6.099  18.664  0.00  0.00    +0.000 A 
ATOM     24  C   UNL     1       7.235   6.862  17.511  0.00  0.00    +0.000 A 
ATOM     25  C   UNL     1       6.024   6.804  16.824  0.00  0.00    +0.000 A 
ATOM     26  C   UNL     1       5.000   5.980  17.290  0.00  0.00    +0.000 A 
ENDBRANCH  20  21
ENDBRANCH  17  20
ENDBRANCH  16  17
ENDBRANCH   1  16
TORSDOF 6
ENDMDL
MODEL 2
REMARK VINA RESULT:      -7.3      0.995      1.049
REMARK  Name = 
REMARK  7 active torsions:
REMARK  status: ('A' for Active; 'I' for Inactive)
REMARK    1  A    between atoms: C_1  and  C_2
REMARK    2  A    between atoms: C_2  and  N_3
REMARK    3  A    between atoms: N_3  and  C_4
REMARK    4  A    between atoms: N_3  and  C_18
REMARK    5  A    between atoms: C_4  and  C_5
REMARK    6  A    between atoms: N_10  and  C_11
REMARK    7  A    between atoms: C_18  and  C_19
REMARK                            x       y       z     vdW  Elec       q    Type
REMARK                         _______ _______ _______ _____ _____    ______ ____
ROOT
ATOM      1  C   UNL     1       1.980   7.013  19.999  0.00  0.00    +0.000 C 
ATOM      2  O   UNL     1       1.481   7.650  20.927  0.00  0.00    +0.000 OA
ATOM      3  N   UNL     1       2.401   7.609  18.825  0.00  0.00    +0.000 N 
ATOM      4  C   UNL     1       1.947   8.821  18.339  0.00  0.00    +0.000 C 
ATOM      5  O   UNL     1       2.184   9.136  17.176  0.00  0.00    +0.000 OA
ATOM      6  N   UNL     1       1.250   9.573  19.241  0.00  0.00    +0.000 N 
ATOM      7  H   UNL     1       2.907   7.077  18.135  0.00  0.00    +0.000 HD
ATOM      8  H   UNL     1       1.477   9.367  20.219  0.00  0.00    +0.000 HD
ENDROOT
BRANCH   6   9
ATOM      9  C   UNL     1       0.692  10.832  18.996  0.00  0.00    +0.000 A 
ATOM     10  C   UNL     1       1.466  11.989  19.015  0.00  0.00    +0.000 A 
ATOM     11  C   UNL     1       0.884  13.205  18.642  0.00  0.00    +0.000 A 
ATOM     12  C   UNL     1      -0.465  13.271  18.293  0.00  0.00    +0.000 A 
ATOM     13  C   UNL     1      -1.240  12.111  18.296  0.00  0.00    +0.000 A 
ATOM     14  C   UNL     1      -0.653  10.896  18.627  0.00  0.00    +0.000 A 
ATOM     15  F   UNL     1      -1.405   9.790  18.652  0.00  0.00    +0.000 F 
ENDBRANCH   6   9
BRANCH   1  16
ATOM     16  C   UNL     1       2.239   5.509  20.103  0.00  0.00    +0.000 C 
BRANCH  16  17
ATOM     17  N   UNL     1       2.636   4.880  18.815  0.00  0.00    +0.000 NA
BRANCH  17  19
ATOM     18  C   UNL     1       1.126   2.865  18.709  0.00  0.00    +0.000 C 
ATOM     19  C   UNL     1       1.526   4.212  18.117  0.00  0.00    +0.000 C 
ENDBRANCH  17  19
BRANCH  17  20
ATOM     20  C   UNL     1       3.771   3.942  19.005  0.00  0.00    +0.000 C 
BRANCH  20  21
ATOM     21  C   UNL     1       4.924   4.165  18.045  0.00  0.00    +0.000 A 
ATOM     22  C   UNL     1       6.133   4.722  18.480  0.00  0.00    +0.000 A 
ATOM     23  C   UNL     1       7.179   4.932  17.577  0.00  0.00    +0.000 A 
ATOM     24  C   UNL     1       7.027   4.584  16.235  0.00  0.00    +0.000 A 
ATOM     25  C   UNL     1       5.829   4.031  15.790  0.00  0.00    +0.000 A 
ATOM     26  C   UNL     1       4.784   3.823  16.689  0.00  0.00    +0.000 A 
ENDBRANCH  20  21
ENDBRANCH  17  20
ENDBRANCH  16  17
ENDBRANCH   1  16
TORSDOF 6
ENDMDL
MODEL 3
REMARK VINA RESULT:      -7.2      1.279      1.870
REMARK  Name = 
REMARK  7 active torsions:
REMARK  status: ('A' for Active; 'I' for Inactive)
REMARK    1  A    between atoms: C_1  and  C_2
REMARK    2  A    between atoms: C_2  and  N_3
REMARK    3  A    between atoms: N_3  and  C_4
REMARK    4  A    between atoms: N_3  and  C_18
REMARK    5  A    between atoms: C_4  and  C_5
REMARK    6  A    between atoms: N_10  and  C_11
REMARK    7  A    between atoms: C_18  and  C_19
REMARK                            x       y       z     vdW  Elec       q    Type
REMARK                         _______ _______ _______ _____ _____    ______ ____
ROOT
ATOM      1  C   UNL     1       2.318   6.920  19.762  0.00  0.00    +0.000 C 
ATOM      2  O   UNL     1       1.610   7.219  20.723  0.00  0.00    +0.000 OA
ATOM      3  N   UNL     1       2.601   7.805  18.738  0.00  0.00    +0.000 N 
ATOM      4  C   UNL     1       1.836   8.906  18.401  0.00  0.00    +0.000 C 
ATOM      5  O   UNL     1       2.026   9.472  17.329  0.00  0.00    +0.000 OA
ATOM      6  N   UNL     1       0.905   9.262  19.337  0.00  0.00    +0.000 N 
ATOM      7  H   UNL     1       3.274   7.566  18.028  0.00  0.00    +0.000 HD
ATOM      8  H   UNL     1       1.136   8.961  20.289  0.00  0.00    +0.000 HD
ENDROOT
BRANCH   6   9
ATOM      9  C   UNL     1       0.015  10.336  19.233  0.00  0.00    +0.000 A 
ATOM     10  C   UNL     1      -1.133  10.258  18.448  0.00  0.00    +0.000 A 
ATOM     11  C   UNL     1      -2.051  11.313  18.477  0.00  0.00    +0.000 A 
ATOM     12  C   UNL     1      -1.805  12.449  19.249  0.00  0.00    +0.000 A 
ATOM     13  C   UNL     1      -0.644  12.529  20.017  0.00  0.00    +0.000 A 
ATOM     14  C   UNL     1       0.249  11.464  20.021  0.00  0.00    +0.000 A 
ATOM     15  F   UNL     1       1.374  11.554  20.739  0.00  0.00    +0.000 F 
ENDBRANCH   6   9
BRANCH   1  16
ATOM     16  C   UNL     1       3.002   5.556  19.660  0.00  0.00    +0.000 C 
BRANCH  16  17
ATOM     17  N   UNL     1       3.133   5.055  18.265  0.00  0.00    +0.000 NA
BRANCH  17  19
ATOM     18  C   UNL     1       2.493   2.775  17.407  0.00  0.00    +0.000 C 
ATOM     19  C   UNL     1       2.041   4.161  17.853  0.00  0.00    +0.000 C 
ENDBRANCH  17  19
BRANCH  17  20
ATOM     20  C   UNL     1       4.450   4.402  18.053  0.00  0.00    +0.000 C 
BRANCH  20  21
ATOM     21  C   UNL     1       5.626   5.361  18.078  0.00  0.00    +0.000 A 
ATOM     22  C   UNL     1       5.686   6.457  17.208  0.00  0.00    +0.000 A 
ATOM     23  C   UNL     1       6.784   7.321  17.237  0.00  0.00    +0.000 A 
ATOM     24  C   UNL     1       7.827   7.101  18.137  0.00  0.00    +0.000 A 
ATOM     25  C   UNL     1       7.779   6.014  19.006  0.00  0.00    +0.000 A 
ATOM     26  C   UNL     1       6.685   5.149  18.976  0.00  0.00    +0.000 A 
ENDBRANCH  20  21
ENDBRANCH  17  20
ENDBRANCH  16  17
ENDBRANCH   1  16
TORSDOF 6
ENDMDL
MODEL 4
REMARK VINA RESULT:      -7.2      1.395      1.972
REMARK  Name = 
REMARK  7 active torsions:
REMARK  status: ('A' for Active; 'I' for Inactive)
REMARK    1  A    between atoms: C_1  and  C_2
REMARK    2  A    between atoms: C_2  and  N_3
REMARK    3  A    between atoms: N_3  and  C_4
REMARK    4  A    between atoms: N_3  and  C_18
REMARK    5  A    between atoms: C_4  and  C_5
REMARK    6  A    between atoms: N_10  and  C_11
REMARK    7  A    between atoms: C_18  and  C_19
REMARK                            x       y       z     vdW  Elec       q    Type
REMARK                         _______ _______ _______ _____ _____    ______ ____
ROOT
ATOM      1  C   UNL     1       2.293   6.849  19.864  0.00  0.00    +0.000 C 
ATOM      2  O   UNL     1       1.533   7.287  20.728  0.00  0.00    +0.000 OA
ATOM      3  N   UNL     1       2.685   7.592  18.767  0.00  0.00    +0.000 N 
ATOM      4  C   UNL     1       1.995   8.670  18.246  0.00  0.00    +0.000 C 
ATOM      5  O   UNL     1       2.284   9.095  17.132  0.00  0.00    +0.000 OA
ATOM      6  N   UNL     1       1.018   9.170  19.061  0.00  0.00    +0.000 N 
ATOM      7  H   UNL     1       3.395   7.245  18.142  0.00  0.00    +0.000 HD
ATOM      8  H   UNL     1       1.168   8.979  20.057  0.00  0.00    +0.000 HD
ENDROOT
BRANCH   6   9
ATOM      9  C   UNL     1       0.185  10.254  18.765  0.00  0.00    +0.000 A 
ATOM     10  C   UNL     1      -0.963  10.102  17.992  0.00  0.00    +0.000 A 
ATOM     11  C   UNL     1      -1.825  11.191  17.829  0.00  0.00    +0.000 A 
ATOM     12  C   UNL     1      -1.523  12.429  18.399  0.00  0.00    +0.000 A 
ATOM     13  C   UNL     1      -0.361  12.580  19.155  0.00  0.00    +0.000 A 
ATOM     14  C   UNL     1       0.476  11.487  19.351  0.00  0.00    +0.000 A 
ATOM     15  F   UNL     1       1.602  11.642  20.057  0.00  0.00    +0.000 F 
ENDBRANCH   6   9
BRANCH   1  16
ATOM     16  C   UNL     1       2.922   5.458  19.976  0.00  0.00    +0.000 C 
BRANCH  16  17
ATOM     17  N   UNL     1       2.769   4.633  18.748  0.00  0.00    +0.000 NA
BRANCH  17  19
ATOM     18  C   UNL     1       0.947   3.399  19.975  0.00  0.00    +0.000 C 
ATOM     19  C   UNL     1       1.469   3.951  18.653  0.00  0.00    +0.000 C 
ENDBRANCH  17  19
BRANCH  17  20
ATOM     20  C   UNL     1       3.880   3.656  18.619  0.00  0.00    +0.000 C 
BRANCH  20  21
ATOM     21  C   UNL     1       4.961   4.077  17.640  0.00  0.00    +0.000 A 
ATOM     22  C   UNL     1       4.744   4.034  16.257  0.00  0.00    +0.000 A 
ATOM     23  C   UNL     1       5.756   4.413  15.372  0.00  0.00    +0.000 A 
ATOM     24  C   UNL     1       6.990   4.842  15.860  0.00  0.00    +0.000 A 
ATOM     25  C   UNL     1       7.218   4.888  17.233  0.00  0.00    +0.000 A 
ATOM     26  C   UNL     1       6.210   4.508  18.118  0.00  0.00    +0.000 A 
ENDBRANCH  20  21
ENDBRANCH  17  20
ENDBRANCH  16  17
ENDBRANCH   1  16
TORSDOF 6
ENDMDL
MODEL 5
REMARK VINA RESULT:      -7.2      1.049      1.721
REMARK  Name = 
REMARK  7 active torsions:
REMARK  status: ('A' for Active; 'I' for Inactive)
REMARK    1  A    between atoms: C_1  and  C_2
REMARK    2  A    between atoms: C_2  and  N_3
REMARK    3  A    between atoms: N_3  and  C_4
REMARK    4  A    between atoms: N_3  and  C_18
REMARK    5  A    between atoms: C_4  and  C_5
REMARK    6  A    between atoms: N_10  and  C_11
REMARK    7  A    between atoms: C_18  and  C_19
REMARK                            x       y       z     vdW  Elec       q    Type
REMARK                         _______ _______ _______ _____ _____    ______ ____
ROOT
ATOM      1  C   UNL     1       2.372   6.966  19.625  0.00  0.00    +0.000 C 
ATOM      2  O   UNL     1       2.255   7.316  18.451  0.00  0.00    +0.000 OA
ATOM      3  N   UNL     1       1.687   7.576  20.659  0.00  0.00    +0.000 N 
ATOM      4  C   UNL     1       1.172   8.858  20.627  0.00  0.00    +0.000 C 
ATOM      5  O   UNL     1       0.815   9.395  21.671  0.00  0.00    +0.000 OA
ATOM      6  N   UNL     1       1.116   9.420  19.383  0.00  0.00    +0.000 N 
ATOM      7  H   UNL     1       1.719   7.192  21.590  0.00  0.00    +0.000 HD
ATOM      8  H   UNL     1       1.072   8.737  18.619  0.00  0.00    +0.000 HD
ENDROOT
BRANCH   6   9
ATOM      9  C   UNL     1       0.636  10.700  19.087  0.00  0.00    +0.000 A 
ATOM     10  C   UNL     1       1.490  11.797  18.998  0.00  0.00    +0.000 A 
ATOM     11  C   UNL     1       0.977  13.028  18.579  0.00  0.00    +0.000 A 
ATOM     12  C   UNL     1      -0.381  13.172  18.291  0.00  0.00    +0.000 A 
ATOM     13  C   UNL     1      -1.234  12.075  18.401  0.00  0.00    +0.000 A 
ATOM     14  C   UNL     1      -0.718  10.841  18.778  0.00  0.00    +0.000 A 
ATOM     15  F   UNL     1      -1.544   9.796  18.907  0.00  0.00    +0.000 F 
ENDBRANCH   6   9
BRANCH   1  16
ATOM     16  C   UNL     1       3.241   5.771  20.026  0.00  0.00    +0.000 C 
BRANCH  16  17
ATOM     17  N   UNL     1       3.387   4.751  18.954  0.00  0.00    +0.000 NA
BRANCH  17  19
ATOM     18  C   UNL     1       1.438   3.514  17.945  0.00  0.00    +0.000 C 
ATOM     19  C   UNL     1       2.451   3.624  19.079  0.00  0.00    +0.000 C 
ENDBRANCH  17  19
BRANCH  17  20
ATOM     20  C   UNL     1       4.786   4.260  18.870  0.00  0.00    +0.000 C 
BRANCH  20  21
ATOM     21  C   UNL     1       5.791   5.325  18.474  0.00  0.00    +0.000 A 
ATOM     22  C   UNL     1       5.546   6.191  17.401  0.00  0.00    +0.000 A 
ATOM     23  C   UNL     1       6.490   7.157  17.044  0.00  0.00    +0.000 A 
ATOM     24  C   UNL     1       7.684   7.269  17.757  0.00  0.00    +0.000 A 
ATOM     25  C   UNL     1       7.940   6.412  18.825  0.00  0.00    +0.000 A 
ATOM     26  C   UNL     1       7.000   5.446  19.181  0.00  0.00    +0.000 A 
ENDBRANCH  20  21
ENDBRANCH  17  20
ENDBRANCH  16  17
ENDBRANCH   1  16
TORSDOF 6
ENDMDL
MODEL 6
REMARK VINA RESULT:      -7.1      1.399      1.736
REMARK  Name = 
REMARK  7 active torsions:
REMARK  status: ('A' for Active; 'I' for Inactive)
REMARK    1  A    between atoms: C_1  and  C_2
REMARK    2  A    between atoms: C_2  and  N_3
REMARK    3  A    between atoms: N_3  and  C_4
REMARK    4  A    between atoms: N_3  and  C_18
REMARK    5  A    between atoms: C_4  and  C_5
REMARK    6  A    between atoms: N_10  and  C_11
REMARK    7  A    between atoms: C_18  and  C_19
REMARK                            x       y       z     vdW  Elec       q    Type
REMARK                         _______ _______ _______ _____ _____    ______ ____
ROOT
ATOM      1  C   UNL     1       2.423   7.005  19.322  0.00  0.00    +0.000 C 
ATOM      2  O   UNL     1       2.227   7.387  18.168  0.00  0.00    +0.000 OA
ATOM      3  N   UNL     1       1.815   7.591  20.417  0.00  0.00    +0.000 N 
ATOM      4  C   UNL     1       1.308   8.876  20.454  0.00  0.00    +0.000 C 
ATOM      5  O   UNL     1       1.027   9.386  21.534  0.00  0.00    +0.000 OA
ATOM      6  N   UNL     1       1.169   9.471  19.232  0.00  0.00    +0.000 N 
ATOM      7  H   UNL     1       1.908   7.182  21.333  0.00  0.00    +0.000 HD
ATOM      8  H   UNL     1       1.068   8.809  18.456  0.00  0.00    +0.000 HD
ENDROOT
BRANCH   6   9
ATOM      9  C   UNL     1       0.679  10.760  19.003  0.00  0.00    +0.000 A 
ATOM     10  C   UNL     1       1.530  11.859  18.914  0.00  0.00    +0.000 A 
ATOM     11  C   UNL     1       1.000  13.105  18.563  0.00  0.00    +0.000 A 
ATOM     12  C   UNL     1      -0.369  13.259  18.343  0.00  0.00    +0.000 A 
ATOM     13  C   UNL     1      -1.218  12.159  18.453  0.00  0.00    +0.000 A 
ATOM     14  C   UNL     1      -0.687  10.912  18.763  0.00  0.00    +0.000 A 
ATOM     15  F   UNL     1      -1.509   9.864  18.892  0.00  0.00    +0.000 F 
ENDBRANCH   6   9
BRANCH   1  16
ATOM     16  C   UNL     1       3.309   5.796  19.631  0.00  0.00    +0.000 C 
BRANCH  16  17
ATOM     17  N   UNL     1       2.968   4.586  18.836  0.00  0.00    +0.000 NA
BRANCH  17  19
ATOM     18  C   UNL     1       1.968   2.356  19.446  0.00  0.00    +0.000 C 
ATOM     19  C   UNL     1       1.787   3.865  19.334  0.00  0.00    +0.000 C 
ENDBRANCH  17  19
BRANCH  17  20
ATOM     20  C   UNL     1       4.132   3.670  18.731  0.00  0.00    +0.000 C 
BRANCH  20  21
ATOM     21  C   UNL     1       5.123   4.052  17.648  0.00  0.00    +0.000 A 
ATOM     22  C   UNL     1       6.417   4.482  17.967  0.00  0.00    +0.000 A 
ATOM     23  C   UNL     1       7.311   4.842  16.956  0.00  0.00    +0.000 A 
ATOM     24  C   UNL     1       6.922   4.771  15.618  0.00  0.00    +0.000 A 
ATOM     25  C   UNL     1       5.638   4.347  15.288  0.00  0.00    +0.000 A 
ATOM     26  C   UNL     1       4.743   3.990  16.296  0.00  0.00    +0.000 A 
ENDBRANCH  20  21
ENDBRANCH  17  20
ENDBRANCH  16  17
ENDBRANCH   1  16
TORSDOF 6
ENDMDL
MODEL 7
REMARK VINA RESULT:      -7.0      2.024      4.116
REMARK  Name = 
REMARK  7 active torsions:
REMARK  status: ('A' for Active; 'I' for Inactive)
REMARK    1  A    between atoms: C_1  and  C_2
REMARK    2  A    between atoms: C_2  and  N_3
REMARK    3  A    between atoms: N_3  and  C_4
REMARK    4  A    between atoms: N_3  and  C_18
REMARK    5  A    between atoms: C_4  and  C_5
REMARK    6  A    between atoms: N_10  and  C_11
REMARK    7  A    between atoms: C_18  and  C_19
REMARK                            x       y       z     vdW  Elec       q    Type
REMARK                         _______ _______ _______ _____ _____    ______ ____
ROOT
ATOM      1  C   UNL     1       3.382   7.456  17.726  0.00  0.00    +0.000 C 
ATOM      2  O   UNL     1       2.939   8.580  17.488  0.00  0.00    +0.000 OA
ATOM      3  N   UNL     1       2.845   6.631  18.695  0.00  0.00    +0.000 N 
ATOM      4  C   UNL     1       2.102   7.054  19.781  0.00  0.00    +0.000 C 
ATOM      5  O   UNL     1       1.894   6.283  20.713  0.00  0.00    +0.000 OA
ATOM      6  N   UNL     1       1.662   8.345  19.703  0.00  0.00    +0.000 N 
ATOM      7  H   UNL     1       3.157   5.677  18.785  0.00  0.00    +0.000 HD
ATOM      8  H   UNL     1       1.577   8.699  18.745  0.00  0.00    +0.000 HD
ENDROOT
BRANCH   6   9
ATOM      9  C   UNL     1       0.894   9.005  20.668  0.00  0.00    +0.000 A 
ATOM     10  C   UNL     1       1.084   8.781  22.030  0.00  0.00    +0.000 A 
ATOM     11  C   UNL     1       0.376   9.556  22.953  0.00  0.00    +0.000 A 
ATOM     12  C   UNL     1      -0.541  10.516  22.522  0.00  0.00    +0.000 A 
ATOM     13  C   UNL     1      -0.742  10.721  21.158  0.00  0.00    +0.000 A 
ATOM     14  C   UNL     1      -0.009   9.979  20.239  0.00  0.00    +0.000 A 
ATOM     15  F   UNL     1      -0.222  10.161  18.930  0.00  0.00    +0.000 F 
ENDBRANCH   6   9
BRANCH   1  16
ATOM     16  C   UNL     1       4.529   6.855  16.911  0.00  0.00    +0.000 C 
BRANCH  16  17
ATOM     17  N   UNL     1       5.265   5.775  17.621  0.00  0.00    +0.000 NA
BRANCH  17  19
ATOM     18  C   UNL     1       7.540   4.693  17.647  0.00  0.00    +0.000 C 
ATOM     19  C   UNL     1       6.721   5.979  17.659  0.00  0.00    +0.000 C 
ENDBRANCH  17  19
BRANCH  17  20
ATOM     20  C   UNL     1       4.940   4.443  17.052  0.00  0.00    +0.000 C 
BRANCH  20  21
ATOM     21  C   UNL     1       3.970   3.633  17.893  0.00  0.00    +0.000 A 
ATOM     22  C   UNL     1       4.297   3.232  19.194  0.00  0.00    +0.000 A 
ATOM     23  C   UNL     1       3.395   2.476  19.948  0.00  0.00    +0.000 A 
ATOM     24  C   UNL     1       2.159   2.117  19.410  0.00  0.00    +0.000 A 
ATOM     25  C   UNL     1       1.823   2.508  18.116  0.00  0.00    +0.000 A 
ATOM     26  C   UNL     1       2.723   3.261  17.362  0.00  0.00    +0.000 A 
ENDBRANCH  20  21
ENDBRANCH  17  20
ENDBRANCH  16  17
ENDBRANCH   1  16
TORSDOF 6
ENDMDL
MODEL 8
REMARK VINA RESULT:      -7.0      0.974      1.381
REMARK  Name = 
REMARK  7 active torsions:
REMARK  status: ('A' for Active; 'I' for Inactive)
REMARK    1  A    between atoms: C_1  and  C_2
REMARK    2  A    between atoms: C_2  and  N_3
REMARK    3  A    between atoms: N_3  and  C_4
REMARK    4  A    between atoms: N_3  and  C_18
REMARK    5  A    between atoms: C_4  and  C_5
REMARK    6  A    between atoms: N_10  and  C_11
REMARK    7  A    between atoms: C_18  and  C_19
REMARK                            x       y       z     vdW  Elec       q    Type
REMARK                         _______ _______ _______ _____ _____    ______ ____
ROOT
ATOM      1  C   UNL     1       1.960   7.214  20.097  0.00  0.00    +0.000 C 
ATOM      2  O   UNL     1       1.414   7.871  20.984  0.00  0.00    +0.000 OA
ATOM      3  N   UNL     1       2.362   7.768  18.897  0.00  0.00    +0.000 N 
ATOM      4  C   UNL     1       1.850   8.925  18.341  0.00  0.00    +0.000 C 
ATOM      5  O   UNL     1       2.084   9.189  17.166  0.00  0.00    +0.000 OA
ATOM      6  N   UNL     1       1.100   9.684  19.194  0.00  0.00    +0.000 N 
ATOM      7  H   UNL     1       2.907   7.229  18.242  0.00  0.00    +0.000 HD
ATOM      8  H   UNL     1       1.325   9.544  20.184  0.00  0.00    +0.000 HD
ENDROOT
BRANCH   6   9
ATOM      9  C   UNL     1       0.477  10.895  18.874  0.00  0.00    +0.000 A 
ATOM     10  C   UNL     1      -0.908  10.996  18.762  0.00  0.00    +0.000 A 
ATOM     11  C   UNL     1      -1.486  12.253  18.562  0.00  0.00    +0.000 A 
ATOM     12  C   UNL     1      -0.688  13.391  18.436  0.00  0.00    +0.000 A 
ATOM     13  C   UNL     1       0.698  13.280  18.529  0.00  0.00    +0.000 A 
ATOM     14  C   UNL     1       1.272  12.037  18.768  0.00  0.00    +0.000 A 
ATOM     15  F   UNL     1       2.604  11.931  18.832  0.00  0.00    +0.000 F 
ENDBRANCH   6   9
BRANCH   1  16
ATOM     16  C   UNL     1       2.300   5.734  20.286  0.00  0.00    +0.000 C 
BRANCH  16  17
ATOM     17  N   UNL     1       2.905   5.101  19.083  0.00  0.00    +0.000 NA
BRANCH  17  19
ATOM     18  C   UNL     1       1.543   3.019  19.481  0.00  0.00    +0.000 C 
ATOM     19  C   UNL     1       2.070   4.048  18.487  0.00  0.00    +0.000 C 
ENDBRANCH  17  19
BRANCH  17  20
ATOM     20  C   UNL     1       4.265   4.583  19.379  0.00  0.00    +0.000 C 
BRANCH  20  21
ATOM     21  C   UNL     1       5.383   5.383  18.737  0.00  0.00    +0.000 A 
ATOM     22  C   UNL     1       6.664   5.423  19.302  0.00  0.00    +0.000 A 
ATOM     23  C   UNL     1       7.677   6.175  18.703  0.00  0.00    +0.000 A 
ATOM     24  C   UNL     1       7.421   6.891  17.533  0.00  0.00    +0.000 A 
ATOM     25  C   UNL     1       6.151   6.860  16.962  0.00  0.00    +0.000 A 
ATOM     26  C   UNL     1       5.138   6.112  17.561  0.00  0.00    +0.000 A 
ENDBRANCH  20  21
ENDBRANCH  17  20
ENDBRANCH  16  17
ENDBRANCH   1  16
TORSDOF 6
ENDMDL
MODEL 9
REMARK VINA RESULT:      -7.0      1.676      2.405
REMARK  Name = 
REMARK  7 active torsions:
REMARK  status: ('A' for Active; 'I' for Inactive)
REMARK    1  A    between atoms: C_1  and  C_2
REMARK    2  A    between atoms: C_2  and  N_3
REMARK    3  A    between atoms: N_3  and  C_4
REMARK    4  A    between atoms: N_3  and  C_18
REMARK    5  A    between atoms: C_4  and  C_5
REMARK    6  A    between atoms: N_10  and  C_11
REMARK    7  A    between atoms: C_18  and  C_19
REMARK                            x       y       z     vdW  Elec       q    Type
REMARK                         _______ _______ _______ _____ _____    ______ ____
ROOT
ATOM      1  C   UNL     1       2.605   6.878  19.349  0.00  0.00    +0.000 C 
ATOM      2  O   UNL     1       2.246   7.152  18.204  0.00  0.00    +0.000 OA
ATOM      3  N   UNL     1       2.030   7.449  20.469  0.00  0.00    +0.000 N 
ATOM      4  C   UNL     1       1.354   8.654  20.492  0.00  0.00    +0.000 C 
ATOM      5  O   UNL     1       1.110   9.193  21.567  0.00  0.00    +0.000 OA
ATOM      6  N   UNL     1       1.015   9.142  19.261  0.00  0.00    +0.000 N 
ATOM      7  H   UNL     1       2.269   7.118  21.391  0.00  0.00    +0.000 HD
ATOM      8  H   UNL     1       0.932   8.422  18.536  0.00  0.00    +0.000 HD
ENDROOT
BRANCH   6   9
ATOM      9  C   UNL     1       0.328  10.336  19.018  0.00  0.00    +0.000 A 
ATOM     10  C   UNL     1      -1.058  10.416  19.128  0.00  0.00    +0.000 A 
ATOM     11  C   UNL     1      -1.681  11.660  18.995  0.00  0.00    +0.000 A 
ATOM     12  C   UNL     1      -0.933  12.804  18.714  0.00  0.00    +0.000 A 
ATOM     13  C   UNL     1       0.452  12.714  18.585  0.00  0.00    +0.000 A 
ATOM     14  C   UNL     1       1.077  11.485  18.758  0.00  0.00    +0.000 A 
ATOM     15  F   UNL     1       2.404  11.397  18.608  0.00  0.00    +0.000 F 
ENDBRANCH   6   9
BRANCH   1  16
ATOM     16  C   UNL     1       3.678   5.823  19.626  0.00  0.00    +0.000 C 
BRANCH  16  17
ATOM     17  N   UNL     1       3.240   4.433  19.328  0.00  0.00    +0.000 NA
BRANCH  17  19
ATOM     18  C   UNL     1       0.954   3.729  20.118  0.00  0.00    +0.000 C 
ATOM     19  C   UNL     1       2.448   3.819  20.405  0.00  0.00    +0.000 C 
ENDBRANCH  17  19
BRANCH  17  20
ATOM     20  C   UNL     1       4.398   3.571  18.978  0.00  0.00    +0.000 C 
BRANCH  20  21
ATOM     21  C   UNL     1       5.184   4.055  17.774  0.00  0.00    +0.000 A 
ATOM     22  C   UNL     1       4.622   4.053  16.491  0.00  0.00    +0.000 A 
ATOM     23  C   UNL     1       5.367   4.491  15.393  0.00  0.00    +0.000 A 
ATOM     24  C   UNL     1       6.677   4.937  15.567  0.00  0.00    +0.000 A 
ATOM     25  C   UNL     1       7.248   4.941  16.837  0.00  0.00    +0.000 A 
ATOM     26  C   UNL     1       6.507   4.503  17.934  0.00  0.00    +0.000 A 
ENDBRANCH  20  21
ENDBRANCH  17  20
ENDBRANCH  16  17
ENDBRANCH   1  16
TORSDOF 6
ENDMDL
