MODEL 1
REMARK VINA RESULT:      -6.7      0.000      0.000
REMARK  Name = 
REMARK  7 active torsions:
REMARK  status: ('A' for Active; 'I' for Inactive)
REMARK    1  A    between atoms: C_1  and  C_2
REMARK    2  A    between atoms: C_2  and  C_3
REMARK    3  A    between atoms: C_3  and  O_4
REMARK    4  A    between atoms: C_3  and  C_5
REMARK    5  A    between atoms: C_9  and  C_10
REMARK    6  A    between atoms: C_13  and  S_14
REMARK    7  A    between atoms: S_14  and  C_15
REMARK                            x       y       z     vdW  Elec       q    Type
REMARK                         _______ _______ _______ _____ _____    ______ ____
ROOT
ATOM      1  C   UNL     1       5.430   5.384  14.916  0.00  0.00    +0.000 C 
ATOM      2  C   UNL     1       6.664   5.526  15.829  0.00  0.00    +0.000 C 
ATOM      3  O   UNL     1       7.849   5.401  15.581  0.00  0.00    +0.000 OA
ATOM      4  N   UNL     1       5.877   5.738  16.924  0.00  0.00    +0.000 N 
ATOM      5  C   UNL     1       5.906   4.942  18.066  0.00  0.00    +0.000 C 
ATOM      6  C   UNL     1       4.778   4.236  18.281  0.00  0.00    +0.000 C 
ATOM      7  S   UNL     1       3.631   4.395  16.955  0.00  0.00    +0.000 S 
ATOM      8  C   UNL     1       4.613   5.699  16.191  0.00  0.00    +0.000 C 
ENDROOT
BRANCH   5   9
ATOM      9  C   UNL     1       7.182   4.988  18.975  0.00  0.00    +0.000 C 
ATOM     10  O   UNL     1       7.063   5.570  20.085  0.00  0.00    +0.000 OA
ATOM     11  O   UNL     1       8.165   4.328  18.509  0.00  0.00    +0.000 OA
ENDBRANCH   5   9
BRANCH   1  12
ATOM     12  C   UNL     1       5.411   4.054  14.176  0.00  0.00    +0.000 C 
BRANCH  12  14
ATOM     13  C   UNL     1       5.944   2.853  11.977  0.00  0.00    +0.000 C 
ATOM     14  C   UNL     1       6.021   4.153  12.773  0.00  0.00    +0.000 C 
ENDBRANCH  12  14
BRANCH  12  15
ATOM     15  O   UNL     1       6.182   3.093  14.944  0.00  0.00    +0.000 OA
ATOM     16  H   UNL     1       6.031   2.238  14.482  0.00  0.00    +0.000 HD
ENDBRANCH  12  15
ENDBRANCH   1  12
BRANCH   6  17
ATOM     17  S   UNL     1       4.285   3.329  19.663  0.00  0.00    +0.000 S 
BRANCH  17  18
ATOM     18  C   UNL     1       2.791   4.222  20.228  0.00  0.00    +0.000 C 
ATOM     19  C   UNL     1       2.387   3.903  21.661  0.00  0.00    +0.000 C 
ATOM     20  C   UNL     1       1.456   2.712  21.544  0.00  0.00    +0.000 C 
ATOM     21  N   UNL     1       0.726   2.895  20.291  0.00  0.00    +0.000 NA
ATOM     22  C   UNL     1       1.559   3.765  19.429  0.00  0.00    +0.000 C 
ATOM     23  H   UNL     1      -0.160   3.365  20.471  0.00  0.00    +0.000 HD
ENDBRANCH  17  18
ENDBRANCH   6  17
TORSDOF 6
ENDMDL
MODEL 2
REMARK VINA RESULT:      -6.6      1.725      1.976
REMARK  Name = 
REMARK  7 active torsions:
REMARK  status: ('A' for Active; 'I' for Inactive)
REMARK    1  A    between atoms: C_1  and  C_2
REMARK    2  A    between atoms: C_2  and  C_3
REMARK    3  A    between atoms: C_3  and  O_4
REMARK    4  A    between atoms: C_3  and  C_5
REMARK    5  A    between atoms: C_9  and  C_10
REMARK    6  A    between atoms: C_13  and  S_14
REMARK    7  A    between atoms: S_14  and  C_15
REMARK                            x       y       z     vdW  Elec       q    Type
REMARK                         _______ _______ _______ _____ _____    ______ ____
ROOT
ATOM      1  C   UNL     1       6.795   5.703  15.383  0.00  0.00    +0.000 C 
ATOM      2  C   UNL     1       7.283   5.014  16.673  0.00  0.00    +0.000 C 
ATOM      3  O   UNL     1       8.037   4.072  16.829  0.00  0.00    +0.000 OA
ATOM      4  N   UNL     1       6.487   5.811  17.444  0.00  0.00    +0.000 N 
ATOM      5  C   UNL     1       5.506   5.326  18.306  0.00  0.00    +0.000 C 
ATOM      6  C   UNL     1       4.245   5.638  17.944  0.00  0.00    +0.000 C 
ATOM      7  S   UNL     1       4.181   6.443  16.380  0.00  0.00    +0.000 S 
ATOM      8  C   UNL     1       5.975   6.608  16.332  0.00  0.00    +0.000 C 
ENDROOT
BRANCH   5   9
ATOM      9  C   UNL     1       5.957   4.539  19.584  0.00  0.00    +0.000 C 
ATOM     10  O   UNL     1       5.393   3.434  19.794  0.00  0.00    +0.000 OA
ATOM     11  O   UNL     1       6.928   5.083  20.201  0.00  0.00    +0.000 OA
ENDBRANCH   5   9
BRANCH   1  12
ATOM     12  C   UNL     1       6.198   4.712  14.392  0.00  0.00    +0.000 C 
BRANCH  12  14
ATOM     13  C   UNL     1       6.522   3.510  12.154  0.00  0.00    +0.000 C 
ATOM     14  C   UNL     1       7.051   4.559  13.127  0.00  0.00    +0.000 C 
ENDBRANCH  12  14
BRANCH  12  15
ATOM     15  O   UNL     1       6.104   3.417  15.042  0.00  0.00    +0.000 OA
ATOM     16  H   UNL     1       5.307   3.004  14.641  0.00  0.00    +0.000 HD
ENDBRANCH  12  15
ENDBRANCH   1  12
BRANCH   6  17
ATOM     17  S   UNL     1       2.766   5.462  18.816  0.00  0.00    +0.000 S 
BRANCH  17  18
ATOM     18  C   UNL     1       1.924   4.106  17.923  0.00  0.00    +0.000 C 
ATOM     19  C   UNL     1       1.054   3.228  18.813  0.00  0.00    +0.000 C 
ATOM     20  C   UNL     1       1.983   2.135  19.304  0.00  0.00    +0.000 C 
ATOM     21  N   UNL     1       2.914   1.877  18.207  0.00  0.00    +0.000 NA
ATOM     22  C   UNL     1       2.954   3.102  17.377  0.00  0.00    +0.000 C 
ATOM     23  H   UNL     1       2.571   1.106  17.636  0.00  0.00    +0.000 HD
ENDBRANCH  17  18
ENDBRANCH   6  17
TORSDOF 6
ENDMDL
MODEL 3
REMARK VINA RESULT:      -6.6      0.889      1.098
REMARK  Name = 
REMARK  7 active torsions:
REMARK  status: ('A' for Active; 'I' for Inactive)
REMARK    1  A    between atoms: C_1  and  C_2
REMARK    2  A    between atoms: C_2  and  C_3
REMARK    3  A    between atoms: C_3  and  O_4
REMARK    4  A    between atoms: C_3  and  C_5
REMARK    5  A    between atoms: C_9  and  C_10
REMARK    6  A    between atoms: C_13  and  S_14
REMARK    7  A    between atoms: S_14  and  C_15
REMARK                            x       y       z     vdW  Elec       q    Type
REMARK                         _______ _______ _______ _____ _____    ______ ____
ROOT
ATOM      1  C   UNL     1       5.666   5.307  14.622  0.00  0.00    +0.000 C 
ATOM      2  C   UNL     1       6.991   5.419  15.402  0.00  0.00    +0.000 C 
ATOM      3  O   UNL     1       8.112   5.050  15.111  0.00  0.00    +0.000 OA
ATOM      4  N   UNL     1       6.355   5.974  16.475  0.00  0.00    +0.000 N 
ATOM      5  C   UNL     1       6.376   5.430  17.757  0.00  0.00    +0.000 C 
ATOM      6  C   UNL     1       5.181   4.981  18.189  0.00  0.00    +0.000 C 
ATOM      7  S   UNL     1       3.946   5.062  16.937  0.00  0.00    +0.000 S 
ATOM      8  C   UNL     1       5.035   6.003  15.851  0.00  0.00    +0.000 C 
ENDROOT
BRANCH   5   9
ATOM      9  C   UNL     1       7.728   5.441  18.551  0.00  0.00    +0.000 C 
ATOM     10  O   UNL     1       8.370   4.358  18.585  0.00  0.00    +0.000 OA
ATOM     11  O   UNL     1       8.058   6.592  18.980  0.00  0.00    +0.000 OA
ENDBRANCH   5   9
BRANCH   1  12
ATOM     12  C   UNL     1       5.373   3.878  14.185  0.00  0.00    +0.000 C 
BRANCH  12  14
ATOM     13  C   UNL     1       4.693   3.261  11.794  0.00  0.00    +0.000 C 
ATOM     14  C   UNL     1       5.834   3.596  12.750  0.00  0.00    +0.000 C 
ENDBRANCH  12  14
BRANCH  12  15
ATOM     15  O   UNL     1       6.077   2.974  15.078  0.00  0.00    +0.000 OA
ATOM     16  H   UNL     1       6.760   2.557  14.508  0.00  0.00    +0.000 HD
ENDBRANCH  12  15
ENDBRANCH   1  12
BRANCH   6  17
ATOM     17  S   UNL     1       4.694   4.464  19.762  0.00  0.00    +0.000 S 
BRANCH  17  18
ATOM     18  C   UNL     1       2.884   4.271  19.588  0.00  0.00    +0.000 C 
ATOM     19  C   UNL     1       2.094   4.734  20.805  0.00  0.00    +0.000 C 
ATOM     20  C   UNL     1       1.996   3.508  21.691  0.00  0.00    +0.000 C 
ATOM     21  N   UNL     1       1.903   2.364  20.785  0.00  0.00    +0.000 NA
ATOM     22  C   UNL     1       2.509   2.781  19.500  0.00  0.00    +0.000 C 
ATOM     23  H   UNL     1       0.925   2.128  20.624  0.00  0.00    +0.000 HD
ENDBRANCH  17  18
ENDBRANCH   6  17
TORSDOF 6
ENDMDL
MODEL 4
REMARK VINA RESULT:      -6.5      1.100      1.306
REMARK  Name = 
REMARK  7 active torsions:
REMARK  status: ('A' for Active; 'I' for Inactive)
REMARK    1  A    between atoms: C_1  and  C_2
REMARK    2  A    between atoms: C_2  and  C_3
REMARK    3  A    between atoms: C_3  and  O_4
REMARK    4  A    between atoms: C_3  and  C_5
REMARK    5  A    between atoms: C_9  and  C_10
REMARK    6  A    between atoms: C_13  and  S_14
REMARK    7  A    between atoms: S_14  and  C_15
REMARK                            x       y       z     vdW  Elec       q    Type
REMARK                         _______ _______ _______ _____ _____    ______ ____
ROOT
ATOM      1  C   UNL     1       5.864   5.444  14.956  0.00  0.00    +0.000 C 
ATOM      2  C   UNL     1       7.002   5.441  15.995  0.00  0.00    +0.000 C 
ATOM      3  O   UNL     1       8.085   4.887  15.978  0.00  0.00    +0.000 OA
ATOM      4  N   UNL     1       6.260   6.185  16.866  0.00  0.00    +0.000 N 
ATOM      5  C   UNL     1       5.931   5.771  18.155  0.00  0.00    +0.000 C 
ATOM      6  C   UNL     1       4.616   5.543  18.347  0.00  0.00    +0.000 C 
ATOM      7  S   UNL     1       3.693   5.677  16.854  0.00  0.00    +0.000 S 
ATOM      8  C   UNL     1       5.116   6.340  15.970  0.00  0.00    +0.000 C 
ENDROOT
BRANCH   5   9
ATOM      9  C   UNL     1       7.076   5.666  19.220  0.00  0.00    +0.000 C 
ATOM     10  O   UNL     1       6.940   4.784  20.108  0.00  0.00    +0.000 OA
ATOM     11  O   UNL     1       8.064   6.433  18.985  0.00  0.00    +0.000 OA
ENDBRANCH   5   9
BRANCH   1  12
ATOM     12  C   UNL     1       5.440   4.035  14.560  0.00  0.00    +0.000 C 
BRANCH  12  14
ATOM     13  C   UNL     1       4.902   3.377  12.145  0.00  0.00    +0.000 C 
ATOM     14  C   UNL     1       5.986   3.620  13.189  0.00  0.00    +0.000 C 
ENDBRANCH  12  14
BRANCH  12  15
ATOM     15  O   UNL     1       5.949   3.109  15.557  0.00  0.00    +0.000 OA
ATOM     16  H   UNL     1       6.764   3.544  15.894  0.00  0.00    +0.000 HD
ENDBRANCH  12  15
ENDBRANCH   1  12
BRANCH   6  17
ATOM     17  S   UNL     1       3.743   5.259  19.808  0.00  0.00    +0.000 S 
BRANCH  17  18
ATOM     18  C   UNL     1       3.061   3.580  19.556  0.00  0.00    +0.000 C 
ATOM     19  C   UNL     1       1.601   3.566  19.123  0.00  0.00    +0.000 C 
ATOM     20  C   UNL     1       0.813   3.538  20.417  0.00  0.00    +0.000 C 
ATOM     21  N   UNL     1       1.610   2.748  21.354  0.00  0.00    +0.000 NA
ATOM     22  C   UNL     1       3.015   2.815  20.890  0.00  0.00    +0.000 C 
ATOM     23  H   UNL     1       1.306   1.776  21.336  0.00  0.00    +0.000 HD
ENDBRANCH  17  18
ENDBRANCH   6  17
TORSDOF 6
ENDMDL
MODEL 5
REMARK VINA RESULT:      -6.4      1.515      1.642
REMARK  Name = 
REMARK  7 active torsions:
REMARK  status: ('A' for Active; 'I' for Inactive)
REMARK    1  A    between atoms: C_1  and  C_2
REMARK    2  A    between atoms: C_2  and  C_3
REMARK    3  A    between atoms: C_3  and  O_4
REMARK    4  A    between atoms: C_3  and  C_5
REMARK    5  A    between atoms: C_9  and  C_10
REMARK    6  A    between atoms: C_13  and  S_14
REMARK    7  A    between atoms: S_14  and  C_15
REMARK                            x       y       z     vdW  Elec       q    Type
REMARK                         _______ _______ _______ _____ _____    ______ ____
ROOT
ATOM      1  C   UNL     1       5.916   5.429  14.911  0.00  0.00    +0.000 C 
ATOM      2  C   UNL     1       7.031   5.407  15.975  0.00  0.00    +0.000 C 
ATOM      3  O   UNL     1       8.100   4.827  15.987  0.00  0.00    +0.000 OA
ATOM      4  N   UNL     1       6.288   6.177  16.823  0.00  0.00    +0.000 N 
ATOM      5  C   UNL     1       5.921   5.785  18.108  0.00  0.00    +0.000 C 
ATOM      6  C   UNL     1       4.597   5.591  18.272  0.00  0.00    +0.000 C 
ATOM      7  S   UNL     1       3.710   5.734  16.759  0.00  0.00    +0.000 S 
ATOM      8  C   UNL     1       5.169   6.353  15.901  0.00  0.00    +0.000 C 
ENDROOT
BRANCH   5   9
ATOM      9  C   UNL     1       7.040   5.661  19.199  0.00  0.00    +0.000 C 
ATOM     10  O   UNL     1       6.865   4.788  20.088  0.00  0.00    +0.000 OA
ATOM     11  O   UNL     1       8.049   6.406  18.982  0.00  0.00    +0.000 OA
ENDBRANCH   5   9
BRANCH   1  12
ATOM     12  C   UNL     1       5.466   4.027  14.519  0.00  0.00    +0.000 C 
BRANCH  12  14
ATOM     13  C   UNL     1       4.927   3.429  12.088  0.00  0.00    +0.000 C 
ATOM     14  C   UNL     1       6.008   3.597  13.150  0.00  0.00    +0.000 C 
ENDBRANCH  12  14
BRANCH  12  15
ATOM     15  O   UNL     1       5.956   3.095  15.519  0.00  0.00    +0.000 OA
ATOM     16  H   UNL     1       5.425   2.281  15.369  0.00  0.00    +0.000 HD
ENDBRANCH  12  15
ENDBRANCH   1  12
BRANCH   6  17
ATOM     17  S   UNL     1       3.685   5.342  19.716  0.00  0.00    +0.000 S 
BRANCH  17  18
ATOM     18  C   UNL     1       3.040   3.643  19.504  0.00  0.00    +0.000 C 
ATOM     19  C   UNL     1       2.999   2.834  20.794  0.00  0.00    +0.000 C 
ATOM     20  C   UNL     1       4.353   2.157  20.870  0.00  0.00    +0.000 C 
ATOM     21  N   UNL     1       4.732   1.863  19.489  0.00  0.00    +0.000 NA
ATOM     22  C   UNL     1       3.993   2.813  18.626  0.00  0.00    +0.000 C 
ATOM     23  H   UNL     1       4.452   0.915  19.246  0.00  0.00    +0.000 HD
ENDBRANCH  17  18
ENDBRANCH   6  17
TORSDOF 6
ENDMDL
MODEL 6
REMARK VINA RESULT:      -6.3      1.141      1.278
REMARK  Name = 
REMARK  7 active torsions:
REMARK  status: ('A' for Active; 'I' for Inactive)
REMARK    1  A    between atoms: C_1  and  C_2
REMARK    2  A    between atoms: C_2  and  C_3
REMARK    3  A    between atoms: C_3  and  O_4
REMARK    4  A    between atoms: C_3  and  C_5
REMARK    5  A    between atoms: C_9  and  C_10
REMARK    6  A    between atoms: C_13  and  S_14
REMARK    7  A    between atoms: S_14  and  C_15
REMARK                            x       y       z     vdW  Elec       q    Type
REMARK                         _______ _______ _______ _____ _____    ______ ____
ROOT
ATOM      1  C   UNL     1       5.452   5.453  14.703  0.00  0.00    +0.000 C 
ATOM      2  C   UNL     1       6.811   5.684  15.392  0.00  0.00    +0.000 C 
ATOM      3  O   UNL     1       7.936   5.383  15.040  0.00  0.00    +0.000 OA
ATOM      4  N   UNL     1       6.206   6.233  16.486  0.00  0.00    +0.000 N 
ATOM      5  C   UNL     1       6.345   5.737  17.779  0.00  0.00    +0.000 C 
ATOM      6  C   UNL     1       5.214   5.222  18.302  0.00  0.00    +0.000 C 
ATOM      7  S   UNL     1       3.902   5.174  17.130  0.00  0.00    +0.000 S 
ATOM      8  C   UNL     1       4.851   6.147  15.947  0.00  0.00    +0.000 C 
ENDROOT
BRANCH   5   9
ATOM      9  C   UNL     1       7.739   5.870  18.484  0.00  0.00    +0.000 C 
ATOM     10  O   UNL     1       8.161   7.039  18.682  0.00  0.00    +0.000 OA
ATOM     11  O   UNL     1       8.227   4.758  18.865  0.00  0.00    +0.000 OA
ENDBRANCH   5   9
BRANCH   1  12
ATOM     12  C   UNL     1       5.235   3.992  14.330  0.00  0.00    +0.000 C 
BRANCH  12  14
ATOM     13  C   UNL     1       6.606   3.552  12.213  0.00  0.00    +0.000 C 
ATOM     14  C   UNL     1       5.221   3.768  12.814  0.00  0.00    +0.000 C 
ENDBRANCH  12  14
BRANCH  12  15
ATOM     15  O   UNL     1       6.319   3.211  14.899  0.00  0.00    +0.000 OA
ATOM     16  H   UNL     1       6.029   3.033  15.822  0.00  0.00    +0.000 HD
ENDBRANCH  12  15
ENDBRANCH   1  12
BRANCH   6  17
ATOM     17  S   UNL     1       4.864   4.730  19.919  0.00  0.00    +0.000 S 
BRANCH  17  18
ATOM     18  C   UNL     1       3.462   3.576  19.700  0.00  0.00    +0.000 C 
ATOM     19  C   UNL     1       2.128   4.126  20.187  0.00  0.00    +0.000 C 
ATOM     20  C   UNL     1       2.050   3.720  21.645  0.00  0.00    +0.000 C 
ATOM     21  N   UNL     1       2.716   2.421  21.736  0.00  0.00    +0.000 NA
ATOM     22  C   UNL     1       3.648   2.333  20.588  0.00  0.00    +0.000 C 
ATOM     23  H   UNL     1       2.029   1.673  21.657  0.00  0.00    +0.000 HD
ENDBRANCH  17  18
ENDBRANCH   6  17
TORSDOF 6
ENDMDL
MODEL 7
REMARK VINA RESULT:      -6.3      0.813      1.012
REMARK  Name = 
REMARK  7 active torsions:
REMARK  status: ('A' for Active; 'I' for Inactive)
REMARK    1  A    between atoms: C_1  and  C_2
REMARK    2  A    between atoms: C_2  and  C_3
REMARK    3  A    between atoms: C_3  and  O_4
REMARK    4  A    between atoms: C_3  and  C_5
REMARK    5  A    between atoms: C_9  and  C_10
REMARK    6  A    between atoms: C_13  and  S_14
REMARK    7  A    between atoms: S_14  and  C_15
REMARK                            x       y       z     vdW  Elec       q    Type
REMARK                         _______ _______ _______ _____ _____    ______ ____
ROOT
ATOM      1  C   UNL     1       5.566   5.124  14.636  0.00  0.00    +0.000 C 
ATOM      2  C   UNL     1       6.754   5.386  15.583  0.00  0.00    +0.000 C 
ATOM      3  O   UNL     1       7.952   5.363  15.373  0.00  0.00    +0.000 OA
ATOM      4  N   UNL     1       5.917   5.541  16.651  0.00  0.00    +0.000 N 
ATOM      5  C   UNL     1       5.981   4.766  17.806  0.00  0.00    +0.000 C 
ATOM      6  C   UNL     1       4.913   3.966  17.998  0.00  0.00    +0.000 C 
ATOM      7  S   UNL     1       3.798   4.006  16.636  0.00  0.00    +0.000 S 
ATOM      8  C   UNL     1       4.685   5.381  15.882  0.00  0.00    +0.000 C 
ENDROOT
BRANCH   5   9
ATOM      9  C   UNL     1       7.220   4.936  18.751  0.00  0.00    +0.000 C 
ATOM     10  O   UNL     1       7.017   5.525  19.845  0.00  0.00    +0.000 OA
ATOM     11  O   UNL     1       8.269   4.354  18.328  0.00  0.00    +0.000 OA
ENDBRANCH   5   9
BRANCH   1  12
ATOM     12  C   UNL     1       5.687   3.788  13.916  0.00  0.00    +0.000 C 
BRANCH  12  14
ATOM     13  C   UNL     1       5.302   2.704  11.628  0.00  0.00    +0.000 C 
ATOM     14  C   UNL     1       4.813   3.716  12.658  0.00  0.00    +0.000 C 
ENDBRANCH  12  14
BRANCH  12  15
ATOM     15  O   UNL     1       7.073   3.606  13.522  0.00  0.00    +0.000 OA
ATOM     16  H   UNL     1       7.294   4.432  13.035  0.00  0.00    +0.000 HD
ENDBRANCH  12  15
ENDBRANCH   1  12
BRANCH   6  17
ATOM     17  S   UNL     1       4.460   3.036  19.378  0.00  0.00    +0.000 S 
BRANCH  17  18
ATOM     18  C   UNL     1       2.640   3.213  19.411  0.00  0.00    +0.000 C 
ATOM     19  C   UNL     1       2.161   4.566  19.922  0.00  0.00    +0.000 C 
ATOM     20  C   UNL     1       2.028   4.388  21.422  0.00  0.00    +0.000 C 
ATOM     21  N   UNL     1       1.597   3.006  21.625  0.00  0.00    +0.000 NA
ATOM     22  C   UNL     1       2.024   2.240  20.432  0.00  0.00    +0.000 C 
ATOM     23  H   UNL     1       0.581   2.966  21.692  0.00  0.00    +0.000 HD
ENDBRANCH  17  18
ENDBRANCH   6  17
TORSDOF 6
ENDMDL
MODEL 8
REMARK VINA RESULT:      -6.2      2.430      5.937
REMARK  Name = 
REMARK  7 active torsions:
REMARK  status: ('A' for Active; 'I' for Inactive)
REMARK    1  A    between atoms: C_1  and  C_2
REMARK    2  A    between atoms: C_2  and  C_3
REMARK    3  A    between atoms: C_3  and  O_4
REMARK    4  A    between atoms: C_3  and  C_5
REMARK    5  A    between atoms: C_9  and  C_10
REMARK    6  A    between atoms: C_13  and  S_14
REMARK    7  A    between atoms: S_14  and  C_15
REMARK                            x       y       z     vdW  Elec       q    Type
REMARK                         _______ _______ _______ _____ _____    ______ ____
ROOT
ATOM      1  C   UNL     1       2.920   2.978  18.994  0.00  0.00    +0.000 C 
ATOM      2  C   UNL     1       3.665   2.521  17.725  0.00  0.00    +0.000 C 
ATOM      3  O   UNL     1       4.253   1.483  17.485  0.00  0.00    +0.000 OA
ATOM      4  N   UNL     1       3.452   3.726  17.120  0.00  0.00    +0.000 N 
ATOM      5  C   UNL     1       4.473   4.554  16.660  0.00  0.00    +0.000 C 
ATOM      6  C   UNL     1       4.588   5.719  17.330  0.00  0.00    +0.000 C 
ATOM      7  S   UNL     1       3.509   5.798  18.718  0.00  0.00    +0.000 S 
ATOM      8  C   UNL     1       2.663   4.289  18.214  0.00  0.00    +0.000 C 
ENDROOT
BRANCH   5   9
ATOM      9  C   UNL     1       5.317   4.083  15.426  0.00  0.00    +0.000 C 
ATOM     10  O   UNL     1       6.252   3.274  15.659  0.00  0.00    +0.000 OA
ATOM     11  O   UNL     1       4.873   4.509  14.312  0.00  0.00    +0.000 OA
ENDBRANCH   5   9
BRANCH   1  12
ATOM     12  C   UNL     1       3.784   2.863  20.243  0.00  0.00    +0.000 C 
BRANCH  12  14
ATOM     13  C   UNL     1       1.459   2.635  21.292  0.00  0.00    +0.000 C 
ATOM     14  C   UNL     1       2.967   2.521  21.495  0.00  0.00    +0.000 C 
ENDBRANCH  12  14
BRANCH  12  15
ATOM     15  O   UNL     1       4.758   1.807  20.028  0.00  0.00    +0.000 OA
ATOM     16  H   UNL     1       5.547   2.101  20.536  0.00  0.00    +0.000 HD
ENDBRANCH  12  15
ENDBRANCH   1  12
BRANCH   6  17
ATOM     17  S   UNL     1       5.528   7.119  16.963  0.00  0.00    +0.000 S 
BRANCH  17  18
ATOM     18  C   UNL     1       7.246   6.510  17.116  0.00  0.00    +0.000 C 
ATOM     19  C   UNL     1       7.395   5.310  18.041  0.00  0.00    +0.000 C 
ATOM     20  C   UNL     1       7.636   5.906  19.413  0.00  0.00    +0.000 C 
ATOM     21  N   UNL     1       8.407   7.128  19.190  0.00  0.00    +0.000 NA
ATOM     22  C   UNL     1       8.130   7.566  17.802  0.00  0.00    +0.000 C 
ATOM     23  H   UNL     1       9.403   6.932  19.278  0.00  0.00    +0.000 HD
ENDBRANCH  17  18
ENDBRANCH   6  17
TORSDOF 6
ENDMDL
MODEL 9
REMARK VINA RESULT:      -6.2      2.092      2.930
REMARK  Name = 
REMARK  7 active torsions:
REMARK  status: ('A' for Active; 'I' for Inactive)
REMARK    1  A    between atoms: C_1  and  C_2
REMARK    2  A    between atoms: C_2  and  C_3
REMARK    3  A    between atoms: C_3  and  O_4
REMARK    4  A    between atoms: C_3  and  C_5
REMARK    5  A    between atoms: C_9  and  C_10
REMARK    6  A    between atoms: C_13  and  S_14
REMARK    7  A    between atoms: S_14  and  C_15
REMARK                            x       y       z     vdW  Elec       q    Type
REMARK                         _______ _______ _______ _____ _____    ______ ____
ROOT
ATOM      1  C   UNL     1       5.855   6.004  17.651  0.00  0.00    +0.000 C 
ATOM      2  C   UNL     1       6.254   4.675  18.323  0.00  0.00    +0.000 C 
ATOM      3  O   UNL     1       7.225   3.963  18.152  0.00  0.00    +0.000 OA
ATOM      4  N   UNL     1       5.092   4.645  19.039  0.00  0.00    +0.000 N 
ATOM      5  C   UNL     1       4.166   3.607  18.973  0.00  0.00    +0.000 C 
ATOM      6  C   UNL     1       2.983   3.951  18.426  0.00  0.00    +0.000 C 
ATOM      7  S   UNL     1       2.994   5.594  17.795  0.00  0.00    +0.000 S 
ATOM      8  C   UNL     1       4.597   5.929  18.547  0.00  0.00    +0.000 C 
ENDROOT
BRANCH   5   9
ATOM      9  C   UNL     1       4.566   2.211  19.563  0.00  0.00    +0.000 C 
ATOM     10  O   UNL     1       4.370   1.210  18.826  0.00  0.00    +0.000 OA
ATOM     11  O   UNL     1       5.143   2.282  20.695  0.00  0.00    +0.000 OA
ENDBRANCH   5   9
BRANCH   1  12
ATOM     12  C   UNL     1       5.850   5.902  16.131  0.00  0.00    +0.000 C 
BRANCH  12  14
ATOM     13  C   UNL     1       5.795   4.175  14.241  0.00  0.00    +0.000 C 
ATOM     14  C   UNL     1       5.306   4.557  15.634  0.00  0.00    +0.000 C 
ENDBRANCH  12  14
BRANCH  12  15
ATOM     15  O   UNL     1       5.005   6.960  15.607  0.00  0.00    +0.000 OA
ATOM     16  H   UNL     1       4.563   7.332  16.403  0.00  0.00    +0.000 HD
ENDBRANCH  12  15
ENDBRANCH   1  12
BRANCH   6  17
ATOM     17  S   UNL     1       1.495   3.079  18.363  0.00  0.00    +0.000 S 
BRANCH  17  18
ATOM     18  C   UNL     1       0.726   3.464  19.977  0.00  0.00    +0.000 C 
ATOM     19  C   UNL     1       1.105   4.832  20.530  0.00  0.00    +0.000 C 
ATOM     20  C   UNL     1       2.358   4.585  21.347  0.00  0.00    +0.000 C 
ATOM     21  N   UNL     1       2.202   3.253  21.929  0.00  0.00    +0.000 NA
ATOM     22  C   UNL     1       1.255   2.512  21.064  0.00  0.00    +0.000 C 
ATOM     23  H   UNL     1       1.801   3.327  22.863  0.00  0.00    +0.000 HD
ENDBRANCH  17  18
ENDBRANCH   6  17
TORSDOF 6
ENDMDL
