MODEL 1
REMARK VINA RESULT:      -7.1      0.000      0.000
REMARK  Name = 
REMARK  5 active torsions:
REMARK  status: ('A' for Active; 'I' for Inactive)
REMARK    1  A    between atoms: C_4  and  C_5
REMARK    2  A    between atoms: C_5  and  S_6
REMARK    3  A    between atoms: S_6  and  C_7
REMARK    4  A    between atoms: C_10  and  C_11
REMARK    5  A    between atoms: N_17  and  C_18
REMARK                            x       y       z     vdW  Elec       q    Type
REMARK                         _______ _______ _______ _____ _____    ______ ____
ROOT
ATOM      1  C   UNL     1       4.809   3.958  16.663  0.00  0.00    +0.000 A 
ATOM      2  N   UNL     1       5.871   3.662  15.950  0.00  0.00    +0.000 NA
ATOM      3  N   UNL     1       6.795   4.654  16.133  0.00  0.00    +0.000 NA
ATOM      4  C   UNL     1       6.312   5.532  16.997  0.00  0.00    +0.000 A 
ATOM      5  N   UNL     1       4.989   5.180  17.314  0.00  0.00    +0.000 N 
ENDROOT
BRANCH   4   6
ATOM      6  C   UNL     1       7.093   6.625  17.577  0.00  0.00    +0.000 A 
ATOM      7  C   UNL     1       7.889   6.456  18.703  0.00  0.00    +0.000 A 
ATOM      8  N   UNL     1       8.667   7.450  19.212  0.00  0.00    +0.000 NA
ATOM      9  C   UNL     1       8.606   8.630  18.555  0.00  0.00    +0.000 A 
ATOM     10  C   UNL     1       7.797   8.814  17.450  0.00  0.00    +0.000 A 
ATOM     11  N   UNL     1       7.013   7.828  16.953  0.00  0.00    +0.000 NA
ENDBRANCH   4   6
BRANCH   5  12
ATOM     12  C   UNL     1       4.068   5.918  18.125  0.00  0.00    +0.000 A 
ATOM     13  C   UNL     1       3.862   5.562  19.469  0.00  0.00    +0.000 A 
ATOM     14  C   UNL     1       2.859   6.174  20.222  0.00  0.00    +0.000 A 
ATOM     15  C   UNL     1       2.091   7.190  19.663  0.00  0.00    +0.000 A 
ATOM     16  C   UNL     1       2.330   7.595  18.353  0.00  0.00    +0.000 A 
ATOM     17  C   UNL     1       3.307   6.960  17.582  0.00  0.00    +0.000 A 
ENDBRANCH   5  12
BRANCH   1  18
ATOM     18  S   UNL     1       3.320   3.060  16.578  0.00  0.00    +0.000 S 
BRANCH  18  19
ATOM     19  C   UNL     1       3.495   1.878  17.957  0.00  0.00    +0.000 C 
BRANCH  19  23
ATOM     20  C   UNL     1       1.258   3.113  21.459  0.00  0.00    +0.000 A 
ATOM     21  C   UNL     1       0.672   3.167  20.196  0.00  0.00    +0.000 A 
ATOM     22  C   UNL     1       1.395   2.769  19.068  0.00  0.00    +0.000 A 
ATOM     23  C   UNL     1       2.719   2.315  19.184  0.00  0.00    +0.000 A 
ATOM     24  C   UNL     1       3.293   2.256  20.464  0.00  0.00    +0.000 A 
ATOM     25  C   UNL     1       2.570   2.656  21.593  0.00  0.00    +0.000 A 
ENDBRANCH  19  23
ENDBRANCH  18  19
ENDBRANCH   1  18
TORSDOF 5
ENDMDL
MODEL 2
REMARK VINA RESULT:      -7.0      2.896      6.077
REMARK  Name = 
REMARK  5 active torsions:
REMARK  status: ('A' for Active; 'I' for Inactive)
REMARK    1  A    between atoms: C_4  and  C_5
REMARK    2  A    between atoms: C_5  and  S_6
REMARK    3  A    between atoms: S_6  and  C_7
REMARK    4  A    between atoms: C_10  and  C_11
REMARK    5  A    between atoms: N_17  and  C_18
REMARK                            x       y       z     vdW  Elec       q    Type
REMARK                         _______ _______ _______ _____ _____    ______ ____
ROOT
ATOM      1  C   UNL     1       4.442   5.625  17.273  0.00  0.00    +0.000 A 
ATOM      2  N   UNL     1       4.808   6.747  16.697  0.00  0.00    +0.000 NA
ATOM      3  N   UNL     1       3.950   7.732  17.102  0.00  0.00    +0.000 NA
ATOM      4  C   UNL     1       3.089   7.217  17.964  0.00  0.00    +0.000 A 
ATOM      5  N   UNL     1       3.303   5.832  18.053  0.00  0.00    +0.000 N 
ENDROOT
BRANCH   4   6
ATOM      6  C   UNL     1       2.143   8.012  18.749  0.00  0.00    +0.000 A 
ATOM      7  C   UNL     1       1.947   7.808  20.109  0.00  0.00    +0.000 A 
ATOM      8  N   UNL     1       1.117   8.583  20.860  0.00  0.00    +0.000 NA
ATOM      9  C   UNL     1       0.476   9.565  20.189  0.00  0.00    +0.000 A 
ATOM     10  C   UNL     1       0.644   9.759  18.831  0.00  0.00    +0.000 A 
ATOM     11  N   UNL     1       1.461   8.979  18.084  0.00  0.00    +0.000 NA
ENDBRANCH   4   6
BRANCH   5  12
ATOM     12  C   UNL     1       2.523   4.881  18.787  0.00  0.00    +0.000 A 
ATOM     13  C   UNL     1       2.806   4.624  20.139  0.00  0.00    +0.000 A 
ATOM     14  C   UNL     1       2.155   3.593  20.820  0.00  0.00    +0.000 A 
ATOM     15  C   UNL     1       1.173   2.847  20.177  0.00  0.00    +0.000 A 
ATOM     16  C   UNL     1       0.840   3.136  18.857  0.00  0.00    +0.000 A 
ATOM     17  C   UNL     1       1.515   4.141  18.159  0.00  0.00    +0.000 A 
ENDBRANCH   5  12
BRANCH   1  18
ATOM     18  S   UNL     1       5.147   4.080  16.891  0.00  0.00    +0.000 S 
BRANCH  18  19
ATOM     19  C   UNL     1       6.772   4.549  16.207  0.00  0.00    +0.000 C 
BRANCH  19  23
ATOM     20  C   UNL     1       6.890   4.257  11.884  0.00  0.00    +0.000 A 
ATOM     21  C   UNL     1       7.755   5.119  12.553  0.00  0.00    +0.000 A 
ATOM     22  C   UNL     1       7.716   5.213  13.947  0.00  0.00    +0.000 A 
ATOM     23  C   UNL     1       6.805   4.447  14.695  0.00  0.00    +0.000 A 
ATOM     24  C   UNL     1       5.947   3.575  14.007  0.00  0.00    +0.000 A 
ATOM     25  C   UNL     1       5.986   3.483  12.612  0.00  0.00    +0.000 A 
ENDBRANCH  19  23
ENDBRANCH  18  19
ENDBRANCH   1  18
TORSDOF 5
ENDMDL
MODEL 3
REMARK VINA RESULT:      -7.0      0.220      1.377
REMARK  Name = 
REMARK  5 active torsions:
REMARK  status: ('A' for Active; 'I' for Inactive)
REMARK    1  A    between atoms: C_4  and  C_5
REMARK    2  A    between atoms: C_5  and  S_6
REMARK    3  A    between atoms: S_6  and  C_7
REMARK    4  A    between atoms: C_10  and  C_11
REMARK    5  A    between atoms: N_17  and  C_18
REMARK                            x       y       z     vdW  Elec       q    Type
REMARK                         _______ _______ _______ _____ _____    ______ ____
ROOT
ATOM      1  C   UNL     1       4.735   3.888  16.660  0.00  0.00    +0.000 A 
ATOM      2  N   UNL     1       5.833   3.532  16.033  0.00  0.00    +0.000 NA
ATOM      3  N   UNL     1       6.764   4.517  16.217  0.00  0.00    +0.000 NA
ATOM      4  C   UNL     1       6.247   5.451  16.997  0.00  0.00    +0.000 A 
ATOM      5  N   UNL     1       4.901   5.142  17.250  0.00  0.00    +0.000 N 
ENDROOT
BRANCH   4   6
ATOM      6  C   UNL     1       7.014   6.563  17.561  0.00  0.00    +0.000 A 
ATOM      7  C   UNL     1       7.843   6.411  18.665  0.00  0.00    +0.000 A 
ATOM      8  N   UNL     1       8.608   7.424  19.158  0.00  0.00    +0.000 NA
ATOM      9  C   UNL     1       8.498   8.603  18.509  0.00  0.00    +0.000 A 
ATOM     10  C   UNL     1       7.656   8.770  17.426  0.00  0.00    +0.000 A 
ATOM     11  N   UNL     1       6.886   7.765  16.945  0.00  0.00    +0.000 NA
ENDBRANCH   4   6
BRANCH   5  12
ATOM     12  C   UNL     1       3.947   5.942  17.958  0.00  0.00    +0.000 A 
ATOM     13  C   UNL     1       3.395   7.087  17.358  0.00  0.00    +0.000 A 
ATOM     14  C   UNL     1       2.584   7.955  18.092  0.00  0.00    +0.000 A 
ATOM     15  C   UNL     1       2.266   7.660  19.414  0.00  0.00    +0.000 A 
ATOM     16  C   UNL     1       2.755   6.495  19.998  0.00  0.00    +0.000 A 
ATOM     17  C   UNL     1       3.598   5.641  19.280  0.00  0.00    +0.000 A 
ENDBRANCH   5  12
BRANCH   1  18
ATOM     18  S   UNL     1       3.236   3.012  16.533  0.00  0.00    +0.000 S 
BRANCH  18  19
ATOM     19  C   UNL     1       3.366   1.810  17.898  0.00  0.00    +0.000 C 
BRANCH  19  23
ATOM     20  C   UNL     1       1.334   3.179  21.474  0.00  0.00    +0.000 A 
ATOM     21  C   UNL     1       2.638   2.696  21.549  0.00  0.00    +0.000 A 
ATOM     22  C   UNL     1       3.292   2.254  20.396  0.00  0.00    +0.000 A 
ATOM     23  C   UNL     1       2.649   2.284  19.147  0.00  0.00    +0.000 A 
ATOM     24  C   UNL     1       1.339   2.784  19.085  0.00  0.00    +0.000 A 
ATOM     25  C   UNL     1       0.684   3.224  20.241  0.00  0.00    +0.000 A 
ENDBRANCH  19  23
ENDBRANCH  18  19
ENDBRANCH   1  18
TORSDOF 5
ENDMDL
MODEL 4
REMARK VINA RESULT:      -7.0      0.386      1.035
REMARK  Name = 
REMARK  5 active torsions:
REMARK  status: ('A' for Active; 'I' for Inactive)
REMARK    1  A    between atoms: C_4  and  C_5
REMARK    2  A    between atoms: C_5  and  S_6
REMARK    3  A    between atoms: S_6  and  C_7
REMARK    4  A    between atoms: C_10  and  C_11
REMARK    5  A    between atoms: N_17  and  C_18
REMARK                            x       y       z     vdW  Elec       q    Type
REMARK                         _______ _______ _______ _____ _____    ______ ____
ROOT
ATOM      1  C   UNL     1       5.174   4.166  16.696  0.00  0.00    +0.000 A 
ATOM      2  N   UNL     1       6.284   3.888  16.052  0.00  0.00    +0.000 NA
ATOM      3  N   UNL     1       7.151   4.930  16.231  0.00  0.00    +0.000 NA
ATOM      4  C   UNL     1       6.584   5.824  17.025  0.00  0.00    +0.000 A 
ATOM      5  N   UNL     1       5.265   5.425  17.293  0.00  0.00    +0.000 N 
ENDROOT
BRANCH   4   6
ATOM      6  C   UNL     1       7.284   6.979  17.587  0.00  0.00    +0.000 A 
ATOM      7  C   UNL     1       8.121   6.878  18.692  0.00  0.00    +0.000 A 
ATOM      8  N   UNL     1       8.824   7.935  19.183  0.00  0.00    +0.000 NA
ATOM      9  C   UNL     1       8.645   9.105  18.532  0.00  0.00    +0.000 A 
ATOM     10  C   UNL     1       7.794   9.221  17.449  0.00  0.00    +0.000 A 
ATOM     11  N   UNL     1       7.086   8.171  16.970  0.00  0.00    +0.000 NA
ENDBRANCH   4   6
BRANCH   5  12
ATOM     12  C   UNL     1       4.270   6.155  18.019  0.00  0.00    +0.000 A 
ATOM     13  C   UNL     1       3.872   5.733  19.299  0.00  0.00    +0.000 A 
ATOM     14  C   UNL     1       2.799   6.345  19.950  0.00  0.00    +0.000 A 
ATOM     15  C   UNL     1       2.151   7.425  19.359  0.00  0.00    +0.000 A 
ATOM     16  C   UNL     1       2.579   7.892  18.120  0.00  0.00    +0.000 A 
ATOM     17  C   UNL     1       3.628   7.259  17.446  0.00  0.00    +0.000 A 
ENDBRANCH   5  12
BRANCH   1  18
ATOM     18  S   UNL     1       3.734   3.195  16.581  0.00  0.00    +0.000 S 
BRANCH  18  19
ATOM     19  C   UNL     1       3.908   2.066  18.003  0.00  0.00    +0.000 C 
BRANCH  19  23
ATOM     20  C   UNL     1       1.146   3.032  21.202  0.00  0.00    +0.000 A 
ATOM     21  C   UNL     1       2.464   2.691  21.492  0.00  0.00    +0.000 A 
ATOM     22  C   UNL     1       3.354   2.379  20.460  0.00  0.00    +0.000 A 
ATOM     23  C   UNL     1       2.936   2.399  19.119  0.00  0.00    +0.000 A 
ATOM     24  C   UNL     1       1.607   2.755  18.840  0.00  0.00    +0.000 A 
ATOM     25  C   UNL     1       0.717   3.066  19.874  0.00  0.00    +0.000 A 
ENDBRANCH  19  23
ENDBRANCH  18  19
ENDBRANCH   1  18
TORSDOF 5
ENDMDL
MODEL 5
REMARK VINA RESULT:      -7.0      2.878      6.120
REMARK  Name = 
REMARK  5 active torsions:
REMARK  status: ('A' for Active; 'I' for Inactive)
REMARK    1  A    between atoms: C_4  and  C_5
REMARK    2  A    between atoms: C_5  and  S_6
REMARK    3  A    between atoms: S_6  and  C_7
REMARK    4  A    between atoms: C_10  and  C_11
REMARK    5  A    between atoms: N_17  and  C_18
REMARK                            x       y       z     vdW  Elec       q    Type
REMARK                         _______ _______ _______ _____ _____    ______ ____
ROOT
ATOM      1  C   UNL     1       4.339   5.621  17.276  0.00  0.00    +0.000 A 
ATOM      2  N   UNL     1       4.699   6.742  16.695  0.00  0.00    +0.000 NA
ATOM      3  N   UNL     1       3.877   7.738  17.146  0.00  0.00    +0.000 NA
ATOM      4  C   UNL     1       3.045   7.229  18.041  0.00  0.00    +0.000 A 
ATOM      5  N   UNL     1       3.239   5.840  18.107  0.00  0.00    +0.000 N 
ENDROOT
BRANCH   4   6
ATOM      6  C   UNL     1       2.149   8.033  18.874  0.00  0.00    +0.000 A 
ATOM      7  C   UNL     1       1.409   9.093  18.364  0.00  0.00    +0.000 A 
ATOM      8  N   UNL     1       0.526   9.805  19.117  0.00  0.00    +0.000 NA
ATOM      9  C   UNL     1       0.424   9.423  20.409  0.00  0.00    +0.000 A 
ATOM     10  C   UNL     1       1.175   8.387  20.930  0.00  0.00    +0.000 A 
ATOM     11  N   UNL     1       2.062   7.688  20.183  0.00  0.00    +0.000 NA
ENDBRANCH   4   6
BRANCH   5  12
ATOM     12  C   UNL     1       2.475   4.895  18.867  0.00  0.00    +0.000 A 
ATOM     13  C   UNL     1       2.777   4.663  20.219  0.00  0.00    +0.000 A 
ATOM     14  C   UNL     1       2.142   3.638  20.924  0.00  0.00    +0.000 A 
ATOM     15  C   UNL     1       1.158   2.874  20.306  0.00  0.00    +0.000 A 
ATOM     16  C   UNL     1       0.806   3.139  18.986  0.00  0.00    +0.000 A 
ATOM     17  C   UNL     1       1.465   4.138  18.263  0.00  0.00    +0.000 A 
ENDBRANCH   5  12
BRANCH   1  18
ATOM     18  S   UNL     1       4.999   4.068  16.850  0.00  0.00    +0.000 S 
BRANCH  18  19
ATOM     19  C   UNL     1       6.664   4.503  16.243  0.00  0.00    +0.000 C 
BRANCH  19  23
ATOM     20  C   UNL     1       6.916   4.265  11.922  0.00  0.00    +0.000 A 
ATOM     21  C   UNL     1       6.011   3.467  12.617  0.00  0.00    +0.000 A 
ATOM     22  C   UNL     1       5.931   3.545  14.011  0.00  0.00    +0.000 A 
ATOM     23  C   UNL     1       6.760   4.419  14.732  0.00  0.00    +0.000 A 
ATOM     24  C   UNL     1       7.661   5.224  14.018  0.00  0.00    +0.000 A 
ATOM     25  C   UNL     1       7.741   5.145  12.623  0.00  0.00    +0.000 A 
ENDBRANCH  19  23
ENDBRANCH  18  19
ENDBRANCH   1  18
TORSDOF 5
ENDMDL
MODEL 6
REMARK VINA RESULT:      -7.0      2.899      6.119
REMARK  Name = 
REMARK  5 active torsions:
REMARK  status: ('A' for Active; 'I' for Inactive)
REMARK    1  A    between atoms: C_4  and  C_5
REMARK    2  A    between atoms: C_5  and  S_6
REMARK    3  A    between atoms: S_6  and  C_7
REMARK    4  A    between atoms: C_10  and  C_11
REMARK    5  A    between atoms: N_17  and  C_18
REMARK                            x       y       z     vdW  Elec       q    Type
REMARK                         _______ _______ _______ _____ _____    ______ ____
ROOT
ATOM      1  C   UNL     1       4.341   5.610  17.334  0.00  0.00    +0.000 A 
ATOM      2  N   UNL     1       4.601   6.756  16.748  0.00  0.00    +0.000 NA
ATOM      3  N   UNL     1       3.748   7.696  17.257  0.00  0.00    +0.000 NA
ATOM      4  C   UNL     1       3.000   7.131  18.190  0.00  0.00    +0.000 A 
ATOM      5  N   UNL     1       3.279   5.755  18.228  0.00  0.00    +0.000 N 
ENDROOT
BRANCH   4   6
ATOM      6  C   UNL     1       2.107   7.871  19.082  0.00  0.00    +0.000 A 
ATOM      7  C   UNL     1       1.901   7.501  20.405  0.00  0.00    +0.000 A 
ATOM      8  N   UNL     1       1.121   8.220  21.259  0.00  0.00    +0.000 NA
ATOM      9  C   UNL     1       0.541   9.319  20.730  0.00  0.00    +0.000 A 
ATOM     10  C   UNL     1       0.719   9.680  19.408  0.00  0.00    +0.000 A 
ATOM     11  N   UNL     1       1.485   8.957  18.557  0.00  0.00    +0.000 NA
ENDBRANCH   4   6
BRANCH   5  12
ATOM     12  C   UNL     1       2.617   4.759  19.017  0.00  0.00    +0.000 A 
ATOM     13  C   UNL     1       1.498   4.079  18.509  0.00  0.00    +0.000 A 
ATOM     14  C   UNL     1       0.756   3.220  19.322  0.00  0.00    +0.000 A 
ATOM     15  C   UNL     1       1.158   2.984  20.633  0.00  0.00    +0.000 A 
ATOM     16  C   UNL     1       2.302   3.602  21.126  0.00  0.00    +0.000 A 
ATOM     17  C   UNL     1       3.027   4.493  20.329  0.00  0.00    +0.000 A 
ENDBRANCH   5  12
BRANCH   1  18
ATOM     18  S   UNL     1       5.067   4.103  16.852  0.00  0.00    +0.000 S 
BRANCH  18  19
ATOM     19  C   UNL     1       6.685   4.638  16.201  0.00  0.00    +0.000 C 
BRANCH  19  23
ATOM     20  C   UNL     1       6.909   4.214  11.892  0.00  0.00    +0.000 A 
ATOM     21  C   UNL     1       5.987   3.469  12.624  0.00  0.00    +0.000 A 
ATOM     22  C   UNL     1       5.916   3.606  14.014  0.00  0.00    +0.000 A 
ATOM     23  C   UNL     1       6.771   4.489  14.694  0.00  0.00    +0.000 A 
ATOM     24  C   UNL     1       7.688   5.241  13.943  0.00  0.00    +0.000 A 
ATOM     25  C   UNL     1       7.759   5.101  12.552  0.00  0.00    +0.000 A 
ENDBRANCH  19  23
ENDBRANCH  18  19
ENDBRANCH   1  18
TORSDOF 5
ENDMDL
MODEL 7
REMARK VINA RESULT:      -6.9      2.881      6.204
REMARK  Name = 
REMARK  5 active torsions:
REMARK  status: ('A' for Active; 'I' for Inactive)
REMARK    1  A    between atoms: C_4  and  C_5
REMARK    2  A    between atoms: C_5  and  S_6
REMARK    3  A    between atoms: S_6  and  C_7
REMARK    4  A    between atoms: C_10  and  C_11
REMARK    5  A    between atoms: N_17  and  C_18
REMARK                            x       y       z     vdW  Elec       q    Type
REMARK                         _______ _______ _______ _____ _____    ______ ____
ROOT
ATOM      1  C   UNL     1       4.383   5.623  17.299  0.00  0.00    +0.000 A 
ATOM      2  N   UNL     1       4.671   6.748  16.686  0.00  0.00    +0.000 NA
ATOM      3  N   UNL     1       3.827   7.716  17.159  0.00  0.00    +0.000 NA
ATOM      4  C   UNL     1       3.057   7.188  18.096  0.00  0.00    +0.000 A 
ATOM      5  N   UNL     1       3.312   5.810  18.174  0.00  0.00    +0.000 N 
ENDROOT
BRANCH   4   6
ATOM      6  C   UNL     1       2.164   7.967  18.956  0.00  0.00    +0.000 A 
ATOM      7  C   UNL     1       1.435   9.051  18.484  0.00  0.00    +0.000 A 
ATOM      8  N   UNL     1       0.555   9.742  19.260  0.00  0.00    +0.000 NA
ATOM      9  C   UNL     1       0.446   9.312  20.537  0.00  0.00    +0.000 A 
ATOM     10  C   UNL     1       1.187   8.251  21.021  0.00  0.00    +0.000 A 
ATOM     11  N   UNL     1       2.071   7.574  20.251  0.00  0.00    +0.000 NA
ENDBRANCH   4   6
BRANCH   5  12
ATOM     12  C   UNL     1       2.623   4.846  18.980  0.00  0.00    +0.000 A 
ATOM     13  C   UNL     1       1.515   4.152  18.465  0.00  0.00    +0.000 A 
ATOM     14  C   UNL     1       0.746   3.327  19.288  0.00  0.00    +0.000 A 
ATOM     15  C   UNL     1       1.109   3.137  20.617  0.00  0.00    +0.000 A 
ATOM     16  C   UNL     1       2.242   3.770  21.120  0.00  0.00    +0.000 A 
ATOM     17  C   UNL     1       2.994   4.627  20.312  0.00  0.00    +0.000 A 
ENDBRANCH   5  12
BRANCH   1  18
ATOM     18  S   UNL     1       5.090   4.092  16.867  0.00  0.00    +0.000 S 
BRANCH  18  19
ATOM     19  C   UNL     1       6.722   4.583  16.217  0.00  0.00    +0.000 C 
BRANCH  19  23
ATOM     20  C   UNL     1       6.942   4.272  11.899  0.00  0.00    +0.000 A 
ATOM     21  C   UNL     1       7.774   5.156  12.582  0.00  0.00    +0.000 A 
ATOM     22  C   UNL     1       7.701   5.256  13.975  0.00  0.00    +0.000 A 
ATOM     23  C   UNL     1       6.791   4.475  14.706  0.00  0.00    +0.000 A 
ATOM     24  C   UNL     1       5.967   3.581  14.005  0.00  0.00    +0.000 A 
ATOM     25  C   UNL     1       6.039   3.483  12.611  0.00  0.00    +0.000 A 
ENDBRANCH  19  23
ENDBRANCH  18  19
ENDBRANCH   1  18
TORSDOF 5
ENDMDL
MODEL 8
REMARK VINA RESULT:      -6.7      0.562      1.363
REMARK  Name = 
REMARK  5 active torsions:
REMARK  status: ('A' for Active; 'I' for Inactive)
REMARK    1  A    between atoms: C_4  and  C_5
REMARK    2  A    between atoms: C_5  and  S_6
REMARK    3  A    between atoms: S_6  and  C_7
REMARK    4  A    between atoms: C_10  and  C_11
REMARK    5  A    between atoms: N_17  and  C_18
REMARK                            x       y       z     vdW  Elec       q    Type
REMARK                         _______ _______ _______ _____ _____    ______ ____
ROOT
ATOM      1  C   UNL     1       4.758   3.851  16.698  0.00  0.00    +0.000 A 
ATOM      2  N   UNL     1       5.806   3.501  15.988  0.00  0.00    +0.000 NA
ATOM      3  N   UNL     1       6.760   4.471  16.133  0.00  0.00    +0.000 NA
ATOM      4  C   UNL     1       6.308   5.390  16.970  0.00  0.00    +0.000 A 
ATOM      5  N   UNL     1       4.979   5.088  17.307  0.00  0.00    +0.000 N 
ENDROOT
BRANCH   4   6
ATOM      6  C   UNL     1       7.125   6.478  17.509  0.00  0.00    +0.000 A 
ATOM      7  C   UNL     1       7.205   7.723  16.896  0.00  0.00    +0.000 A 
ATOM      8  N   UNL     1       7.912   8.760  17.423  0.00  0.00    +0.000 NA
ATOM      9  C   UNL     1       8.551   8.496  18.584  0.00  0.00    +0.000 A 
ATOM     10  C   UNL     1       8.499   7.254  19.186  0.00  0.00    +0.000 A 
ATOM     11  N   UNL     1       7.806   6.220  18.654  0.00  0.00    +0.000 NA
ENDBRANCH   4   6
BRANCH   5  12
ATOM     12  C   UNL     1       4.085   5.878  18.100  0.00  0.00    +0.000 A 
ATOM     13  C   UNL     1       3.804   5.516  19.427  0.00  0.00    +0.000 A 
ATOM     14  C   UNL     1       2.822   6.189  20.157  0.00  0.00    +0.000 A 
ATOM     15  C   UNL     1       2.153   7.269  19.591  0.00  0.00    +0.000 A 
ATOM     16  C   UNL     1       2.469   7.677  18.299  0.00  0.00    +0.000 A 
ATOM     17  C   UNL     1       3.424   6.983  17.550  0.00  0.00    +0.000 A 
ENDBRANCH   5  12
BRANCH   1  18
ATOM     18  S   UNL     1       3.243   2.995  16.652  0.00  0.00    +0.000 S 
BRANCH  18  19
ATOM     19  C   UNL     1       3.415   1.819  18.035  0.00  0.00    +0.000 C 
BRANCH  19  23
ATOM     20  C   UNL     1       1.251   3.119  21.560  0.00  0.00    +0.000 A 
ATOM     21  C   UNL     1       2.546   2.620  21.675  0.00  0.00    +0.000 A 
ATOM     22  C   UNL     1       3.243   2.200  20.538  0.00  0.00    +0.000 A 
ATOM     23  C   UNL     1       2.652   2.269  19.266  0.00  0.00    +0.000 A 
ATOM     24  C   UNL     1       1.350   2.784  19.163  0.00  0.00    +0.000 A 
ATOM     25  C   UNL     1       0.653   3.202  20.302  0.00  0.00    +0.000 A 
ENDBRANCH  19  23
ENDBRANCH  18  19
ENDBRANCH   1  18
TORSDOF 5
ENDMDL
MODEL 9
REMARK VINA RESULT:      -6.4      2.346      5.654
REMARK  Name = 
REMARK  5 active torsions:
REMARK  status: ('A' for Active; 'I' for Inactive)
REMARK    1  A    between atoms: C_4  and  C_5
REMARK    2  A    between atoms: C_5  and  S_6
REMARK    3  A    between atoms: S_6  and  C_7
REMARK    4  A    between atoms: C_10  and  C_11
REMARK    5  A    between atoms: N_17  and  C_18
REMARK                            x       y       z     vdW  Elec       q    Type
REMARK                         _______ _______ _______ _____ _____    ______ ____
ROOT
ATOM      1  C   UNL     1       3.808   5.581  17.544  0.00  0.00    +0.000 A 
ATOM      2  N   UNL     1       4.034   6.694  16.884  0.00  0.00    +0.000 NA
ATOM      3  N   UNL     1       3.267   7.680  17.441  0.00  0.00    +0.000 NA
ATOM      4  C   UNL     1       2.610   7.177  18.472  0.00  0.00    +0.000 A 
ATOM      5  N   UNL     1       2.854   5.796  18.540  0.00  0.00    +0.000 N 
ENDROOT
BRANCH   4   6
ATOM      6  C   UNL     1       1.838   7.980  19.422  0.00  0.00    +0.000 A 
ATOM      7  C   UNL     1       1.736   7.649  20.767  0.00  0.00    +0.000 A 
ATOM      8  N   UNL     1       1.074   8.424  21.669  0.00  0.00    +0.000 NA
ATOM      9  C   UNL     1       0.502   9.540  21.167  0.00  0.00    +0.000 A 
ATOM     10  C   UNL     1       0.575   9.863  19.825  0.00  0.00    +0.000 A 
ATOM     11  N   UNL     1       1.224   9.085  18.927  0.00  0.00    +0.000 NA
ENDBRANCH   4   6
BRANCH   5  12
ATOM     12  C   UNL     1       2.255   4.853  19.437  0.00  0.00    +0.000 A 
ATOM     13  C   UNL     1       2.764   4.688  20.736  0.00  0.00    +0.000 A 
ATOM     14  C   UNL     1       2.288   3.669  21.564  0.00  0.00    +0.000 A 
ATOM     15  C   UNL     1       1.257   2.843  21.128  0.00  0.00    +0.000 A 
ATOM     16  C   UNL     1       0.702   3.040  19.867  0.00  0.00    +0.000 A 
ATOM     17  C   UNL     1       1.200   4.033  19.019  0.00  0.00    +0.000 A 
ENDBRANCH   5  12
BRANCH   1  18
ATOM     18  S   UNL     1       4.437   4.034  17.052  0.00  0.00    +0.000 S 
BRANCH  18  19
ATOM     19  C   UNL     1       6.050   4.479  16.327  0.00  0.00    +0.000 C 
BRANCH  19  23
ATOM     20  C   UNL     1       8.315   7.149  18.883  0.00  0.00    +0.000 A 
ATOM     21  C   UNL     1       8.019   5.856  19.306  0.00  0.00    +0.000 A 
ATOM     22  C   UNL     1       7.288   4.996  18.481  0.00  0.00    +0.000 A 
ATOM     23  C   UNL     1       6.837   5.419  17.219  0.00  0.00    +0.000 A 
ATOM     24  C   UNL     1       7.152   6.721  16.801  0.00  0.00    +0.000 A 
ATOM     25  C   UNL     1       7.883   7.582  17.628  0.00  0.00    +0.000 A 
ENDBRANCH  19  23
ENDBRANCH  18  19
ENDBRANCH   1  18
TORSDOF 5
ENDMDL
