MODEL 1
REMARK VINA RESULT:      -8.7      0.000      0.000
REMARK  Name = 
REMARK  6 active torsions:
REMARK  status: ('A' for Active; 'I' for Inactive)
REMARK    1  A    between atoms: C_1  and  C_2
REMARK    2  A    between atoms: C_5  and  N_6
REMARK    3  A    between atoms: C_7  and  C_9
REMARK    4  A    between atoms: C_15  and  C_16
REMARK    5  A    between atoms: C_20  and  S_21
REMARK    6  A    between atoms: S_21  and  N_24
REMARK                            x       y       z     vdW  Elec       q    Type
REMARK                         _______ _______ _______ _____ _____    ______ ____
ROOT
ATOM      1  C   UNL     1      -1.367  11.120  22.763  0.00  0.00    +0.000 C 
ATOM      2  C   UNL     1      -0.473  10.285  21.892  0.00  0.00    +0.000 A 
ATOM      3  C   UNL     1       0.247   9.265  22.537  0.00  0.00    +0.000 A 
ATOM      4  C   UNL     1       1.152   8.455  21.851  0.00  0.00    +0.000 A 
ATOM      5  C   UNL     1       1.384   8.644  20.493  0.00  0.00    +0.000 A 
ATOM      6  C   UNL     1       0.701   9.673  19.836  0.00  0.00    +0.000 A 
ATOM      7  C   UNL     1      -0.255  10.472  20.512  0.00  0.00    +0.000 A 
ENDROOT
BRANCH   5   8
ATOM      8  N   UNL     1       2.286   7.847  19.756  0.00  0.00    +0.000 N 
ATOM      9  C   UNL     1       2.361   6.459  19.777  0.00  0.00    +0.000 C 
ATOM     10  O   UNL     1       1.633   5.714  20.434  0.00  0.00    +0.000 OA
ATOM     11  H   UNL     1       2.899   8.299  19.085  0.00  0.00    +0.000 HD
BRANCH   9  12
ATOM     12  C   UNL     1       3.390   5.922  18.863  0.00  0.00    +0.000 A 
ATOM     13  N   UNL     1       3.077   5.156  17.760  0.00  0.00    +0.000 NA
ATOM     14  C   UNL     1       4.250   4.839  17.257  0.00  0.00    +0.000 A 
ATOM     15  N   UNL     1       4.539   4.078  16.160  0.00  0.00    +0.000 NA
ATOM     16  C   UNL     1       5.800   3.865  15.939  0.00  0.00    +0.000 A 
ATOM     17  C   UNL     1       6.940   4.364  16.756  0.00  0.00    +0.000 A 
ATOM     18  C   UNL     1       6.615   5.130  17.813  0.00  0.00    +0.000 A 
ATOM     19  C   UNL     1       7.632   5.706  18.750  0.00  0.00    +0.000 C 
ATOM     20  N   UNL     1       5.262   5.380  18.065  0.00  0.00    +0.000 N 
ATOM     21  N   UNL     1       4.706   6.097  19.061  0.00  0.00    +0.000 NA
ENDBRANCH   9  12
ENDBRANCH   5   8
BRANCH   7  22
ATOM     22  S   UNL     1      -1.000  11.814  19.554  0.00  0.00    +0.000 S 
ATOM     23  O   UNL     1      -1.599  12.754  20.469  0.00  0.00    +0.000 OA
ATOM     24  O   UNL     1       0.015  12.252  18.611  0.00  0.00    +0.000 OA
BRANCH  22  25
ATOM     25  N   UNL     1      -2.256  11.090  18.622  0.00  0.00    +0.000 NA
ATOM     26  C   UNL     1      -3.577  11.757  18.686  0.00  0.00    +0.000 C 
ATOM     27  C   UNL     1      -4.632  11.170  17.758  0.00  0.00    +0.000 C 
ATOM     28  C   UNL     1      -4.082  10.889  16.373  0.00  0.00    +0.000 C 
ATOM     29  C   UNL     1      -2.945   9.897  16.504  0.00  0.00    +0.000 C 
ATOM     30  C   UNL     1      -1.820  10.443  17.369  0.00  0.00    +0.000 C 
ENDBRANCH  22  25
ENDBRANCH   7  22
TORSDOF 4
ENDMDL
MODEL 2
REMARK VINA RESULT:      -8.5      3.412      8.953
REMARK  Name = 
REMARK  6 active torsions:
REMARK  status: ('A' for Active; 'I' for Inactive)
REMARK    1  A    between atoms: C_1  and  C_2
REMARK    2  A    between atoms: C_5  and  N_6
REMARK    3  A    between atoms: C_7  and  C_9
REMARK    4  A    between atoms: C_15  and  C_16
REMARK    5  A    between atoms: C_20  and  S_21
REMARK    6  A    between atoms: S_21  and  N_24
REMARK                            x       y       z     vdW  Elec       q    Type
REMARK                         _______ _______ _______ _____ _____    ______ ____
ROOT
ATOM      1  C   UNL     1       5.719   4.231  15.708  0.00  0.00    +0.000 C 
ATOM      2  C   UNL     1       4.798   5.074  16.543  0.00  0.00    +0.000 A 
ATOM      3  C   UNL     1       5.098   6.446  16.606  0.00  0.00    +0.000 A 
ATOM      4  C   UNL     1       4.352   7.327  17.390  0.00  0.00    +0.000 A 
ATOM      5  C   UNL     1       3.286   6.868  18.155  0.00  0.00    +0.000 A 
ATOM      6  C   UNL     1       2.989   5.501  18.131  0.00  0.00    +0.000 A 
ATOM      7  C   UNL     1       3.708   4.603  17.303  0.00  0.00    +0.000 A 
ENDROOT
BRANCH   5   8
ATOM      8  N   UNL     1       2.501   7.721  18.959  0.00  0.00    +0.000 N 
ATOM      9  C   UNL     1       1.790   8.834  18.524  0.00  0.00    +0.000 C 
ATOM     10  O   UNL     1       1.725   9.230  17.360  0.00  0.00    +0.000 OA
ATOM     11  H   UNL     1       2.367   7.483  19.936  0.00  0.00    +0.000 HD
BRANCH   9  12
ATOM     12  C   UNL     1       1.036   9.498  19.607  0.00  0.00    +0.000 A 
ATOM     13  N   UNL     1       0.949   8.976  20.880  0.00  0.00    +0.000 NA
ATOM     14  C   UNL     1       0.161   9.819  21.510  0.00  0.00    +0.000 A 
ATOM     15  N   UNL     1      -0.277   9.786  22.804  0.00  0.00    +0.000 NA
ATOM     16  C   UNL     1      -1.117  10.717  23.138  0.00  0.00    +0.000 A 
ATOM     17  C   UNL     1      -1.639  11.799  22.257  0.00  0.00    +0.000 A 
ATOM     18  C   UNL     1      -1.165  11.812  20.999  0.00  0.00    +0.000 A 
ATOM     19  C   UNL     1      -1.589  12.819  19.975  0.00  0.00    +0.000 C 
ATOM     20  N   UNL     1      -0.250  10.823  20.619  0.00  0.00    +0.000 N 
ATOM     21  N   UNL     1       0.339  10.631  19.423  0.00  0.00    +0.000 NA
ENDBRANCH   9  12
ENDBRANCH   5   8
BRANCH   7  22
ATOM     22  S   UNL     1       3.263   2.856  17.437  0.00  0.00    +0.000 S 
ATOM     23  O   UNL     1       2.237   2.567  16.466  0.00  0.00    +0.000 OA
ATOM     24  O   UNL     1       4.513   2.115  17.427  0.00  0.00    +0.000 OA
BRANCH  22  25
ATOM     25  N   UNL     1       2.589   2.658  19.012  0.00  0.00    +0.000 NA
ATOM     26  C   UNL     1       3.560   2.594  20.129  0.00  0.00    +0.000 C 
ATOM     27  C   UNL     1       2.933   2.544  21.515  0.00  0.00    +0.000 C 
ATOM     28  C   UNL     1       1.795   3.536  21.663  0.00  0.00    +0.000 C 
ATOM     29  C   UNL     1       0.732   3.200  20.637  0.00  0.00    +0.000 C 
ATOM     30  C   UNL     1       1.272   3.291  19.219  0.00  0.00    +0.000 C 
ENDBRANCH  22  25
ENDBRANCH   7  22
TORSDOF 4
ENDMDL
MODEL 3
REMARK VINA RESULT:      -8.4      3.471      8.787
REMARK  Name = 
REMARK  6 active torsions:
REMARK  status: ('A' for Active; 'I' for Inactive)
REMARK    1  A    between atoms: C_1  and  C_2
REMARK    2  A    between atoms: C_5  and  N_6
REMARK    3  A    between atoms: C_7  and  C_9
REMARK    4  A    between atoms: C_15  and  C_16
REMARK    5  A    between atoms: C_20  and  S_21
REMARK    6  A    between atoms: S_21  and  N_24
REMARK                            x       y       z     vdW  Elec       q    Type
REMARK                         _______ _______ _______ _____ _____    ______ ____
ROOT
ATOM      1  C   UNL     1       6.054   4.261  15.924  0.00  0.00    +0.000 C 
ATOM      2  C   UNL     1       5.054   5.086  16.683  0.00  0.00    +0.000 A 
ATOM      3  C   UNL     1       4.929   6.429  16.287  0.00  0.00    +0.000 A 
ATOM      4  C   UNL     1       4.075   7.314  16.946  0.00  0.00    +0.000 A 
ATOM      5  C   UNL     1       3.324   6.894  18.038  0.00  0.00    +0.000 A 
ATOM      6  C   UNL     1       3.455   5.569  18.468  0.00  0.00    +0.000 A 
ATOM      7  C   UNL     1       4.283   4.648  17.778  0.00  0.00    +0.000 A 
ENDROOT
BRANCH   5   8
ATOM      8  N   UNL     1       2.444   7.751  18.733  0.00  0.00    +0.000 N 
ATOM      9  C   UNL     1       1.939   8.961  18.270  0.00  0.00    +0.000 C 
ATOM     10  O   UNL     1       2.173   9.456  17.167  0.00  0.00    +0.000 OA
ATOM     11  H   UNL     1       2.072   7.446  19.627  0.00  0.00    +0.000 HD
BRANCH   9  12
ATOM     12  C   UNL     1       1.011   9.603  19.222  0.00  0.00    +0.000 A 
ATOM     13  N   UNL     1       0.188  10.650  18.867  0.00  0.00    +0.000 NA
ATOM     14  C   UNL     1      -0.423  10.962  19.989  0.00  0.00    +0.000 A 
ATOM     15  N   UNL     1      -1.346  11.941  20.224  0.00  0.00    +0.000 NA
ATOM     16  C   UNL     1      -1.726  12.073  21.458  0.00  0.00    +0.000 A 
ATOM     17  C   UNL     1      -1.257  11.269  22.621  0.00  0.00    +0.000 A 
ATOM     18  C   UNL     1      -0.368  10.300  22.344  0.00  0.00    +0.000 A 
ATOM     19  C   UNL     1       0.219   9.404  23.393  0.00  0.00    +0.000 C 
ATOM     20  N   UNL     1       0.050  10.133  21.019  0.00  0.00    +0.000 N 
ATOM     21  N   UNL     1       0.933   9.249  20.515  0.00  0.00    +0.000 NA
ENDBRANCH   9  12
ENDBRANCH   5   8
BRANCH   7  22
ATOM     22  S   UNL     1       4.415   2.994  18.496  0.00  0.00    +0.000 S 
ATOM     23  O   UNL     1       4.570   2.039  17.426  0.00  0.00    +0.000 OA
ATOM     24  O   UNL     1       5.412   3.085  19.549  0.00  0.00    +0.000 OA
BRANCH  22  25
ATOM     25  N   UNL     1       2.906   2.694  19.275  0.00  0.00    +0.000 NA
ATOM     26  C   UNL     1       2.815   3.110  20.693  0.00  0.00    +0.000 C 
ATOM     27  C   UNL     1       1.436   2.947  21.317  0.00  0.00    +0.000 C 
ATOM     28  C   UNL     1       0.332   3.432  20.397  0.00  0.00    +0.000 C 
ATOM     29  C   UNL     1       0.385   2.621  19.119  0.00  0.00    +0.000 C 
ATOM     30  C   UNL     1       1.717   2.786  18.405  0.00  0.00    +0.000 C 
ENDBRANCH  22  25
ENDBRANCH   7  22
TORSDOF 4
ENDMDL
MODEL 4
REMARK VINA RESULT:      -8.4      2.172      3.721
REMARK  Name = 
REMARK  6 active torsions:
REMARK  status: ('A' for Active; 'I' for Inactive)
REMARK    1  A    between atoms: C_1  and  C_2
REMARK    2  A    between atoms: C_5  and  N_6
REMARK    3  A    between atoms: C_7  and  C_9
REMARK    4  A    between atoms: C_15  and  C_16
REMARK    5  A    between atoms: C_20  and  S_21
REMARK    6  A    between atoms: S_21  and  N_24
REMARK                            x       y       z     vdW  Elec       q    Type
REMARK                         _______ _______ _______ _____ _____    ______ ____
ROOT
ATOM      1  C   UNL     1      -2.205  12.627  19.218  0.00  0.00    +0.000 C 
ATOM      2  C   UNL     1      -1.088  11.690  18.858  0.00  0.00    +0.000 A 
ATOM      3  C   UNL     1      -1.418  10.634  17.991  0.00  0.00    +0.000 A 
ATOM      4  C   UNL     1      -0.485   9.664  17.624  0.00  0.00    +0.000 A 
ATOM      5  C   UNL     1       0.813   9.704  18.122  0.00  0.00    +0.000 A 
ATOM      6  C   UNL     1       1.155  10.730  19.010  0.00  0.00    +0.000 A 
ATOM      7  C   UNL     1       0.231  11.747  19.354  0.00  0.00    +0.000 A 
ENDROOT
BRANCH   5   8
ATOM      8  N   UNL     1       1.792   8.749  17.775  0.00  0.00    +0.000 N 
ATOM      9  C   UNL     1       2.356   7.805  18.627  0.00  0.00    +0.000 C 
ATOM     10  O   UNL     1       2.066   7.651  19.813  0.00  0.00    +0.000 OA
ATOM     11  H   UNL     1       2.077   8.674  16.804  0.00  0.00    +0.000 HD
BRANCH   9  12
ATOM     12  C   UNL     1       3.328   6.923  17.950  0.00  0.00    +0.000 A 
ATOM     13  N   UNL     1       4.322   7.407  17.126  0.00  0.00    +0.000 NA
ATOM     14  C   UNL     1       4.921   6.321  16.689  0.00  0.00    +0.000 A 
ATOM     15  N   UNL     1       5.976   6.207  15.827  0.00  0.00    +0.000 NA
ATOM     16  C   UNL     1       6.314   4.995  15.509  0.00  0.00    +0.000 A 
ATOM     17  C   UNL     1       5.670   3.740  15.987  0.00  0.00    +0.000 A 
ATOM     18  C   UNL     1       4.653   3.894  16.853  0.00  0.00    +0.000 A 
ATOM     19  C   UNL     1       3.884   2.743  17.426  0.00  0.00    +0.000 C 
ATOM     20  N   UNL     1       4.276   5.192  17.217  0.00  0.00    +0.000 N 
ATOM     21  N   UNL     1       3.290   5.584  18.046  0.00  0.00    +0.000 NA
ENDBRANCH   9  12
ENDBRANCH   5   8
BRANCH   7  22
ATOM     22  S   UNL     1       0.790  12.961  20.573  0.00  0.00    +0.000 S 
ATOM     23  O   UNL     1       2.161  12.672  20.914  0.00  0.00    +0.000 OA
ATOM     24  O   UNL     1       0.424  14.265  20.046  0.00  0.00    +0.000 OA
BRANCH  22  25
ATOM     25  N   UNL     1      -0.182  12.707  21.974  0.00  0.00    +0.000 NA
ATOM     26  C   UNL     1      -1.036  13.846  22.384  0.00  0.00    +0.000 C 
ATOM     27  C   UNL     1      -1.973  13.551  23.547  0.00  0.00    +0.000 C 
ATOM     28  C   UNL     1      -2.660  12.207  23.402  0.00  0.00    +0.000 C 
ATOM     29  C   UNL     1      -1.597  11.130  23.351  0.00  0.00    +0.000 C 
ATOM     30  C   UNL     1      -0.657  11.324  22.171  0.00  0.00    +0.000 C 
ENDBRANCH  22  25
ENDBRANCH   7  22
TORSDOF 4
ENDMDL
MODEL 5
REMARK VINA RESULT:      -8.4      1.428      1.850
REMARK  Name = 
REMARK  6 active torsions:
REMARK  status: ('A' for Active; 'I' for Inactive)
REMARK    1  A    between atoms: C_1  and  C_2
REMARK    2  A    between atoms: C_5  and  N_6
REMARK    3  A    between atoms: C_7  and  C_9
REMARK    4  A    between atoms: C_15  and  C_16
REMARK    5  A    between atoms: C_20  and  S_21
REMARK    6  A    between atoms: S_21  and  N_24
REMARK                            x       y       z     vdW  Elec       q    Type
REMARK                         _______ _______ _______ _____ _____    ______ ____
ROOT
ATOM      1  C   UNL     1      -1.507  11.672  22.966  0.00  0.00    +0.000 C 
ATOM      2  C   UNL     1      -0.714  10.764  22.070  0.00  0.00    +0.000 A 
ATOM      3  C   UNL     1       0.036   9.762  22.709  0.00  0.00    +0.000 A 
ATOM      4  C   UNL     1       0.857   8.889  21.994  0.00  0.00    +0.000 A 
ATOM      5  C   UNL     1       0.971   8.994  20.613  0.00  0.00    +0.000 A 
ATOM      6  C   UNL     1       0.256  10.004  19.959  0.00  0.00    +0.000 A 
ATOM      7  C   UNL     1      -0.617  10.867  20.668  0.00  0.00    +0.000 A 
ENDROOT
BRANCH   5   8
ATOM      8  N   UNL     1       1.785   8.132  19.847  0.00  0.00    +0.000 N 
ATOM      9  C   UNL     1       2.076   8.265  18.493  0.00  0.00    +0.000 C 
ATOM     10  O   UNL     1       1.678   9.174  17.764  0.00  0.00    +0.000 OA
ATOM     11  H   UNL     1       2.273   7.378  20.318  0.00  0.00    +0.000 HD
BRANCH   9  12
ATOM     12  C   UNL     1       2.989   7.218  17.993  0.00  0.00    +0.000 A 
ATOM     13  N   UNL     1       4.185   7.509  17.372  0.00  0.00    +0.000 NA
ATOM     14  C   UNL     1       4.658   6.329  17.036  0.00  0.00    +0.000 A 
ATOM     15  N   UNL     1       5.816   6.020  16.381  0.00  0.00    +0.000 NA
ATOM     16  C   UNL     1       5.994   4.763  16.112  0.00  0.00    +0.000 A 
ATOM     17  C   UNL     1       5.067   3.646  16.447  0.00  0.00    +0.000 A 
ATOM     18  C   UNL     1       3.951   3.988  17.113  0.00  0.00    +0.000 A 
ATOM     19  C   UNL     1       2.904   2.996  17.519  0.00  0.00    +0.000 C 
ATOM     20  N   UNL     1       3.743   5.337  17.422  0.00  0.00    +0.000 N 
ATOM     21  N   UNL     1       2.704   5.907  18.061  0.00  0.00    +0.000 NA
ENDBRANCH   9  12
ENDBRANCH   5   8
BRANCH   7  22
ATOM     22  S   UNL     1      -1.413  12.173  19.703  0.00  0.00    +0.000 S 
ATOM     23  O   UNL     1      -2.134  13.037  20.604  0.00  0.00    +0.000 OA
ATOM     24  O   UNL     1      -0.386  12.716  18.829  0.00  0.00    +0.000 OA
BRANCH  22  25
ATOM     25  N   UNL     1      -2.555  11.379  18.684  0.00  0.00    +0.000 NA
ATOM     26  C   UNL     1      -3.962  11.821  18.821  0.00  0.00    +0.000 C 
ATOM     27  C   UNL     1      -4.926  11.193  17.824  0.00  0.00    +0.000 C 
ATOM     28  C   UNL     1      -4.359  11.168  16.418  0.00  0.00    +0.000 C 
ATOM     29  C   UNL     1      -3.080  10.356  16.434  0.00  0.00    +0.000 C 
ATOM     30  C   UNL     1      -2.041  10.962  17.365  0.00  0.00    +0.000 C 
ENDBRANCH  22  25
ENDBRANCH   7  22
TORSDOF 4
ENDMDL
MODEL 6
REMARK VINA RESULT:      -8.3      6.445      9.447
REMARK  Name = 
REMARK  6 active torsions:
REMARK  status: ('A' for Active; 'I' for Inactive)
REMARK    1  A    between atoms: C_1  and  C_2
REMARK    2  A    between atoms: C_5  and  N_6
REMARK    3  A    between atoms: C_7  and  C_9
REMARK    4  A    between atoms: C_15  and  C_16
REMARK    5  A    between atoms: C_20  and  S_21
REMARK    6  A    between atoms: S_21  and  N_24
REMARK                            x       y       z     vdW  Elec       q    Type
REMARK                         _______ _______ _______ _____ _____    ______ ____
ROOT
ATOM      1  C   UNL     1       6.696   4.308  18.478  0.00  0.00    +0.000 C 
ATOM      2  C   UNL     1       7.137   5.716  18.198  0.00  0.00    +0.000 A 
ATOM      3  C   UNL     1       8.089   6.256  19.080  0.00  0.00    +0.000 A 
ATOM      4  C   UNL     1       8.540   7.571  18.962  0.00  0.00    +0.000 A 
ATOM      5  C   UNL     1       8.045   8.403  17.964  0.00  0.00    +0.000 A 
ATOM      6  C   UNL     1       7.075   7.896  17.092  0.00  0.00    +0.000 A 
ATOM      7  C   UNL     1       6.643   6.548  17.173  0.00  0.00    +0.000 A 
ENDROOT
BRANCH   5   8
ATOM      8  N   UNL     1       8.474   9.738  17.802  0.00  0.00    +0.000 N 
ATOM      9  C   UNL     1       9.077  10.530  18.773  0.00  0.00    +0.000 C 
ATOM     10  O   UNL     1       9.345  10.172  19.920  0.00  0.00    +0.000 OA
ATOM     11  H   UNL     1       8.415  10.160  16.881  0.00  0.00    +0.000 HD
BRANCH   9  12
ATOM     12  C   UNL     1       9.443  11.873  18.278  0.00  0.00    +0.000 A 
ATOM     13  N   UNL     1      10.659  12.142  17.688  0.00  0.00    +0.000 NA
ATOM     14  C   UNL     1      10.610  13.434  17.447  0.00  0.00    +0.000 A 
ATOM     15  N   UNL     1      11.556  14.240  16.879  0.00  0.00    +0.000 NA
ATOM     16  C   UNL     1      11.265  15.504  16.835  0.00  0.00    +0.000 A 
ATOM     17  C   UNL     1      10.017  16.145  17.336  0.00  0.00    +0.000 A 
ATOM     18  C   UNL     1       9.102  15.315  17.865  0.00  0.00    +0.000 A 
ATOM     19  C   UNL     1       7.796  15.787  18.428  0.00  0.00    +0.000 C 
ATOM     20  N   UNL     1       9.390  13.946  17.915  0.00  0.00    +0.000 N 
ATOM     21  N   UNL     1       8.640  12.941  18.408  0.00  0.00    +0.000 NA
ENDBRANCH   9  12
ENDBRANCH   5   8
BRANCH   7  22
ATOM     22  S   UNL     1       5.329   6.058  16.032  0.00  0.00    +0.000 S 
ATOM     23  O   UNL     1       5.101   7.135  15.101  0.00  0.00    +0.000 OA
ATOM     24  O   UNL     1       5.682   4.733  15.549  0.00  0.00    +0.000 OA
BRANCH  22  25
ATOM     25  N   UNL     1       3.912   5.866  16.996  0.00  0.00    +0.000 NA
ATOM     26  C   UNL     1       3.510   4.471  17.287  0.00  0.00    +0.000 C 
ATOM     27  C   UNL     1       2.331   4.334  18.240  0.00  0.00    +0.000 C 
ATOM     28  C   UNL     1       2.447   5.267  19.430  0.00  0.00    +0.000 C 
ATOM     29  C   UNL     1       2.493   6.691  18.917  0.00  0.00    +0.000 C 
ATOM     30  C   UNL     1       3.687   6.920  18.004  0.00  0.00    +0.000 C 
ENDBRANCH  22  25
ENDBRANCH   7  22
TORSDOF 4
ENDMDL
MODEL 7
REMARK VINA RESULT:      -8.3      2.027      3.485
REMARK  Name = 
REMARK  6 active torsions:
REMARK  status: ('A' for Active; 'I' for Inactive)
REMARK    1  A    between atoms: C_1  and  C_2
REMARK    2  A    between atoms: C_5  and  N_6
REMARK    3  A    between atoms: C_7  and  C_9
REMARK    4  A    between atoms: C_15  and  C_16
REMARK    5  A    between atoms: C_20  and  S_21
REMARK    6  A    between atoms: S_21  and  N_24
REMARK                            x       y       z     vdW  Elec       q    Type
REMARK                         _______ _______ _______ _____ _____    ______ ____
ROOT
ATOM      1  C   UNL     1      -2.107  12.549  19.231  0.00  0.00    +0.000 C 
ATOM      2  C   UNL     1      -0.974  11.626  18.883  0.00  0.00    +0.000 A 
ATOM      3  C   UNL     1      -1.283  10.560  18.021  0.00  0.00    +0.000 A 
ATOM      4  C   UNL     1      -0.333   9.603  17.665  0.00  0.00    +0.000 A 
ATOM      5  C   UNL     1       0.961   9.666  18.170  0.00  0.00    +0.000 A 
ATOM      6  C   UNL     1       1.283  10.702  19.053  0.00  0.00    +0.000 A 
ATOM      7  C   UNL     1       0.341  11.707  19.386  0.00  0.00    +0.000 A 
ENDROOT
BRANCH   5   8
ATOM      8  N   UNL     1       1.957   8.724  17.835  0.00  0.00    +0.000 N 
ATOM      9  C   UNL     1       2.410   7.685  18.642  0.00  0.00    +0.000 C 
ATOM     10  O   UNL     1       1.990   7.422  19.769  0.00  0.00    +0.000 OA
ATOM     11  H   UNL     1       2.345   8.738  16.897  0.00  0.00    +0.000 HD
BRANCH   9  12
ATOM     12  C   UNL     1       3.436   6.849  17.986  0.00  0.00    +0.000 A 
ATOM     13  N   UNL     1       3.175   5.575  17.528  0.00  0.00    +0.000 NA
ATOM     14  C   UNL     1       4.339   5.163  17.074  0.00  0.00    +0.000 A 
ATOM     15  N   UNL     1       4.667   3.962  16.513  0.00  0.00    +0.000 NA
ATOM     16  C   UNL     1       5.922   3.799  16.222  0.00  0.00    +0.000 A 
ATOM     17  C   UNL     1       7.016   4.785  16.441  0.00  0.00    +0.000 A 
ATOM     18  C   UNL     1       6.648   5.964  16.971  0.00  0.00    +0.000 A 
ATOM     19  C   UNL     1       7.619   7.066  17.269  0.00  0.00    +0.000 C 
ATOM     20  N   UNL     1       5.299   6.165  17.284  0.00  0.00    +0.000 N 
ATOM     21  N   UNL     1       4.709   7.246  17.830  0.00  0.00    +0.000 NA
ENDBRANCH   9  12
ENDBRANCH   5   8
BRANCH   7  22
ATOM     22  S   UNL     1       0.874  12.937  20.600  0.00  0.00    +0.000 S 
ATOM     23  O   UNL     1       2.242  12.662  20.962  0.00  0.00    +0.000 OA
ATOM     24  O   UNL     1       0.505  14.233  20.056  0.00  0.00    +0.000 OA
BRANCH  22  25
ATOM     25  N   UNL     1      -0.115  12.689  21.991  0.00  0.00    +0.000 NA
ATOM     26  C   UNL     1      -0.966  13.833  22.392  0.00  0.00    +0.000 C 
ATOM     27  C   UNL     1      -1.917  13.544  23.545  0.00  0.00    +0.000 C 
ATOM     28  C   UNL     1      -2.611  12.205  23.392  0.00  0.00    +0.000 C 
ATOM     29  C   UNL     1      -1.553  11.121  23.352  0.00  0.00    +0.000 C 
ATOM     30  C   UNL     1      -0.600  11.309  22.182  0.00  0.00    +0.000 C 
ENDBRANCH  22  25
ENDBRANCH   7  22
TORSDOF 4
ENDMDL
MODEL 8
REMARK VINA RESULT:      -8.3      1.604      2.159
REMARK  Name = 
REMARK  6 active torsions:
REMARK  status: ('A' for Active; 'I' for Inactive)
REMARK    1  A    between atoms: C_1  and  C_2
REMARK    2  A    between atoms: C_5  and  N_6
REMARK    3  A    between atoms: C_7  and  C_9
REMARK    4  A    between atoms: C_15  and  C_16
REMARK    5  A    between atoms: C_20  and  S_21
REMARK    6  A    between atoms: S_21  and  N_24
REMARK                            x       y       z     vdW  Elec       q    Type
REMARK                         _______ _______ _______ _____ _____    ______ ____
ROOT
ATOM      1  C   UNL     1      -1.512  11.756  23.002  0.00  0.00    +0.000 C 
ATOM      2  C   UNL     1      -0.721  10.846  22.106  0.00  0.00    +0.000 A 
ATOM      3  C   UNL     1      -0.047   9.786  22.736  0.00  0.00    +0.000 A 
ATOM      4  C   UNL     1       0.764   8.903  22.023  0.00  0.00    +0.000 A 
ATOM      5  C   UNL     1       0.945   9.055  20.653  0.00  0.00    +0.000 A 
ATOM      6  C   UNL     1       0.308  10.122  20.010  0.00  0.00    +0.000 A 
ATOM      7  C   UNL     1      -0.556  10.997  20.714  0.00  0.00    +0.000 A 
ENDROOT
BRANCH   5   8
ATOM      8  N   UNL     1       1.752   8.185  19.889  0.00  0.00    +0.000 N 
ATOM      9  C   UNL     1       1.995   8.277  18.523  0.00  0.00    +0.000 C 
ATOM     10  O   UNL     1       1.553   9.151  17.777  0.00  0.00    +0.000 OA
ATOM     11  H   UNL     1       2.274   7.458  20.368  0.00  0.00    +0.000 HD
BRANCH   9  12
ATOM     12  C   UNL     1       2.915   7.233  18.027  0.00  0.00    +0.000 A 
ATOM     13  N   UNL     1       4.123   7.529  17.433  0.00  0.00    +0.000 NA
ATOM     14  C   UNL     1       4.599   6.351  17.092  0.00  0.00    +0.000 A 
ATOM     15  N   UNL     1       5.769   6.047  16.455  0.00  0.00    +0.000 NA
ATOM     16  C   UNL     1       5.948   4.792  16.174  0.00  0.00    +0.000 A 
ATOM     17  C   UNL     1       5.012   3.674  16.477  0.00  0.00    +0.000 A 
ATOM     18  C   UNL     1       3.884   4.011  17.126  0.00  0.00    +0.000 A 
ATOM     19  C   UNL     1       2.827   3.018  17.500  0.00  0.00    +0.000 C 
ATOM     20  N   UNL     1       3.674   5.357  17.447  0.00  0.00    +0.000 N 
ATOM     21  N   UNL     1       2.624   5.923  18.074  0.00  0.00    +0.000 NA
ENDBRANCH   9  12
ENDBRANCH   5   8
BRANCH   7  22
ATOM     22  S   UNL     1      -1.247  12.375  19.768  0.00  0.00    +0.000 S 
ATOM     23  O   UNL     1      -1.138  13.576  20.558  0.00  0.00    +0.000 OA
ATOM     24  O   UNL     1      -0.642  12.307  18.449  0.00  0.00    +0.000 OA
BRANCH  22  25
ATOM     25  N   UNL     1      -2.920  12.014  19.559  0.00  0.00    +0.000 NA
ATOM     26  C   UNL     1      -3.867  12.892  20.285  0.00  0.00    +0.000 C 
ATOM     27  C   UNL     1      -5.336  12.628  19.984  0.00  0.00    +0.000 C 
ATOM     28  C   UNL     1      -5.591  12.437  18.502  0.00  0.00    +0.000 C 
ATOM     29  C   UNL     1      -4.778  11.250  18.027  0.00  0.00    +0.000 C 
ATOM     30  C   UNL     1      -3.288  11.469  18.238  0.00  0.00    +0.000 C 
ENDBRANCH  22  25
ENDBRANCH   7  22
TORSDOF 4
ENDMDL
MODEL 9
REMARK VINA RESULT:      -8.2      3.344      8.898
REMARK  Name = 
REMARK  6 active torsions:
REMARK  status: ('A' for Active; 'I' for Inactive)
REMARK    1  A    between atoms: C_1  and  C_2
REMARK    2  A    between atoms: C_5  and  N_6
REMARK    3  A    between atoms: C_7  and  C_9
REMARK    4  A    between atoms: C_15  and  C_16
REMARK    5  A    between atoms: C_20  and  S_21
REMARK    6  A    between atoms: S_21  and  N_24
REMARK                            x       y       z     vdW  Elec       q    Type
REMARK                         _______ _______ _______ _____ _____    ______ ____
ROOT
ATOM      1  C   UNL     1       5.970   4.196  15.865  0.00  0.00    +0.000 C 
ATOM      2  C   UNL     1       5.040   5.040  16.690  0.00  0.00    +0.000 A 
ATOM      3  C   UNL     1       4.950   6.396  16.332  0.00  0.00    +0.000 A 
ATOM      4  C   UNL     1       4.164   7.296  17.051  0.00  0.00    +0.000 A 
ATOM      5  C   UNL     1       3.448   6.878  18.167  0.00  0.00    +0.000 A 
ATOM      6  C   UNL     1       3.547   5.539  18.560  0.00  0.00    +0.000 A 
ATOM      7  C   UNL     1       4.304   4.604  17.810  0.00  0.00    +0.000 A 
ENDROOT
BRANCH   5   8
ATOM      8  N   UNL     1       2.636   7.750  18.923  0.00  0.00    +0.000 N 
ATOM      9  C   UNL     1       1.939   8.851  18.437  0.00  0.00    +0.000 C 
ATOM     10  O   UNL     1       1.912   9.216  17.262  0.00  0.00    +0.000 OA
ATOM     11  H   UNL     1       2.470   7.536  19.901  0.00  0.00    +0.000 HD
BRANCH   9  12
ATOM     12  C   UNL     1       1.149   9.540  19.478  0.00  0.00    +0.000 A 
ATOM     13  N   UNL     1       1.236   9.215  20.815  0.00  0.00    +0.000 NA
ATOM     14  C   UNL     1       0.353  10.004  21.386  0.00  0.00    +0.000 A 
ATOM     15  N   UNL     1       0.010  10.100  22.705  0.00  0.00    +0.000 NA
ATOM     16  C   UNL     1      -0.959  10.919  22.977  0.00  0.00    +0.000 A 
ATOM     17  C   UNL     1      -1.718  11.749  22.001  0.00  0.00    +0.000 A 
ATOM     18  C   UNL     1      -1.335  11.645  20.717  0.00  0.00    +0.000 A 
ATOM     19  C   UNL     1      -1.994  12.397  19.602  0.00  0.00    +0.000 C 
ATOM     20  N   UNL     1      -0.285  10.774  20.402  0.00  0.00    +0.000 N 
ATOM     21  N   UNL     1       0.252  10.500  19.197  0.00  0.00    +0.000 NA
ENDBRANCH   9  12
ENDBRANCH   5   8
BRANCH   7  22
ATOM     22  S   UNL     1       4.403   2.928  18.482  0.00  0.00    +0.000 S 
ATOM     23  O   UNL     1       4.556   2.002  17.388  0.00  0.00    +0.000 OA
ATOM     24  O   UNL     1       5.390   2.975  19.548  0.00  0.00    +0.000 OA
BRANCH  22  25
ATOM     25  N   UNL     1       2.881   2.629  19.235  0.00  0.00    +0.000 NA
ATOM     26  C   UNL     1       2.798   2.953  20.678  0.00  0.00    +0.000 C 
ATOM     27  C   UNL     1       1.412   2.797  21.286  0.00  0.00    +0.000 C 
ATOM     28  C   UNL     1       0.329   3.379  20.398  0.00  0.00    +0.000 C 
ATOM     29  C   UNL     1       0.361   2.654  19.069  0.00  0.00    +0.000 C 
ATOM     30  C   UNL     1       1.701   2.820  18.371  0.00  0.00    +0.000 C 
ENDBRANCH  22  25
ENDBRANCH   7  22
TORSDOF 4
ENDMDL
