MODEL 1
REMARK VINA RESULT:      -8.3      0.000      0.000
REMARK  Name = 
REMARK  7 active torsions:
REMARK  status: ('A' for Active; 'I' for Inactive)
REMARK    1  A    between atoms: N_1  and  C_2
REMARK    2  A    between atoms: C_8  and  C_9
REMARK    3  A    between atoms: C_12  and  O_13
REMARK    4  A    between atoms: O_13  and  C_14
REMARK    5  A    between atoms: N_24  and  C_25
REMARK    6  A    between atoms: C_25  and  C_26
REMARK    7  A    between atoms: C_31  and  C_33
REMARK                            x       y       z     vdW  Elec       q    Type
REMARK                         _______ _______ _______ _____ _____    ______ ____
ROOT
ATOM      1  C   UNL     1       1.486  13.442  19.157  0.00  0.00    +0.000 A 
ATOM      2  N   UNL     1       1.524  14.782  19.015  0.00  0.00    +0.000 NA
ATOM      3  C   UNL     1       0.405  15.492  19.251  0.00  0.00    +0.000 A 
ATOM      4  N   UNL     1      -0.800  15.030  19.623  0.00  0.00    +0.000 NA
ATOM      5  C   UNL     1      -0.793  13.693  19.759  0.00  0.00    +0.000 A 
ATOM      6  C   UNL     1       0.282  12.841  19.560  0.00  0.00    +0.000 A 
ATOM      7  C   UNL     1      -0.231  11.537  19.855  0.00  0.00    +0.000 A 
ATOM      8  N   UNL     1      -1.527  11.594  20.212  0.00  0.00    +0.000 NA
ATOM      9  N   UNL     1      -1.843  12.900  20.128  0.00  0.00    +0.000 N 
ENDROOT
BRANCH   7  10
ATOM     10  C   UNL     1       0.464  10.254  19.802  0.00  0.00    +0.000 A 
ATOM     11  C   UNL     1       0.675   9.507  20.970  0.00  0.00    +0.000 A 
ATOM     12  C   UNL     1       1.448   8.346  20.941  0.00  0.00    +0.000 A 
ATOM     13  C   UNL     1       1.961   7.879  19.733  0.00  0.00    +0.000 A 
ATOM     14  C   UNL     1       1.732   8.593  18.555  0.00  0.00    +0.000 A 
ATOM     15  C   UNL     1       0.976   9.761  18.595  0.00  0.00    +0.000 A 
ATOM     16  F   UNL     1       0.784  10.415  17.439  0.00  0.00    +0.000 F 
BRANCH  13  17
ATOM     17  O   UNL     1       2.730   6.745  19.802  0.00  0.00    +0.000 OA
BRANCH  17  18
ATOM     18  C   UNL     1       2.153   5.528  19.517  0.00  0.00    +0.000 A 
ATOM     19  C   UNL     1       1.608   4.841  20.600  0.00  0.00    +0.000 A 
ATOM     20  C   UNL     1       0.996   3.605  20.405  0.00  0.00    +0.000 A 
ATOM     21  C   UNL     1       0.926   3.054  19.122  0.00  0.00    +0.000 A 
ATOM     22  C   UNL     1       1.446   3.753  18.036  0.00  0.00    +0.000 A 
ATOM     23  C   UNL     1       2.037   5.001  18.224  0.00  0.00    +0.000 A 
ENDBRANCH  17  18
ENDBRANCH  13  17
ENDBRANCH   7  10
BRANCH   1  24
ATOM     24  N   UNL     1       2.672  12.775  18.882  0.00  0.00    +0.000 N 
ATOM     25  H   UNL     1       3.365  13.424  18.526  0.00  0.00    +0.000 HD
ATOM     26  H   UNL     1       2.567  11.924  18.344  0.00  0.00    +0.000 HD
ENDBRANCH   1  24
BRANCH   9  27
ATOM     27  C   UNL     1      -3.179  13.328  20.483  0.00  0.00    +0.000 C 
BRANCH  27  28
ATOM     28  C   UNL     1      -4.241  12.241  20.238  0.00  0.00    +0.000 C 
ATOM     29  C   UNL     1      -5.458  12.356  21.166  0.00  0.00    +0.000 C 
ATOM     30  C   UNL     1      -6.312  13.422  20.496  0.00  0.00    +0.000 C 
ATOM     31  C   UNL     1      -6.081  13.190  19.006  0.00  0.00    +0.000 C 
ATOM     32  N   UNL     1      -4.865  12.399  18.917  0.00  0.00    +0.000 N 
ATOM     33  C   UNL     1      -4.482  11.873  17.696  0.00  0.00    +0.000 C 
ATOM     34  O   UNL     1      -5.109  12.104  16.667  0.00  0.00    +0.000 OA
BRANCH  33  35
ATOM     35  C   UNL     1      -3.260  11.017  17.640  0.00  0.00    +0.000 C 
ATOM     36  C   UNL     1      -3.375   9.512  17.797  0.00  0.00    +0.000 C 
ATOM     37  C   UNL     1      -3.063  10.100  16.453  0.00  0.00    +0.000 C 
ENDBRANCH  33  35
ENDBRANCH  27  28
ENDBRANCH   9  27
TORSDOF 7
ENDMDL
MODEL 2
REMARK VINA RESULT:      -8.1      0.838      1.165
REMARK  Name = 
REMARK  7 active torsions:
REMARK  status: ('A' for Active; 'I' for Inactive)
REMARK    1  A    between atoms: N_1  and  C_2
REMARK    2  A    between atoms: C_8  and  C_9
REMARK    3  A    between atoms: C_12  and  O_13
REMARK    4  A    between atoms: O_13  and  C_14
REMARK    5  A    between atoms: N_24  and  C_25
REMARK    6  A    between atoms: C_25  and  C_26
REMARK    7  A    between atoms: C_31  and  C_33
REMARK                            x       y       z     vdW  Elec       q    Type
REMARK                         _______ _______ _______ _____ _____    ______ ____
ROOT
ATOM      1  C   UNL     1       1.064  13.652  20.741  0.00  0.00    +0.000 A 
ATOM      2  N   UNL     1       1.049  14.985  20.945  0.00  0.00    +0.000 NA
ATOM      3  C   UNL     1      -0.137  15.621  20.989  0.00  0.00    +0.000 A 
ATOM      4  N   UNL     1      -1.362  15.089  20.849  0.00  0.00    +0.000 NA
ATOM      5  C   UNL     1      -1.302  13.761  20.653  0.00  0.00    +0.000 A 
ATOM      6  C   UNL     1      -0.159  12.979  20.596  0.00  0.00    +0.000 A 
ATOM      7  C   UNL     1      -0.644  11.646  20.394  0.00  0.00    +0.000 A 
ATOM      8  N   UNL     1      -1.988  11.621  20.337  0.00  0.00    +0.000 NA
ATOM      9  N   UNL     1      -2.356  12.909  20.478  0.00  0.00    +0.000 N 
ENDROOT
BRANCH   7  10
ATOM     10  C   UNL     1       0.123  10.412  20.250  0.00  0.00    +0.000 A 
ATOM     11  C   UNL     1       0.432   9.628  21.371  0.00  0.00    +0.000 A 
ATOM     12  C   UNL     1       1.271   8.519  21.253  0.00  0.00    +0.000 A 
ATOM     13  C   UNL     1       1.754   8.140  20.002  0.00  0.00    +0.000 A 
ATOM     14  C   UNL     1       1.429   8.891  18.872  0.00  0.00    +0.000 A 
ATOM     15  C   UNL     1       0.607  10.008  19.000  0.00  0.00    +0.000 A 
ATOM     16  F   UNL     1       0.324  10.700  17.886  0.00  0.00    +0.000 F 
BRANCH  13  17
ATOM     17  O   UNL     1       2.593   7.054  19.984  0.00  0.00    +0.000 OA
BRANCH  17  18
ATOM     18  C   UNL     1       2.080   5.821  19.651  0.00  0.00    +0.000 A 
ATOM     19  C   UNL     1       2.238   5.431  18.323  0.00  0.00    +0.000 A 
ATOM     20  C   UNL     1       1.758   4.195  17.896  0.00  0.00    +0.000 A 
ATOM     21  C   UNL     1       1.117   3.344  18.801  0.00  0.00    +0.000 A 
ATOM     22  C   UNL     1       0.982   3.722  20.134  0.00  0.00    +0.000 A 
ATOM     23  C   UNL     1       1.484   4.946  20.570  0.00  0.00    +0.000 A 
ENDBRANCH  17  18
ENDBRANCH  13  17
ENDBRANCH   7  10
BRANCH   1  24
ATOM     24  N   UNL     1       2.321  13.066  20.692  0.00  0.00    +0.000 N 
ATOM     25  H   UNL     1       2.308  12.166  21.159  0.00  0.00    +0.000 HD
ATOM     26  H   UNL     1       3.086  13.674  20.961  0.00  0.00    +0.000 HD
ENDBRANCH   1  24
BRANCH   9  27
ATOM     27  C   UNL     1      -3.763  13.245  20.497  0.00  0.00    +0.000 C 
BRANCH  27  28
ATOM     28  C   UNL     1      -4.664  12.072  20.065  0.00  0.00    +0.000 C 
ATOM     29  C   UNL     1      -6.005  12.025  20.810  0.00  0.00    +0.000 C 
ATOM     30  C   UNL     1      -6.860  13.035  20.060  0.00  0.00    +0.000 C 
ATOM     31  C   UNL     1      -6.400  12.897  18.612  0.00  0.00    +0.000 C 
ATOM     32  N   UNL     1      -5.109  12.232  18.673  0.00  0.00    +0.000 N 
ATOM     33  C   UNL     1      -4.506  11.804  17.504  0.00  0.00    +0.000 C 
ATOM     34  O   UNL     1      -5.003  12.021  16.404  0.00  0.00    +0.000 OA
BRANCH  33  35
ATOM     35  C   UNL     1      -3.207  11.074  17.596  0.00  0.00    +0.000 C 
ATOM     36  C   UNL     1      -3.187   9.557  17.649  0.00  0.00    +0.000 C 
ATOM     37  C   UNL     1      -2.736  10.266  16.407  0.00  0.00    +0.000 C 
ENDBRANCH  33  35
ENDBRANCH  27  28
ENDBRANCH   9  27
TORSDOF 7
ENDMDL
MODEL 3
REMARK VINA RESULT:      -7.8      2.359      3.631
REMARK  Name = 
REMARK  7 active torsions:
REMARK  status: ('A' for Active; 'I' for Inactive)
REMARK    1  A    between atoms: N_1  and  C_2
REMARK    2  A    between atoms: C_8  and  C_9
REMARK    3  A    between atoms: C_12  and  O_13
REMARK    4  A    between atoms: O_13  and  C_14
REMARK    5  A    between atoms: N_24  and  C_25
REMARK    6  A    between atoms: C_25  and  C_26
REMARK    7  A    between atoms: C_31  and  C_33
REMARK                            x       y       z     vdW  Elec       q    Type
REMARK                         _______ _______ _______ _____ _____    ______ ____
ROOT
ATOM      1  C   UNL     1       1.435  13.237  18.749  0.00  0.00    +0.000 A 
ATOM      2  N   UNL     1       1.314  14.570  18.582  0.00  0.00    +0.000 NA
ATOM      3  C   UNL     1       0.183  15.175  18.989  0.00  0.00    +0.000 A 
ATOM      4  N   UNL     1      -0.892  14.611  19.563  0.00  0.00    +0.000 NA
ATOM      5  C   UNL     1      -0.728  13.286  19.716  0.00  0.00    +0.000 A 
ATOM      6  C   UNL     1       0.380  12.536  19.355  0.00  0.00    +0.000 A 
ATOM      7  C   UNL     1       0.055  11.199  19.751  0.00  0.00    +0.000 A 
ATOM      8  N   UNL     1      -1.164  11.141  20.317  0.00  0.00    +0.000 NA
ATOM      9  N   UNL     1      -1.619  12.408  20.266  0.00  0.00    +0.000 N 
ENDROOT
BRANCH   7  10
ATOM     10  C   UNL     1       0.858   9.988  19.604  0.00  0.00    +0.000 A 
ATOM     11  C   UNL     1       1.309   9.579  18.341  0.00  0.00    +0.000 A 
ATOM     12  C   UNL     1       1.965   8.358  18.182  0.00  0.00    +0.000 A 
ATOM     13  C   UNL     1       2.240   7.563  19.293  0.00  0.00    +0.000 A 
ATOM     14  C   UNL     1       1.826   7.971  20.562  0.00  0.00    +0.000 A 
ATOM     15  C   UNL     1       1.155   9.182  20.711  0.00  0.00    +0.000 A 
ATOM     16  F   UNL     1       0.774   9.532  21.949  0.00  0.00    +0.000 F 
BRANCH  13  17
ATOM     17  O   UNL     1       2.865   6.368  19.039  0.00  0.00    +0.000 OA
BRANCH  17  18
ATOM     18  C   UNL     1       2.173   5.196  19.247  0.00  0.00    +0.000 A 
ATOM     19  C   UNL     1       1.845   4.469  18.105  0.00  0.00    +0.000 A 
ATOM     20  C   UNL     1       1.151   3.266  18.219  0.00  0.00    +0.000 A 
ATOM     21  C   UNL     1       0.786   2.787  19.480  0.00  0.00    +0.000 A 
ATOM     22  C   UNL     1       1.137   3.500  20.623  0.00  0.00    +0.000 A 
ATOM     23  C   UNL     1       1.852   4.691  20.514  0.00  0.00    +0.000 A 
ENDBRANCH  17  18
ENDBRANCH  13  17
ENDBRANCH   7  10
BRANCH   1  24
ATOM     24  N   UNL     1       2.620  12.679  18.291  0.00  0.00    +0.000 N 
ATOM     25  H   UNL     1       3.353  12.796  18.983  0.00  0.00    +0.000 HD
ATOM     26  H   UNL     1       2.879  12.940  17.348  0.00  0.00    +0.000 HD
ENDBRANCH   1  24
BRANCH   9  27
ATOM     27  C   UNL     1      -2.915  12.716  20.832  0.00  0.00    +0.000 C 
BRANCH  27  28
ATOM     28  C   UNL     1      -2.967  12.506  22.357  0.00  0.00    +0.000 C 
ATOM     29  C   UNL     1      -1.583  12.342  22.999  0.00  0.00    +0.000 C 
ATOM     30  C   UNL     1      -1.094  13.774  23.154  0.00  0.00    +0.000 C 
ATOM     31  C   UNL     1      -2.365  14.561  23.463  0.00  0.00    +0.000 C 
ATOM     32  N   UNL     1      -3.464  13.710  23.039  0.00  0.00    +0.000 N 
ATOM     33  C   UNL     1      -4.763  14.071  23.348  0.00  0.00    +0.000 C 
ATOM     34  O   UNL     1      -5.023  15.124  23.921  0.00  0.00    +0.000 OA
BRANCH  33  35
ATOM     35  C   UNL     1      -5.873  13.154  22.952  0.00  0.00    +0.000 C 
ATOM     36  C   UNL     1      -6.714  12.471  24.014  0.00  0.00    +0.000 C 
ATOM     37  C   UNL     1      -7.302  13.583  23.199  0.00  0.00    +0.000 C 
ENDBRANCH  33  35
ENDBRANCH  27  28
ENDBRANCH   9  27
TORSDOF 7
ENDMDL
MODEL 4
REMARK VINA RESULT:      -7.7      1.890      2.850
REMARK  Name = 
REMARK  7 active torsions:
REMARK  status: ('A' for Active; 'I' for Inactive)
REMARK    1  A    between atoms: N_1  and  C_2
REMARK    2  A    between atoms: C_8  and  C_9
REMARK    3  A    between atoms: C_12  and  O_13
REMARK    4  A    between atoms: O_13  and  C_14
REMARK    5  A    between atoms: N_24  and  C_25
REMARK    6  A    between atoms: C_25  and  C_26
REMARK    7  A    between atoms: C_31  and  C_33
REMARK                            x       y       z     vdW  Elec       q    Type
REMARK                         _______ _______ _______ _____ _____    ______ ____
ROOT
ATOM      1  C   UNL     1       1.132  13.209  19.165  0.00  0.00    +0.000 A 
ATOM      2  N   UNL     1       0.950  14.543  19.110  0.00  0.00    +0.000 NA
ATOM      3  C   UNL     1      -0.306  15.026  19.063  0.00  0.00    +0.000 A 
ATOM      4  N   UNL     1      -1.455  14.332  19.062  0.00  0.00    +0.000 NA
ATOM      5  C   UNL     1      -1.229  13.008  19.124  0.00  0.00    +0.000 A 
ATOM      6  C   UNL     1       0.002  12.375  19.186  0.00  0.00    +0.000 A 
ATOM      7  C   UNL     1      -0.313  10.980  19.258  0.00  0.00    +0.000 A 
ATOM      8  N   UNL     1      -1.643  10.780  19.244  0.00  0.00    +0.000 NA
ATOM      9  N   UNL     1      -2.169  12.016  19.145  0.00  0.00    +0.000 N 
ENDROOT
BRANCH   7  10
ATOM     10  C   UNL     1       0.602   9.844  19.333  0.00  0.00    +0.000 A 
ATOM     11  C   UNL     1       1.273   9.392  18.188  0.00  0.00    +0.000 A 
ATOM     12  C   UNL     1       2.047   8.232  18.230  0.00  0.00    +0.000 A 
ATOM     13  C   UNL     1       2.216   7.549  19.433  0.00  0.00    +0.000 A 
ATOM     14  C   UNL     1       1.581   8.005  20.589  0.00  0.00    +0.000 A 
ATOM     15  C   UNL     1       0.795   9.153  20.535  0.00  0.00    +0.000 A 
ATOM     16  F   UNL     1       0.202   9.553  21.671  0.00  0.00    +0.000 F 
BRANCH  13  17
ATOM     17  O   UNL     1       2.972   6.405  19.376  0.00  0.00    +0.000 OA
BRANCH  17  18
ATOM     18  C   UNL     1       2.334   5.186  19.333  0.00  0.00    +0.000 A 
ATOM     19  C   UNL     1       2.025   4.613  20.565  0.00  0.00    +0.000 A 
ATOM     20  C   UNL     1       1.372   3.383  20.620  0.00  0.00    +0.000 A 
ATOM     21  C   UNL     1       1.024   2.724  19.437  0.00  0.00    +0.000 A 
ATOM     22  C   UNL     1       1.308   3.309  18.206  0.00  0.00    +0.000 A 
ATOM     23  C   UNL     1       1.939   4.550  18.148  0.00  0.00    +0.000 A 
ENDBRANCH  17  18
ENDBRANCH  13  17
ENDBRANCH   7  10
BRANCH   1  24
ATOM     24  N   UNL     1       2.452  12.783  19.195  0.00  0.00    +0.000 N 
ATOM     25  H   UNL     1       3.063  13.507  18.834  0.00  0.00    +0.000 HD
ATOM     26  H   UNL     1       2.612  11.860  18.810  0.00  0.00    +0.000 HD
ENDBRANCH   1  24
BRANCH   9  27
ATOM     27  C   UNL     1      -3.607  12.175  19.138  0.00  0.00    +0.000 C 
BRANCH  27  28
ATOM     28  C   UNL     1      -4.092  13.276  20.099  0.00  0.00    +0.000 C 
ATOM     29  C   UNL     1      -5.460  13.860  19.718  0.00  0.00    +0.000 C 
ATOM     30  C   UNL     1      -6.445  12.850  20.287  0.00  0.00    +0.000 C 
ATOM     31  C   UNL     1      -5.772  12.367  21.568  0.00  0.00    +0.000 C 
ATOM     32  N   UNL     1      -4.371  12.728  21.434  0.00  0.00    +0.000 N 
ATOM     33  C   UNL     1      -3.522  12.579  22.516  0.00  0.00    +0.000 C 
ATOM     34  O   UNL     1      -3.904  12.093  23.575  0.00  0.00    +0.000 OA
BRANCH  33  35
ATOM     35  C   UNL     1      -2.099  13.010  22.373  0.00  0.00    +0.000 C 
ATOM     36  C   UNL     1      -1.337  13.536  23.574  0.00  0.00    +0.000 C 
ATOM     37  C   UNL     1      -1.014  12.180  23.022  0.00  0.00    +0.000 C 
ENDBRANCH  33  35
ENDBRANCH  27  28
ENDBRANCH   9  27
TORSDOF 7
ENDMDL
MODEL 5
REMARK VINA RESULT:      -7.7      0.952      1.259
REMARK  Name = 
REMARK  7 active torsions:
REMARK  status: ('A' for Active; 'I' for Inactive)
REMARK    1  A    between atoms: N_1  and  C_2
REMARK    2  A    between atoms: C_8  and  C_9
REMARK    3  A    between atoms: C_12  and  O_13
REMARK    4  A    between atoms: O_13  and  C_14
REMARK    5  A    between atoms: N_24  and  C_25
REMARK    6  A    between atoms: C_25  and  C_26
REMARK    7  A    between atoms: C_31  and  C_33
REMARK                            x       y       z     vdW  Elec       q    Type
REMARK                         _______ _______ _______ _____ _____    ______ ____
ROOT
ATOM      1  C   UNL     1       1.942  13.714  18.740  0.00  0.00    +0.000 A 
ATOM      2  N   UNL     1       1.939  15.061  18.684  0.00  0.00    +0.000 NA
ATOM      3  C   UNL     1       0.806  15.720  18.992  0.00  0.00    +0.000 A 
ATOM      4  N   UNL     1      -0.375  15.200  19.363  0.00  0.00    +0.000 NA
ATOM      5  C   UNL     1      -0.326  13.858  19.412  0.00  0.00    +0.000 A 
ATOM      6  C   UNL     1       0.767  13.053  19.132  0.00  0.00    +0.000 A 
ATOM      7  C   UNL     1       0.299  11.718  19.355  0.00  0.00    +0.000 A 
ATOM      8  N   UNL     1      -0.988  11.713  19.746  0.00  0.00    +0.000 NA
ATOM      9  N   UNL     1      -1.343  13.012  19.754  0.00  0.00    +0.000 N 
ENDROOT
BRANCH   7  10
ATOM     10  C   UNL     1       1.028  10.462  19.203  0.00  0.00    +0.000 A 
ATOM     11  C   UNL     1       1.685  10.158  18.002  0.00  0.00    +0.000 A 
ATOM     12  C   UNL     1       2.273   8.908  17.810  0.00  0.00    +0.000 A 
ATOM     13  C   UNL     1       2.272   7.971  18.841  0.00  0.00    +0.000 A 
ATOM     14  C   UNL     1       1.651   8.270  20.055  0.00  0.00    +0.000 A 
ATOM     15  C   UNL     1       1.049   9.513  20.232  0.00  0.00    +0.000 A 
ATOM     16  F   UNL     1       0.463   9.754  21.414  0.00  0.00    +0.000 F 
BRANCH  13  17
ATOM     17  O   UNL     1       2.850   6.759  18.555  0.00  0.00    +0.000 OA
BRANCH  17  18
ATOM     18  C   UNL     1       2.193   5.605  18.918  0.00  0.00    +0.000 A 
ATOM     19  C   UNL     1       1.977   5.428  20.283  0.00  0.00    +0.000 A 
ATOM     20  C   UNL     1       1.313   4.292  20.743  0.00  0.00    +0.000 A 
ATOM     21  C   UNL     1       0.862   3.331  19.834  0.00  0.00    +0.000 A 
ATOM     22  C   UNL     1       1.054   3.520  18.468  0.00  0.00    +0.000 A 
ATOM     23  C   UNL     1       1.695   4.666  18.004  0.00  0.00    +0.000 A 
ENDBRANCH  17  18
ENDBRANCH  13  17
ENDBRANCH   7  10
BRANCH   1  24
ATOM     24  N   UNL     1       3.139  13.102  18.394  0.00  0.00    +0.000 N 
ATOM     25  H   UNL     1       3.767  13.083  19.190  0.00  0.00    +0.000 HD
ATOM     26  H   UNL     1       3.554  13.432  17.532  0.00  0.00    +0.000 HD
ENDBRANCH   1  24
BRANCH   9  27
ATOM     27  C   UNL     1      -2.681  13.377  20.169  0.00  0.00    +0.000 C 
BRANCH  27  28
ATOM     28  C   UNL     1      -3.664  12.192  20.128  0.00  0.00    +0.000 C 
ATOM     29  C   UNL     1      -4.675  12.197  21.282  0.00  0.00    +0.000 C 
ATOM     30  C   UNL     1      -5.742  13.174  20.812  0.00  0.00    +0.000 C 
ATOM     31  C   UNL     1      -5.795  12.956  19.303  0.00  0.00    +0.000 C 
ATOM     32  N   UNL     1      -4.553  12.284  18.961  0.00  0.00    +0.000 N 
ATOM     33  C   UNL     1      -4.376  11.790  17.681  0.00  0.00    +0.000 C 
ATOM     34  O   UNL     1      -5.216  11.954  16.802  0.00  0.00    +0.000 OA
BRANCH  33  35
ATOM     35  C   UNL     1      -3.116  11.052  17.368  0.00  0.00    +0.000 C 
ATOM     36  C   UNL     1      -3.056   9.544  17.523  0.00  0.00    +0.000 C 
ATOM     37  C   UNL     1      -3.076  10.152  16.153  0.00  0.00    +0.000 C 
ENDBRANCH  33  35
ENDBRANCH  27  28
ENDBRANCH   9  27
TORSDOF 7
ENDMDL
MODEL 6
REMARK VINA RESULT:      -7.7      2.253      3.464
REMARK  Name = 
REMARK  7 active torsions:
REMARK  status: ('A' for Active; 'I' for Inactive)
REMARK    1  A    between atoms: N_1  and  C_2
REMARK    2  A    between atoms: C_8  and  C_9
REMARK    3  A    between atoms: C_12  and  O_13
REMARK    4  A    between atoms: O_13  and  C_14
REMARK    5  A    between atoms: N_24  and  C_25
REMARK    6  A    between atoms: C_25  and  C_26
REMARK    7  A    between atoms: C_31  and  C_33
REMARK                            x       y       z     vdW  Elec       q    Type
REMARK                         _______ _______ _______ _____ _____    ______ ____
ROOT
ATOM      1  C   UNL     1       1.507  13.095  18.782  0.00  0.00    +0.000 A 
ATOM      2  N   UNL     1       1.513  14.425  18.558  0.00  0.00    +0.000 NA
ATOM      3  C   UNL     1       0.450  15.153  18.946  0.00  0.00    +0.000 A 
ATOM      4  N   UNL     1      -0.668  14.722  19.551  0.00  0.00    +0.000 NA
ATOM      5  C   UNL     1      -0.631  13.394  19.761  0.00  0.00    +0.000 A 
ATOM      6  C   UNL     1       0.396  12.526  19.425  0.00  0.00    +0.000 A 
ATOM      7  C   UNL     1      -0.052  11.245  19.881  0.00  0.00    +0.000 A 
ATOM      8  N   UNL     1      -1.265  11.330  20.457  0.00  0.00    +0.000 NA
ATOM      9  N   UNL     1      -1.596  12.631  20.355  0.00  0.00    +0.000 N 
ENDROOT
BRANCH   7  10
ATOM     10  C   UNL     1       0.628   9.956  19.782  0.00  0.00    +0.000 A 
ATOM     11  C   UNL     1       0.891   9.196  20.930  0.00  0.00    +0.000 A 
ATOM     12  C   UNL     1       1.651   8.029  20.851  0.00  0.00    +0.000 A 
ATOM     13  C   UNL     1       2.098   7.570  19.614  0.00  0.00    +0.000 A 
ATOM     14  C   UNL     1       1.817   8.297  18.457  0.00  0.00    +0.000 A 
ATOM     15  C   UNL     1       1.075   9.472  18.545  0.00  0.00    +0.000 A 
ATOM     16  F   UNL     1       0.831  10.138  17.407  0.00  0.00    +0.000 F 
BRANCH  13  17
ATOM     17  O   UNL     1       2.861   6.429  19.635  0.00  0.00    +0.000 OA
BRANCH  17  18
ATOM     18  C   UNL     1       2.230   5.205  19.620  0.00  0.00    +0.000 A 
ATOM     19  C   UNL     1       1.967   4.668  18.361  0.00  0.00    +0.000 A 
ATOM     20  C   UNL     1       1.338   3.429  18.249  0.00  0.00    +0.000 A 
ATOM     21  C   UNL     1       0.973   2.724  19.399  0.00  0.00    +0.000 A 
ATOM     22  C   UNL     1       1.260   3.248  20.657  0.00  0.00    +0.000 A 
ATOM     23  C   UNL     1       1.911   4.475  20.773  0.00  0.00    +0.000 A 
ENDBRANCH  17  18
ENDBRANCH  13  17
ENDBRANCH   7  10
BRANCH   1  24
ATOM     24  N   UNL     1       2.628  12.406  18.342  0.00  0.00    +0.000 N 
ATOM     25  H   UNL     1       2.761  12.551  17.346  0.00  0.00    +0.000 HD
ATOM     26  H   UNL     1       2.681  11.440  18.642  0.00  0.00    +0.000 HD
ENDBRANCH   1  24
BRANCH   9  27
ATOM     27  C   UNL     1      -2.850  13.087  20.915  0.00  0.00    +0.000 C 
BRANCH  27  28
ATOM     28  C   UNL     1      -2.950  12.846  22.433  0.00  0.00    +0.000 C 
ATOM     29  C   UNL     1      -1.586  12.775  23.132  0.00  0.00    +0.000 C 
ATOM     30  C   UNL     1      -1.215  14.237  23.330  0.00  0.00    +0.000 C 
ATOM     31  C   UNL     1      -2.553  14.919  23.595  0.00  0.00    +0.000 C 
ATOM     32  N   UNL     1      -3.565  13.996  23.111  0.00  0.00    +0.000 N 
ATOM     33  C   UNL     1      -4.900  14.251  23.369  0.00  0.00    +0.000 C 
ATOM     34  O   UNL     1      -5.263  15.271  23.947  0.00  0.00    +0.000 OA
BRANCH  33  35
ATOM     35  C   UNL     1      -5.919  13.260  22.912  0.00  0.00    +0.000 C 
ATOM     36  C   UNL     1      -6.877  12.636  23.909  0.00  0.00    +0.000 C 
ATOM     37  C   UNL     1      -7.380  13.652  22.927  0.00  0.00    +0.000 C 
ENDBRANCH  33  35
ENDBRANCH  27  28
ENDBRANCH   9  27
TORSDOF 7
ENDMDL
MODEL 7
REMARK VINA RESULT:      -7.7      1.820      2.439
REMARK  Name = 
REMARK  7 active torsions:
REMARK  status: ('A' for Active; 'I' for Inactive)
REMARK    1  A    between atoms: N_1  and  C_2
REMARK    2  A    between atoms: C_8  and  C_9
REMARK    3  A    between atoms: C_12  and  O_13
REMARK    4  A    between atoms: O_13  and  C_14
REMARK    5  A    between atoms: N_24  and  C_25
REMARK    6  A    between atoms: C_25  and  C_26
REMARK    7  A    between atoms: C_31  and  C_33
REMARK                            x       y       z     vdW  Elec       q    Type
REMARK                         _______ _______ _______ _____ _____    ______ ____
ROOT
ATOM      1  C   UNL     1       2.162  13.449  18.407  0.00  0.00    +0.000 A 
ATOM      2  N   UNL     1       2.257  14.788  18.281  0.00  0.00    +0.000 NA
ATOM      3  C   UNL     1       1.249  15.556  18.735  0.00  0.00    +0.000 A 
ATOM      4  N   UNL     1       0.108  15.156  19.320  0.00  0.00    +0.000 NA
ATOM      5  C   UNL     1       0.057  13.817  19.431  0.00  0.00    +0.000 A 
ATOM      6  C   UNL     1       1.020  12.910  19.020  0.00  0.00    +0.000 A 
ATOM      7  C   UNL     1       0.489  11.631  19.386  0.00  0.00    +0.000 A 
ATOM      8  N   UNL     1      -0.711  11.754  19.981  0.00  0.00    +0.000 NA
ATOM      9  N   UNL     1      -0.954  13.078  19.979  0.00  0.00    +0.000 N 
ENDROOT
BRANCH   7  10
ATOM     10  C   UNL     1       1.080  10.310  19.183  0.00  0.00    +0.000 A 
ATOM     11  C   UNL     1       1.386   9.855  17.892  0.00  0.00    +0.000 A 
ATOM     12  C   UNL     1       1.830   8.549  17.686  0.00  0.00    +0.000 A 
ATOM     13  C   UNL     1       2.039   7.704  18.774  0.00  0.00    +0.000 A 
ATOM     14  C   UNL     1       1.771   8.152  20.068  0.00  0.00    +0.000 A 
ATOM     15  C   UNL     1       1.309   9.451  20.264  0.00  0.00    +0.000 A 
ATOM     16  F   UNL     1       1.063   9.837  21.525  0.00  0.00    +0.000 F 
BRANCH  13  17
ATOM     17  O   UNL     1       2.451   6.429  18.476  0.00  0.00    +0.000 OA
BRANCH  17  18
ATOM     18  C   UNL     1       3.800   6.161  18.416  0.00  0.00    +0.000 A 
ATOM     19  C   UNL     1       4.490   6.729  17.347  0.00  0.00    +0.000 A 
ATOM     20  C   UNL     1       5.861   6.518  17.210  0.00  0.00    +0.000 A 
ATOM     21  C   UNL     1       6.545   5.737  18.146  0.00  0.00    +0.000 A 
ATOM     22  C   UNL     1       5.860   5.191  19.229  0.00  0.00    +0.000 A 
ATOM     23  C   UNL     1       4.495   5.420  19.383  0.00  0.00    +0.000 A 
ENDBRANCH  17  18
ENDBRANCH  13  17
ENDBRANCH   7  10
BRANCH   1  24
ATOM     24  N   UNL     1       3.231  12.721  17.903  0.00  0.00    +0.000 N 
ATOM     25  H   UNL     1       4.089  12.986  18.373  0.00  0.00    +0.000 HD
ATOM     26  H   UNL     1       3.289  12.693  16.893  0.00  0.00    +0.000 HD
ENDBRANCH   1  24
BRANCH   9  27
ATOM     27  C   UNL     1      -2.170  13.575  20.586  0.00  0.00    +0.000 C 
BRANCH  27  28
ATOM     28  C   UNL     1      -3.246  12.486  20.748  0.00  0.00    +0.000 C 
ATOM     29  C   UNL     1      -4.173  12.716  21.950  0.00  0.00    +0.000 C 
ATOM     30  C   UNL     1      -5.186  13.722  21.426  0.00  0.00    +0.000 C 
ATOM     31  C   UNL     1      -5.360  13.334  19.960  0.00  0.00    +0.000 C 
ATOM     32  N   UNL     1      -4.203  12.518  19.632  0.00  0.00    +0.000 N 
ATOM     33  C   UNL     1      -4.154  11.864  18.414  0.00  0.00    +0.000 C 
ATOM     34  O   UNL     1      -5.036  11.998  17.572  0.00  0.00    +0.000 OA
BRANCH  33  35
ATOM     35  C   UNL     1      -2.982  10.986  18.122  0.00  0.00    +0.000 C 
ATOM     36  C   UNL     1      -3.174   9.682  17.370  0.00  0.00    +0.000 C 
ATOM     37  C   UNL     1      -2.513  10.844  16.690  0.00  0.00    +0.000 C 
ENDBRANCH  33  35
ENDBRANCH  27  28
ENDBRANCH   9  27
TORSDOF 7
ENDMDL
MODEL 8
REMARK VINA RESULT:      -7.7      1.386      1.914
REMARK  Name = 
REMARK  7 active torsions:
REMARK  status: ('A' for Active; 'I' for Inactive)
REMARK    1  A    between atoms: N_1  and  C_2
REMARK    2  A    between atoms: C_8  and  C_9
REMARK    3  A    between atoms: C_12  and  O_13
REMARK    4  A    between atoms: O_13  and  C_14
REMARK    5  A    between atoms: N_24  and  C_25
REMARK    6  A    between atoms: C_25  and  C_26
REMARK    7  A    between atoms: C_31  and  C_33
REMARK                            x       y       z     vdW  Elec       q    Type
REMARK                         _______ _______ _______ _____ _____    ______ ____
ROOT
ATOM      1  C   UNL     1       1.858  13.134  18.548  0.00  0.00    +0.000 A 
ATOM      2  N   UNL     1       1.940  14.449  18.259  0.00  0.00    +0.000 NA
ATOM      3  C   UNL     1       0.936  15.261  18.640  0.00  0.00    +0.000 A 
ATOM      4  N   UNL     1      -0.188  14.929  19.294  0.00  0.00    +0.000 NA
ATOM      5  C   UNL     1      -0.227  13.613  19.567  0.00  0.00    +0.000 A 
ATOM      6  C   UNL     1       0.733  12.667  19.247  0.00  0.00    +0.000 A 
ATOM      7  C   UNL     1       0.220  11.440  19.776  0.00  0.00    +0.000 A 
ATOM      8  N   UNL     1      -0.967  11.628  20.379  0.00  0.00    +0.000 NA
ATOM      9  N   UNL     1      -1.220  12.941  20.222  0.00  0.00    +0.000 N 
ENDROOT
BRANCH   7  10
ATOM     10  C   UNL     1       0.816  10.107  19.721  0.00  0.00    +0.000 A 
ATOM     11  C   UNL     1       1.040   9.376  20.897  0.00  0.00    +0.000 A 
ATOM     12  C   UNL     1       1.724   8.160  20.857  0.00  0.00    +0.000 A 
ATOM     13  C   UNL     1       2.130   7.627  19.636  0.00  0.00    +0.000 A 
ATOM     14  C   UNL     1       1.885   8.327  18.453  0.00  0.00    +0.000 A 
ATOM     15  C   UNL     1       1.220   9.549  18.502  0.00  0.00    +0.000 A 
ATOM     16  F   UNL     1       1.008  10.186  17.340  0.00  0.00    +0.000 F 
BRANCH  13  17
ATOM     17  O   UNL     1       2.818   6.441  19.695  0.00  0.00    +0.000 OA
BRANCH  17  18
ATOM     18  C   UNL     1       2.123   5.260  19.567  0.00  0.00    +0.000 A 
ATOM     19  C   UNL     1       2.039   4.736  18.278  0.00  0.00    +0.000 A 
ATOM     20  C   UNL     1       1.362   3.539  18.054  0.00  0.00    +0.000 A 
ATOM     21  C   UNL     1       0.768   2.862  19.123  0.00  0.00    +0.000 A 
ATOM     22  C   UNL     1       0.874   3.372  20.415  0.00  0.00    +0.000 A 
ATOM     23  C   UNL     1       1.572   4.555  20.646  0.00  0.00    +0.000 A 
ENDBRANCH  17  18
ENDBRANCH  13  17
ENDBRANCH   7  10
BRANCH   1  24
ATOM     24  N   UNL     1       2.921  12.355  18.112  0.00  0.00    +0.000 N 
ATOM     25  H   UNL     1       3.801  12.771  18.397  0.00  0.00    +0.000 HD
ATOM     26  H   UNL     1       2.876  12.078  17.139  0.00  0.00    +0.000 HD
ENDBRANCH   1  24
BRANCH   9  27
ATOM     27  C   UNL     1      -2.427  13.502  20.792  0.00  0.00    +0.000 C 
BRANCH  27  28
ATOM     28  C   UNL     1      -3.347  12.435  21.414  0.00  0.00    +0.000 C 
ATOM     29  C   UNL     1      -3.191  12.305  22.935  0.00  0.00    +0.000 C 
ATOM     30  C   UNL     1      -4.047  13.441  23.475  0.00  0.00    +0.000 C 
ATOM     31  C   UNL     1      -5.209  13.521  22.490  0.00  0.00    +0.000 C 
ATOM     32  N   UNL     1      -4.760  12.823  21.298  0.00  0.00    +0.000 N 
ATOM     33  C   UNL     1      -5.659  12.569  20.277  0.00  0.00    +0.000 C 
ATOM     34  O   UNL     1      -6.818  12.969  20.322  0.00  0.00    +0.000 OA
BRANCH  33  35
ATOM     35  C   UNL     1      -5.189  11.801  19.086  0.00  0.00    +0.000 C 
ATOM     36  C   UNL     1      -6.004  10.633  18.562  0.00  0.00    +0.000 C 
ATOM     37  C   UNL     1      -5.959  11.917  17.789  0.00  0.00    +0.000 C 
ENDBRANCH  33  35
ENDBRANCH  27  28
ENDBRANCH   9  27
TORSDOF 7
ENDMDL
MODEL 9
REMARK VINA RESULT:      -7.6      1.974      2.827
REMARK  Name = 
REMARK  7 active torsions:
REMARK  status: ('A' for Active; 'I' for Inactive)
REMARK    1  A    between atoms: N_1  and  C_2
REMARK    2  A    between atoms: C_8  and  C_9
REMARK    3  A    between atoms: C_12  and  O_13
REMARK    4  A    between atoms: O_13  and  C_14
REMARK    5  A    between atoms: N_24  and  C_25
REMARK    6  A    between atoms: C_25  and  C_26
REMARK    7  A    between atoms: C_31  and  C_33
REMARK                            x       y       z     vdW  Elec       q    Type
REMARK                         _______ _______ _______ _____ _____    ______ ____
ROOT
ATOM      1  C   UNL     1       1.453  13.256  18.923  0.00  0.00    +0.000 A 
ATOM      2  N   UNL     1       1.468  14.590  18.723  0.00  0.00    +0.000 NA
ATOM      3  C   UNL     1       0.370  15.304  19.030  0.00  0.00    +0.000 A 
ATOM      4  N   UNL     1      -0.793  14.854  19.528  0.00  0.00    +0.000 NA
ATOM      5  C   UNL     1      -0.763  13.524  19.717  0.00  0.00    +0.000 A 
ATOM      6  C   UNL     1       0.295  12.669  19.457  0.00  0.00    +0.000 A 
ATOM      7  C   UNL     1      -0.180  11.376  19.851  0.00  0.00    +0.000 A 
ATOM      8  N   UNL     1      -1.438  11.443  20.321  0.00  0.00    +0.000 NA
ATOM      9  N   UNL     1      -1.770  12.743  20.212  0.00  0.00    +0.000 N 
ENDROOT
BRANCH   7  10
ATOM     10  C   UNL     1       0.517  10.094  19.788  0.00  0.00    +0.000 A 
ATOM     11  C   UNL     1       0.776   9.364  20.957  0.00  0.00    +0.000 A 
ATOM     12  C   UNL     1       1.551   8.204  20.913  0.00  0.00    +0.000 A 
ATOM     13  C   UNL     1       2.018   7.723  19.692  0.00  0.00    +0.000 A 
ATOM     14  C   UNL     1       1.741   8.421  18.515  0.00  0.00    +0.000 A 
ATOM     15  C   UNL     1       0.983   9.587  18.568  0.00  0.00    +0.000 A 
ATOM     16  F   UNL     1       0.744  10.225  17.412  0.00  0.00    +0.000 F 
BRANCH  13  17
ATOM     17  O   UNL     1       2.794   6.592  19.747  0.00  0.00    +0.000 OA
BRANCH  17  18
ATOM     18  C   UNL     1       2.204   5.368  19.529  0.00  0.00    +0.000 A 
ATOM     19  C   UNL     1       1.717   4.714  20.659  0.00  0.00    +0.000 A 
ATOM     20  C   UNL     1       1.096   3.473  20.535  0.00  0.00    +0.000 A 
ATOM     21  C   UNL     1       0.961   2.883  19.274  0.00  0.00    +0.000 A 
ATOM     22  C   UNL     1       1.424   3.548  18.142  0.00  0.00    +0.000 A 
ATOM     23  C   UNL     1       2.022   4.800  18.260  0.00  0.00    +0.000 A 
ENDBRANCH  17  18
ENDBRANCH  13  17
ENDBRANCH   7  10
BRANCH   1  24
ATOM     24  N   UNL     1       2.614  12.583  18.569  0.00  0.00    +0.000 N 
ATOM     25  H   UNL     1       3.122  12.298  19.400  0.00  0.00    +0.000 HD
ATOM     26  H   UNL     1       3.175  13.042  17.863  0.00  0.00    +0.000 HD
ENDBRANCH   1  24
BRANCH   9  27
ATOM     27  C   UNL     1      -3.072  13.181  20.670  0.00  0.00    +0.000 C 
BRANCH  27  28
ATOM     28  C   UNL     1      -3.415  12.665  22.079  0.00  0.00    +0.000 C 
ATOM     29  C   UNL     1      -2.238  12.740  23.061  0.00  0.00    +0.000 C 
ATOM     30  C   UNL     1      -2.258  14.189  23.524  0.00  0.00    +0.000 C 
ATOM     31  C   UNL     1      -3.742  14.541  23.555  0.00  0.00    +0.000 C 
ATOM     32  N   UNL     1      -4.399  13.538  22.736  0.00  0.00    +0.000 N 
ATOM     33  C   UNL     1      -5.781  13.480  22.707  0.00  0.00    +0.000 C 
ATOM     34  O   UNL     1      -6.475  14.293  23.309  0.00  0.00    +0.000 OA
BRANCH  33  35
ATOM     35  C   UNL     1      -6.435  12.404  21.903  0.00  0.00    +0.000 C 
ATOM     36  C   UNL     1      -7.881  12.549  21.468  0.00  0.00    +0.000 C 
ATOM     37  C   UNL     1      -6.782  12.680  20.457  0.00  0.00    +0.000 C 
ENDBRANCH  33  35
ENDBRANCH  27  28
ENDBRANCH   9  27
TORSDOF 7
ENDMDL
