MODEL 1
REMARK VINA RESULT:      -8.4      0.000      0.000
REMARK  Name = 
REMARK  5 active torsions:
REMARK  status: ('A' for Active; 'I' for Inactive)
REMARK    1  A    between atoms: C_2  and  C_15
REMARK    2  A    between atoms: N_3  and  C_4
REMARK    3  A    between atoms: C_4  and  C_5
REMARK    4  A    between atoms: C_7  and  C_8
REMARK    5  A    between atoms: C_20  and  N_21
REMARK                            x       y       z     vdW  Elec       q    Type
REMARK                         _______ _______ _______ _____ _____    ______ ____
ROOT
ATOM      1  O   UNL     1       2.451   6.693  20.360  0.00  0.00    +0.000 OA
ATOM      2  C   UNL     1       2.415   6.411  19.168  0.00  0.00    +0.000 C 
ATOM      3  N   UNL     1       2.352   7.394  18.191  0.00  0.00    +0.000 N 
ATOM      4  H   UNL     1       2.455   7.152  17.216  0.00  0.00    +0.000 HD
ENDROOT
BRANCH   2   5
ATOM      5  C   UNL     1       2.427   4.991  18.672  0.00  0.00    +0.000 A 
ATOM      6  C   UNL     1       1.286   4.227  19.020  0.00  0.00    +0.000 A 
ATOM      7  C   UNL     1       1.164   2.888  18.663  0.00  0.00    +0.000 A 
ATOM      8  C   UNL     1       2.178   2.292  17.939  0.00  0.00    +0.000 A 
ATOM      9  C   UNL     1       3.316   3.029  17.598  0.00  0.00    +0.000 A 
ATOM     10  C   UNL     1       3.512   4.379  17.977  0.00  0.00    +0.000 A 
BRANCH  10  11
ATOM     11  N   UNL     1       4.733   4.999  17.670  0.00  0.00    +0.000 N 
ATOM     12  C   UNL     1       4.878   5.797  16.442  0.00  0.00    +0.000 C 
ATOM     13  C   UNL     1       5.749   5.045  15.439  0.00  0.00    +0.000 C 
ATOM     14  C   UNL     1       7.236   5.041  15.773  0.00  0.00    +0.000 C 
ATOM     15  C   UNL     1       7.587   4.537  17.173  0.00  0.00    +0.000 C 
ATOM     16  C   UNL     1       7.117   5.474  18.289  0.00  0.00    +0.000 C 
ATOM     17  C   UNL     1       5.667   5.289  18.758  0.00  0.00    +0.000 C 
ENDBRANCH  10  11
ENDBRANCH   2   5
BRANCH   3  18
ATOM     18  C   UNL     1       2.403   8.808  18.515  0.00  0.00    +0.000 C 
BRANCH  18  19
ATOM     19  C   UNL     1       1.017   9.369  18.567  0.00  0.00    +0.000 A 
ATOM     20  C   UNL     1       0.127   9.555  17.482  0.00  0.00    +0.000 A 
ATOM     21  C   UNL     1      -1.013  10.113  18.016  0.00  0.00    +0.000 A 
ATOM     22  N   UNL     1      -0.742  10.251  19.352  0.00  0.00    +0.000 N 
ATOM     23  N   UNL     1       0.468   9.782  19.720  0.00  0.00    +0.000 NA
ATOM     24  H   UNL     1      -1.340  10.660  20.060  0.00  0.00    +0.000 HD
BRANCH  21  25
ATOM     25  C   UNL     1      -2.238  10.503  17.385  0.00  0.00    +0.000 A 
ATOM     26  C   UNL     1      -2.623  10.221  16.086  0.00  0.00    +0.000 A 
ATOM     27  C   UNL     1      -3.898  10.765  15.754  0.00  0.00    +0.000 A 
ATOM     28  C   UNL     1      -4.452  11.448  16.813  0.00  0.00    +0.000 A 
ATOM     29  S   UNL     1      -3.444  11.417  18.193  0.00  0.00    +0.000 S 
ENDBRANCH  21  25
ENDBRANCH  18  19
ENDBRANCH   3  18
TORSDOF 5
ENDMDL
MODEL 2
REMARK VINA RESULT:      -8.3      3.115      3.754
REMARK  Name = 
REMARK  5 active torsions:
REMARK  status: ('A' for Active; 'I' for Inactive)
REMARK    1  A    between atoms: C_2  and  C_15
REMARK    2  A    between atoms: N_3  and  C_4
REMARK    3  A    between atoms: C_4  and  C_5
REMARK    4  A    between atoms: C_7  and  C_8
REMARK    5  A    between atoms: C_20  and  N_21
REMARK                            x       y       z     vdW  Elec       q    Type
REMARK                         _______ _______ _______ _____ _____    ______ ____
ROOT
ATOM      1  O   UNL     1       2.490   6.430  18.056  0.00  0.00    +0.000 OA
ATOM      2  C   UNL     1       2.425   6.208  19.260  0.00  0.00    +0.000 C 
ATOM      3  N   UNL     1       2.099   7.207  20.166  0.00  0.00    +0.000 N 
ATOM      4  H   UNL     1       1.923   6.980  21.134  0.00  0.00    +0.000 HD
ENDROOT
BRANCH   2   5
ATOM      5  C   UNL     1       2.700   4.851  19.848  0.00  0.00    +0.000 A 
ATOM      6  C   UNL     1       1.909   4.517  20.974  0.00  0.00    +0.000 A 
ATOM      7  C   UNL     1       2.069   3.310  21.649  0.00  0.00    +0.000 A 
ATOM      8  C   UNL     1       3.016   2.410  21.200  0.00  0.00    +0.000 A 
ATOM      9  C   UNL     1       3.813   2.732  20.097  0.00  0.00    +0.000 A 
ATOM     10  C   UNL     1       3.724   3.963  19.404  0.00  0.00    +0.000 A 
BRANCH  10  11
ATOM     11  N   UNL     1       4.638   4.227  18.372  0.00  0.00    +0.000 N 
ATOM     12  C   UNL     1       6.022   4.619  18.682  0.00  0.00    +0.000 C 
ATOM     13  C   UNL     1       6.223   6.097  18.362  0.00  0.00    +0.000 C 
ATOM     14  C   UNL     1       6.325   6.412  16.873  0.00  0.00    +0.000 C 
ATOM     15  C   UNL     1       5.166   5.899  16.019  0.00  0.00    +0.000 C 
ATOM     16  C   UNL     1       5.122   4.371  15.914  0.00  0.00    +0.000 C 
ATOM     17  C   UNL     1       4.399   3.639  17.054  0.00  0.00    +0.000 C 
ENDBRANCH  10  11
ENDBRANCH   2   5
BRANCH   3  18
ATOM     18  C   UNL     1       1.742   8.548  19.740  0.00  0.00    +0.000 C 
BRANCH  18  19
ATOM     19  C   UNL     1       0.990   9.244  20.831  0.00  0.00    +0.000 A 
ATOM     20  C   UNL     1       0.313  10.485  20.746  0.00  0.00    +0.000 A 
ATOM     21  C   UNL     1      -0.207  10.721  21.999  0.00  0.00    +0.000 A 
ATOM     22  N   UNL     1       0.196   9.649  22.752  0.00  0.00    +0.000 N 
ATOM     23  N   UNL     1       0.898   8.725  22.065  0.00  0.00    +0.000 NA
ATOM     24  H   UNL     1       0.028   9.495  23.739  0.00  0.00    +0.000 HD
BRANCH  21  25
ATOM     25  C   UNL     1      -0.990  11.816  22.488  0.00  0.00    +0.000 A 
ATOM     26  C   UNL     1      -2.174  11.731  23.198  0.00  0.00    +0.000 A 
ATOM     27  C   UNL     1      -2.717  13.007  23.527  0.00  0.00    +0.000 A 
ATOM     28  C   UNL     1      -1.928  14.033  23.058  0.00  0.00    +0.000 A 
ATOM     29  S   UNL     1      -0.542  13.454  22.243  0.00  0.00    +0.000 S 
ENDBRANCH  21  25
ENDBRANCH  18  19
ENDBRANCH   3  18
TORSDOF 5
ENDMDL
MODEL 3
REMARK VINA RESULT:      -8.2      2.862      4.538
REMARK  Name = 
REMARK  5 active torsions:
REMARK  status: ('A' for Active; 'I' for Inactive)
REMARK    1  A    between atoms: C_2  and  C_15
REMARK    2  A    between atoms: N_3  and  C_4
REMARK    3  A    between atoms: C_4  and  C_5
REMARK    4  A    between atoms: C_7  and  C_8
REMARK    5  A    between atoms: C_20  and  N_21
REMARK                            x       y       z     vdW  Elec       q    Type
REMARK                         _______ _______ _______ _____ _____    ______ ____
ROOT
ATOM      1  O   UNL     1       2.921   6.419  19.730  0.00  0.00    +0.000 OA
ATOM      2  C   UNL     1       3.024   6.764  18.558  0.00  0.00    +0.000 C 
ATOM      3  N   UNL     1       2.322   7.851  18.057  0.00  0.00    +0.000 N 
ATOM      4  H   UNL     1       2.516   8.199  17.129  0.00  0.00    +0.000 HD
ENDROOT
BRANCH   2   5
ATOM      5  C   UNL     1       3.901   6.038  17.576  0.00  0.00    +0.000 A 
ATOM      6  C   UNL     1       4.515   6.861  16.601  0.00  0.00    +0.000 A 
ATOM      7  C   UNL     1       5.329   6.333  15.603  0.00  0.00    +0.000 A 
ATOM      8  C   UNL     1       5.553   4.970  15.572  0.00  0.00    +0.000 A 
ATOM      9  C   UNL     1       4.944   4.143  16.520  0.00  0.00    +0.000 A 
ATOM     10  C   UNL     1       4.071   4.622  17.526  0.00  0.00    +0.000 A 
BRANCH  10  11
ATOM     11  N   UNL     1       3.433   3.697  18.366  0.00  0.00    +0.000 N 
ATOM     12  C   UNL     1       2.265   2.938  17.891  0.00  0.00    +0.000 C 
ATOM     13  C   UNL     1       1.002   3.452  18.576  0.00  0.00    +0.000 C 
ATOM     14  C   UNL     1       0.856   3.026  20.032  0.00  0.00    +0.000 C 
ATOM     15  C   UNL     1       2.047   3.359  20.930  0.00  0.00    +0.000 C 
ATOM     16  C   UNL     1       3.303   2.549  20.593  0.00  0.00    +0.000 C 
ATOM     17  C   UNL     1       4.189   3.116  19.475  0.00  0.00    +0.000 C 
ENDBRANCH  10  11
ENDBRANCH   2   5
BRANCH   3  18
ATOM     18  C   UNL     1       1.490   8.688  18.901  0.00  0.00    +0.000 C 
BRANCH  18  19
ATOM     19  C   UNL     1       1.699  10.129  18.553  0.00  0.00    +0.000 A 
ATOM     20  C   UNL     1       1.086  11.253  19.158  0.00  0.00    +0.000 A 
ATOM     21  C   UNL     1       1.574  12.355  18.492  0.00  0.00    +0.000 A 
ATOM     22  N   UNL     1       2.410  11.844  17.535  0.00  0.00    +0.000 N 
ATOM     23  N   UNL     1       2.529  10.501  17.566  0.00  0.00    +0.000 NA
ATOM     24  H   UNL     1       2.924  12.360  16.831  0.00  0.00    +0.000 HD
BRANCH  21  25
ATOM     25  C   UNL     1       1.307  13.749  18.686  0.00  0.00    +0.000 A 
ATOM     26  C   UNL     1       2.212  14.788  18.555  0.00  0.00    +0.000 A 
ATOM     27  C   UNL     1       1.638  16.062  18.832  0.00  0.00    +0.000 A 
ATOM     28  C   UNL     1       0.306  15.960  19.166  0.00  0.00    +0.000 A 
ATOM     29  S   UNL     1      -0.241  14.341  19.130  0.00  0.00    +0.000 S 
ENDBRANCH  21  25
ENDBRANCH  18  19
ENDBRANCH   3  18
TORSDOF 5
ENDMDL
MODEL 4
REMARK VINA RESULT:      -8.1      1.010      1.682
REMARK  Name = 
REMARK  5 active torsions:
REMARK  status: ('A' for Active; 'I' for Inactive)
REMARK    1  A    between atoms: C_2  and  C_15
REMARK    2  A    between atoms: N_3  and  C_4
REMARK    3  A    between atoms: C_4  and  C_5
REMARK    4  A    between atoms: C_7  and  C_8
REMARK    5  A    between atoms: C_20  and  N_21
REMARK                            x       y       z     vdW  Elec       q    Type
REMARK                         _______ _______ _______ _____ _____    ______ ____
ROOT
ATOM      1  O   UNL     1       2.647   6.728  20.318  0.00  0.00    +0.000 OA
ATOM      2  C   UNL     1       2.446   6.214  19.224  0.00  0.00    +0.000 C 
ATOM      3  N   UNL     1       2.376   6.976  18.066  0.00  0.00    +0.000 N 
ATOM      4  H   UNL     1       2.340   6.528  17.162  0.00  0.00    +0.000 HD
ENDROOT
BRANCH   2   5
ATOM      5  C   UNL     1       2.251   4.733  19.049  0.00  0.00    +0.000 A 
ATOM      6  C   UNL     1       1.117   4.198  19.707  0.00  0.00    +0.000 A 
ATOM      7  C   UNL     1       0.821   2.839  19.668  0.00  0.00    +0.000 A 
ATOM      8  C   UNL     1       1.649   1.992  18.957  0.00  0.00    +0.000 A 
ATOM      9  C   UNL     1       2.779   2.503  18.312  0.00  0.00    +0.000 A 
ATOM     10  C   UNL     1       3.152   3.869  18.360  0.00  0.00    +0.000 A 
BRANCH  10  11
ATOM     11  N   UNL     1       4.360   4.262  17.762  0.00  0.00    +0.000 N 
ATOM     12  C   UNL     1       5.620   4.208  18.520  0.00  0.00    +0.000 C 
ATOM     13  C   UNL     1       6.077   5.624  18.860  0.00  0.00    +0.000 C 
ATOM     14  C   UNL     1       6.661   6.399  17.684  0.00  0.00    +0.000 C 
ATOM     15  C   UNL     1       5.764   6.479  16.449  0.00  0.00    +0.000 C 
ATOM     16  C   UNL     1       5.578   5.129  15.748  0.00  0.00    +0.000 C 
ATOM     17  C   UNL     1       4.465   4.229  16.304  0.00  0.00    +0.000 C 
ENDBRANCH  10  11
ENDBRANCH   2   5
BRANCH   3  18
ATOM     18  C   UNL     1       2.612   8.408  18.069  0.00  0.00    +0.000 C 
BRANCH  18  19
ATOM     19  C   UNL     1       1.330   9.135  18.332  0.00  0.00    +0.000 A 
ATOM     20  C   UNL     1       0.254   9.324  17.432  0.00  0.00    +0.000 A 
ATOM     21  C   UNL     1      -0.686  10.064  18.114  0.00  0.00    +0.000 A 
ATOM     22  N   UNL     1      -0.126  10.293  19.344  0.00  0.00    +0.000 N 
ATOM     23  N   UNL     1       1.082   9.718  19.515  0.00  0.00    +0.000 NA
ATOM     24  H   UNL     1      -0.517  10.837  20.104  0.00  0.00    +0.000 HD
BRANCH  21  25
ATOM     25  C   UNL     1      -1.973  10.538  17.700  0.00  0.00    +0.000 A 
ATOM     26  C   UNL     1      -2.842  11.318  18.442  0.00  0.00    +0.000 A 
ATOM     27  C   UNL     1      -4.054  11.609  17.751  0.00  0.00    +0.000 A 
ATOM     28  C   UNL     1      -4.075  11.043  16.497  0.00  0.00    +0.000 A 
ATOM     29  S   UNL     1      -2.637  10.182  16.159  0.00  0.00    +0.000 S 
ENDBRANCH  21  25
ENDBRANCH  18  19
ENDBRANCH   3  18
TORSDOF 5
ENDMDL
MODEL 5
REMARK VINA RESULT:      -8.1      1.370      3.417
REMARK  Name = 
REMARK  5 active torsions:
REMARK  status: ('A' for Active; 'I' for Inactive)
REMARK    1  A    between atoms: C_2  and  C_15
REMARK    2  A    between atoms: N_3  and  C_4
REMARK    3  A    between atoms: C_4  and  C_5
REMARK    4  A    between atoms: C_7  and  C_8
REMARK    5  A    between atoms: C_20  and  N_21
REMARK                            x       y       z     vdW  Elec       q    Type
REMARK                         _______ _______ _______ _____ _____    ______ ____
ROOT
ATOM      1  O   UNL     1       2.416   6.158  20.012  0.00  0.00    +0.000 OA
ATOM      2  C   UNL     1       2.775   6.776  19.017  0.00  0.00    +0.000 C 
ATOM      3  N   UNL     1       2.371   8.084  18.789  0.00  0.00    +0.000 N 
ATOM      4  H   UNL     1       2.778   8.620  18.036  0.00  0.00    +0.000 HD
ENDROOT
BRANCH   2   5
ATOM      5  C   UNL     1       3.666   6.171  17.967  0.00  0.00    +0.000 A 
ATOM      6  C   UNL     1       4.215   7.095  17.044  0.00  0.00    +0.000 A 
ATOM      7  C   UNL     1       5.032   6.684  15.995  0.00  0.00    +0.000 A 
ATOM      8  C   UNL     1       5.324   5.341  15.857  0.00  0.00    +0.000 A 
ATOM      9  C   UNL     1       4.779   4.415  16.753  0.00  0.00    +0.000 A 
ATOM     10  C   UNL     1       3.906   4.774  17.808  0.00  0.00    +0.000 A 
BRANCH  10  11
ATOM     11  N   UNL     1       3.334   3.757  18.589  0.00  0.00    +0.000 N 
ATOM     12  C   UNL     1       2.237   2.934  18.057  0.00  0.00    +0.000 C 
ATOM     13  C   UNL     1       0.930   3.309  18.748  0.00  0.00    +0.000 C 
ATOM     14  C   UNL     1       0.801   2.796  20.178  0.00  0.00    +0.000 C 
ATOM     15  C   UNL     1       1.952   3.174  21.110  0.00  0.00    +0.000 C 
ATOM     16  C   UNL     1       3.273   2.486  20.751  0.00  0.00    +0.000 C 
ATOM     17  C   UNL     1       4.123   3.181  19.678  0.00  0.00    +0.000 C 
ENDBRANCH  10  11
ENDBRANCH   2   5
BRANCH   3  18
ATOM     18  C   UNL     1       1.568   8.821  19.747  0.00  0.00    +0.000 C 
BRANCH  18  19
ATOM     19  C   UNL     1       0.646   9.754  19.027  0.00  0.00    +0.000 A 
ATOM     20  C   UNL     1      -0.687   9.499  18.624  0.00  0.00    +0.000 A 
ATOM     21  C   UNL     1      -1.117  10.640  17.986  0.00  0.00    +0.000 A 
ATOM     22  N   UNL     1      -0.039  11.486  18.018  0.00  0.00    +0.000 N 
ATOM     23  N   UNL     1       1.033  10.988  18.668  0.00  0.00    +0.000 NA
ATOM     24  H   UNL     1       0.027  12.411  17.612  0.00  0.00    +0.000 HD
BRANCH  21  25
ATOM     25  C   UNL     1      -2.380  10.948  17.386  0.00  0.00    +0.000 A 
ATOM     26  C   UNL     1      -2.706  10.834  16.046  0.00  0.00    +0.000 A 
ATOM     27  C   UNL     1      -4.045  11.236  15.764  0.00  0.00    +0.000 A 
ATOM     28  C   UNL     1      -4.704  11.645  16.901  0.00  0.00    +0.000 A 
ATOM     29  S   UNL     1      -3.716  11.530  18.291  0.00  0.00    +0.000 S 
ENDBRANCH  21  25
ENDBRANCH  18  19
ENDBRANCH   3  18
TORSDOF 5
ENDMDL
MODEL 6
REMARK VINA RESULT:      -8.0      1.167      1.715
REMARK  Name = 
REMARK  5 active torsions:
REMARK  status: ('A' for Active; 'I' for Inactive)
REMARK    1  A    between atoms: C_2  and  C_15
REMARK    2  A    between atoms: N_3  and  C_4
REMARK    3  A    between atoms: C_4  and  C_5
REMARK    4  A    between atoms: C_7  and  C_8
REMARK    5  A    between atoms: C_20  and  N_21
REMARK                            x       y       z     vdW  Elec       q    Type
REMARK                         _______ _______ _______ _____ _____    ______ ____
ROOT
ATOM      1  O   UNL     1       3.231   6.888  17.645  0.00  0.00    +0.000 OA
ATOM      2  C   UNL     1       2.699   6.665  18.727  0.00  0.00    +0.000 C 
ATOM      3  N   UNL     1       2.182   7.689  19.507  0.00  0.00    +0.000 N 
ATOM      4  H   UNL     1       1.634   7.477  20.328  0.00  0.00    +0.000 HD
ENDROOT
BRANCH   2   5
ATOM      5  C   UNL     1       2.575   5.278  19.295  0.00  0.00    +0.000 A 
ATOM      6  C   UNL     1       1.563   5.122  20.274  0.00  0.00    +0.000 A 
ATOM      7  C   UNL     1       1.348   3.906  20.917  0.00  0.00    +0.000 A 
ATOM      8  C   UNL     1       2.134   2.821  20.581  0.00  0.00    +0.000 A 
ATOM      9  C   UNL     1       3.145   2.963  19.626  0.00  0.00    +0.000 A 
ATOM     10  C   UNL     1       3.437   4.187  18.977  0.00  0.00    +0.000 A 
BRANCH  10  11
ATOM     11  N   UNL     1       4.537   4.247  18.107  0.00  0.00    +0.000 N 
ATOM     12  C   UNL     1       5.899   4.414  18.638  0.00  0.00    +0.000 C 
ATOM     13  C   UNL     1       6.403   5.822  18.329  0.00  0.00    +0.000 C 
ATOM     14  C   UNL     1       6.796   6.047  16.874  0.00  0.00    +0.000 C 
ATOM     15  C   UNL     1       5.719   5.697  15.847  0.00  0.00    +0.000 C 
ATOM     16  C   UNL     1       5.429   4.195  15.763  0.00  0.00    +0.000 C 
ATOM     17  C   UNL     1       4.416   3.647  16.779  0.00  0.00    +0.000 C 
ENDBRANCH  10  11
ENDBRANCH   2   5
BRANCH   3  18
ATOM     18  C   UNL     1       2.168   9.069  19.058  0.00  0.00    +0.000 C 
BRANCH  18  19
ATOM     19  C   UNL     1       0.758   9.564  18.979  0.00  0.00    +0.000 A 
ATOM     20  C   UNL     1      -0.024   9.740  17.812  0.00  0.00    +0.000 A 
ATOM     21  C   UNL     1      -1.238  10.230  18.237  0.00  0.00    +0.000 A 
ATOM     22  N   UNL     1      -1.113  10.343  19.597  0.00  0.00    +0.000 N 
ATOM     23  N   UNL     1       0.074   9.920  20.078  0.00  0.00    +0.000 NA
ATOM     24  H   UNL     1      -1.799  10.705  20.248  0.00  0.00    +0.000 HD
BRANCH  21  25
ATOM     25  C   UNL     1      -2.410  10.581  17.492  0.00  0.00    +0.000 A 
ATOM     26  C   UNL     1      -2.672  10.265  16.170  0.00  0.00    +0.000 A 
ATOM     27  C   UNL     1      -3.922  10.775  15.715  0.00  0.00    +0.000 A 
ATOM     28  C   UNL     1      -4.581  11.467  16.705  0.00  0.00    +0.000 A 
ATOM     29  S   UNL     1      -3.700  11.485  18.170  0.00  0.00    +0.000 S 
ENDBRANCH  21  25
ENDBRANCH  18  19
ENDBRANCH   3  18
TORSDOF 5
ENDMDL
MODEL 7
REMARK VINA RESULT:      -8.0      2.628      4.629
REMARK  Name = 
REMARK  5 active torsions:
REMARK  status: ('A' for Active; 'I' for Inactive)
REMARK    1  A    between atoms: C_2  and  C_15
REMARK    2  A    between atoms: N_3  and  C_4
REMARK    3  A    between atoms: C_4  and  C_5
REMARK    4  A    between atoms: C_7  and  C_8
REMARK    5  A    between atoms: C_20  and  N_21
REMARK                            x       y       z     vdW  Elec       q    Type
REMARK                         _______ _______ _______ _____ _____    ______ ____
ROOT
ATOM      1  O   UNL     1       1.954   5.910  17.777  0.00  0.00    +0.000 OA
ATOM      2  C   UNL     1       2.959   6.598  17.912  0.00  0.00    +0.000 C 
ATOM      3  N   UNL     1       2.899   7.984  17.887  0.00  0.00    +0.000 N 
ATOM      4  H   UNL     1       3.711   8.534  18.129  0.00  0.00    +0.000 HD
ENDROOT
BRANCH   2   5
ATOM      5  C   UNL     1       4.327   6.002  18.103  0.00  0.00    +0.000 A 
ATOM      6  C   UNL     1       5.381   6.713  17.479  0.00  0.00    +0.000 A 
ATOM      7  C   UNL     1       6.699   6.269  17.538  0.00  0.00    +0.000 A 
ATOM      8  C   UNL     1       6.986   5.110  18.233  0.00  0.00    +0.000 A 
ATOM      9  C   UNL     1       5.955   4.390  18.843  0.00  0.00    +0.000 A 
ATOM     10  C   UNL     1       4.593   4.772  18.775  0.00  0.00    +0.000 A 
BRANCH  10  11
ATOM     11  N   UNL     1       3.624   3.927  19.337  0.00  0.00    +0.000 N 
ATOM     12  C   UNL     1       3.494   2.533  18.882  0.00  0.00    +0.000 C 
ATOM     13  C   UNL     1       2.218   2.377  18.059  0.00  0.00    +0.000 C 
ATOM     14  C   UNL     1       0.933   2.371  18.881  0.00  0.00    +0.000 C 
ATOM     15  C   UNL     1       0.750   3.570  19.810  0.00  0.00    +0.000 C 
ATOM     16  C   UNL     1       1.749   3.594  20.971  0.00  0.00    +0.000 C 
ATOM     17  C   UNL     1       3.113   4.234  20.672  0.00  0.00    +0.000 C 
ENDBRANCH  10  11
ENDBRANCH   2   5
BRANCH   3  18
ATOM     18  C   UNL     1       1.642   8.700  17.779  0.00  0.00    +0.000 C 
BRANCH  18  19
ATOM     19  C   UNL     1       1.252   9.249  19.115  0.00  0.00    +0.000 A 
ATOM     20  C   UNL     1       0.588  10.472  19.378  0.00  0.00    +0.000 A 
ATOM     21  C   UNL     1       0.466  10.551  20.747  0.00  0.00    +0.000 A 
ATOM     22  N   UNL     1       1.069   9.415  21.219  0.00  0.00    +0.000 N 
ATOM     23  N   UNL     1       1.529   8.593  20.254  0.00  0.00    +0.000 NA
ATOM     24  H   UNL     1       1.201   9.148  22.187  0.00  0.00    +0.000 HD
BRANCH  21  25
ATOM     25  C   UNL     1      -0.129  11.563  21.568  0.00  0.00    +0.000 A 
ATOM     26  C   UNL     1      -1.016  11.361  22.611  0.00  0.00    +0.000 A 
ATOM     27  C   UNL     1      -1.440  12.578  23.222  0.00  0.00    +0.000 A 
ATOM     28  C   UNL     1      -0.862  13.676  22.627  0.00  0.00    +0.000 A 
ATOM     29  S   UNL     1       0.191  13.235  21.354  0.00  0.00    +0.000 S 
ENDBRANCH  21  25
ENDBRANCH  18  19
ENDBRANCH   3  18
TORSDOF 5
ENDMDL
MODEL 8
REMARK VINA RESULT:      -8.0      5.155      8.287
REMARK  Name = 
REMARK  5 active torsions:
REMARK  status: ('A' for Active; 'I' for Inactive)
REMARK    1  A    between atoms: C_2  and  C_15
REMARK    2  A    between atoms: N_3  and  C_4
REMARK    3  A    between atoms: C_4  and  C_5
REMARK    4  A    between atoms: C_7  and  C_8
REMARK    5  A    between atoms: C_20  and  N_21
REMARK                            x       y       z     vdW  Elec       q    Type
REMARK                         _______ _______ _______ _____ _____    ______ ____
ROOT
ATOM      1  O   UNL     1       7.504   4.638  18.476  0.00  0.00    +0.000 OA
ATOM      2  C   UNL     1       7.273   5.381  17.529  0.00  0.00    +0.000 C 
ATOM      3  N   UNL     1       7.565   6.736  17.581  0.00  0.00    +0.000 N 
ATOM      4  H   UNL     1       7.490   7.306  16.750  0.00  0.00    +0.000 HD
ENDROOT
BRANCH   2   5
ATOM      5  C   UNL     1       6.652   4.890  16.250  0.00  0.00    +0.000 A 
ATOM      6  C   UNL     1       7.482   4.987  15.107  0.00  0.00    +0.000 A 
ATOM      7  C   UNL     1       7.038   4.604  13.845  0.00  0.00    +0.000 A 
ATOM      8  C   UNL     1       5.757   4.106  13.707  0.00  0.00    +0.000 A 
ATOM      9  C   UNL     1       4.921   4.016  14.824  0.00  0.00    +0.000 A 
ATOM     10  C   UNL     1       5.306   4.435  16.120  0.00  0.00    +0.000 A 
BRANCH  10  11
ATOM     11  N   UNL     1       4.358   4.395  17.155  0.00  0.00    +0.000 N 
ATOM     12  C   UNL     1       4.326   3.264  18.095  0.00  0.00    +0.000 C 
ATOM     13  C   UNL     1       3.103   2.396  17.815  0.00  0.00    +0.000 C 
ATOM     14  C   UNL     1       1.782   2.997  18.284  0.00  0.00    +0.000 C 
ATOM     15  C   UNL     1       1.489   4.405  17.766  0.00  0.00    +0.000 C 
ATOM     16  C   UNL     1       2.428   5.469  18.343  0.00  0.00    +0.000 C 
ATOM     17  C   UNL     1       3.767   5.651  17.615  0.00  0.00    +0.000 C 
ENDBRANCH  10  11
ENDBRANCH   2   5
BRANCH   3  18
ATOM     18  C   UNL     1       8.228   7.340  18.722  0.00  0.00    +0.000 C 
BRANCH  18  19
ATOM     19  C   UNL     1       8.440   8.800  18.474  0.00  0.00    +0.000 A 
ATOM     20  C   UNL     1       9.321   9.667  19.164  0.00  0.00    +0.000 A 
ATOM     21  C   UNL     1       9.153  10.910  18.598  0.00  0.00    +0.000 A 
ATOM     22  N   UNL     1       8.189  10.731  17.641  0.00  0.00    +0.000 N 
ATOM     23  N   UNL     1       7.758   9.459  17.523  0.00  0.00    +0.000 NA
ATOM     24  H   UNL     1       7.781  11.439  17.041  0.00  0.00    +0.000 HD
BRANCH  21  25
ATOM     25  C   UNL     1       9.791  12.158  18.892  0.00  0.00    +0.000 A 
ATOM     26  C   UNL     1      10.089  12.656  20.149  0.00  0.00    +0.000 A 
ATOM     27  C   UNL     1      10.713  13.937  20.104  0.00  0.00    +0.000 A 
ATOM     28  C   UNL     1      10.875  14.381  18.812  0.00  0.00    +0.000 A 
ATOM     29  S   UNL     1      10.291  13.252  17.669  0.00  0.00    +0.000 S 
ENDBRANCH  21  25
ENDBRANCH  18  19
ENDBRANCH   3  18
TORSDOF 5
ENDMDL
MODEL 9
REMARK VINA RESULT:      -8.0      1.461      2.077
REMARK  Name = 
REMARK  5 active torsions:
REMARK  status: ('A' for Active; 'I' for Inactive)
REMARK    1  A    between atoms: C_2  and  C_15
REMARK    2  A    between atoms: N_3  and  C_4
REMARK    3  A    between atoms: C_4  and  C_5
REMARK    4  A    between atoms: C_7  and  C_8
REMARK    5  A    between atoms: C_20  and  N_21
REMARK                            x       y       z     vdW  Elec       q    Type
REMARK                         _______ _______ _______ _____ _____    ______ ____
ROOT
ATOM      1  O   UNL     1       3.262   7.167  18.901  0.00  0.00    +0.000 OA
ATOM      2  C   UNL     1       2.474   6.617  19.662  0.00  0.00    +0.000 C 
ATOM      3  N   UNL     1       1.712   7.342  20.568  0.00  0.00    +0.000 N 
ATOM      4  H   UNL     1       0.977   6.890  21.093  0.00  0.00    +0.000 HD
ENDROOT
BRANCH   2   5
ATOM      5  C   UNL     1       2.277   5.126  19.682  0.00  0.00    +0.000 A 
ATOM      6  C   UNL     1       1.223   4.673  20.513  0.00  0.00    +0.000 A 
ATOM      7  C   UNL     1       0.938   3.319  20.662  0.00  0.00    +0.000 A 
ATOM      8  C   UNL     1       1.696   2.394  19.972  0.00  0.00    +0.000 A 
ATOM      9  C   UNL     1       2.748   2.824  19.158  0.00  0.00    +0.000 A 
ATOM     10  C   UNL     1       3.110   4.185  19.007  0.00  0.00    +0.000 A 
BRANCH  10  11
ATOM     11  N   UNL     1       4.244   4.504  18.245  0.00  0.00    +0.000 N 
ATOM     12  C   UNL     1       5.594   4.232  18.765  0.00  0.00    +0.000 C 
ATOM     13  C   UNL     1       6.275   5.545  19.140  0.00  0.00    +0.000 C 
ATOM     14  C   UNL     1       6.753   6.371  17.951  0.00  0.00    +0.000 C 
ATOM     15  C   UNL     1       5.685   6.678  16.902  0.00  0.00    +0.000 C 
ATOM     16  C   UNL     1       5.220   5.439  16.131  0.00  0.00    +0.000 C 
ATOM     17  C   UNL     1       4.107   4.613  16.793  0.00  0.00    +0.000 C 
ENDBRANCH  10  11
ENDBRANCH   2   5
BRANCH   3  18
ATOM     18  C   UNL     1       1.745   8.792  20.617  0.00  0.00    +0.000 C 
BRANCH  18  19
ATOM     19  C   UNL     1       0.875   9.357  19.538  0.00  0.00    +0.000 A 
ATOM     20  C   UNL     1      -0.484   9.739  19.646  0.00  0.00    +0.000 A 
ATOM     21  C   UNL     1      -0.855  10.180  18.396  0.00  0.00    +0.000 A 
ATOM     22  N   UNL     1       0.264  10.019  17.621  0.00  0.00    +0.000 N 
ATOM     23  N   UNL     1       1.335   9.549  18.291  0.00  0.00    +0.000 NA
ATOM     24  H   UNL     1       0.356  10.207  16.630  0.00  0.00    +0.000 HD
BRANCH  21  25
ATOM     25  C   UNL     1      -2.108  10.692  17.926  0.00  0.00    +0.000 A 
ATOM     26  C   UNL     1      -3.056  11.366  18.676  0.00  0.00    +0.000 A 
ATOM     27  C   UNL     1      -4.206  11.732  17.918  0.00  0.00    +0.000 A 
ATOM     28  C   UNL     1      -4.102  11.327  16.606  0.00  0.00    +0.000 A 
ATOM     29  S   UNL     1      -2.623  10.527  16.298  0.00  0.00    +0.000 S 
ENDBRANCH  21  25
ENDBRANCH  18  19
ENDBRANCH   3  18
TORSDOF 5
ENDMDL
