MODEL 1
REMARK VINA RESULT:      -6.8      0.000      0.000
REMARK  Name = 
REMARK  5 active torsions:
REMARK  status: ('A' for Active; 'I' for Inactive)
REMARK    1  A    between atoms: C_1  and  C_2
REMARK    2  A    between atoms: C_2  and  C_3
REMARK    3  A    between atoms: C_3  and  C_4
REMARK    4  A    between atoms: C_8  and  O_9
REMARK    5  A    between atoms: C_10  and  O_11
REMARK                            x       y       z     vdW  Elec       q    Type
REMARK                         _______ _______ _______ _____ _____    ______ ____
ROOT
ATOM      1  C   UNL     1       1.877   4.054  17.782  0.00  0.00    +0.000 C 
ATOM      2  C   UNL     1       3.038   3.153  17.296  0.00  0.00    +0.000 C 
ATOM      3  C   UNL     1       4.127   4.143  17.041  0.00  0.00    +0.000 A 
ATOM      4  C   UNL     1       5.336   3.910  16.401  0.00  0.00    +0.000 A 
ATOM      5  C   UNL     1       6.208   4.983  16.271  0.00  0.00    +0.000 A 
ATOM      6  C   UNL     1       5.857   6.255  16.742  0.00  0.00    +0.000 A 
ATOM      7  C   UNL     1       4.663   6.472  17.426  0.00  0.00    +0.000 A 
ATOM      8  C   UNL     1       3.816   5.393  17.595  0.00  0.00    +0.000 A 
ATOM      9  C   UNL     1       2.539   5.316  18.380  0.00  0.00    +0.000 C 
ENDROOT
BRANCH   5  10
ATOM     10  O   UNL     1       7.445   4.836  15.703  0.00  0.00    +0.000 OA
ATOM     11  H   UNL     1       7.610   3.881  15.612  0.00  0.00    +0.000 HD
ENDBRANCH   5  10
BRANCH   6  12
ATOM     12  O   UNL     1       6.719   7.299  16.557  0.00  0.00    +0.000 OA
ATOM     13  H   UNL     1       6.182   7.980  16.105  0.00  0.00    +0.000 HD
ENDBRANCH   6  12
BRANCH   1  14
ATOM     14  C   UNL     1       0.971   3.267  18.733  0.00  0.00    +0.000 C 
BRANCH  14  16
ATOM     15  C   UNL     1       1.427   2.798  21.149  0.00  0.00    +0.000 C 
ATOM     16  C   UNL     1       0.893   3.822  20.153  0.00  0.00    +0.000 C 
ENDBRANCH  14  16
ENDBRANCH   1  14
TORSDOF 4
ENDMDL
MODEL 2
REMARK VINA RESULT:      -6.5      3.181      5.657
REMARK  Name = 
REMARK  5 active torsions:
REMARK  status: ('A' for Active; 'I' for Inactive)
REMARK    1  A    between atoms: C_1  and  C_2
REMARK    2  A    between atoms: C_2  and  C_3
REMARK    3  A    between atoms: C_3  and  C_4
REMARK    4  A    between atoms: C_8  and  O_9
REMARK    5  A    between atoms: C_10  and  O_11
REMARK                            x       y       z     vdW  Elec       q    Type
REMARK                         _______ _______ _______ _____ _____    ______ ____
ROOT
ATOM      1  C   UNL     1       4.956   5.597  16.579  0.00  0.00    +0.000 C 
ATOM      2  C   UNL     1       4.382   6.050  17.944  0.00  0.00    +0.000 C 
ATOM      3  C   UNL     1       3.334   5.019  18.208  0.00  0.00    +0.000 A 
ATOM      4  C   UNL     1       2.367   5.045  19.203  0.00  0.00    +0.000 A 
ATOM      5  C   UNL     1       1.484   3.975  19.267  0.00  0.00    +0.000 A 
ATOM      6  C   UNL     1       1.556   2.929  18.336  0.00  0.00    +0.000 A 
ATOM      7  C   UNL     1       2.559   2.884  17.371  0.00  0.00    +0.000 A 
ATOM      8  C   UNL     1       3.464   3.928  17.337  0.00  0.00    +0.000 A 
ATOM      9  C   UNL     1       4.694   4.077  16.490  0.00  0.00    +0.000 C 
ENDROOT
BRANCH   5  10
ATOM     10  O   UNL     1       0.533   3.888  20.247  0.00  0.00    +0.000 OA
ATOM     11  H   UNL     1       0.700   4.611  20.877  0.00  0.00    +0.000 HD
ENDBRANCH   5  10
BRANCH   6  12
ATOM     12  O   UNL     1       0.644   1.914  18.400  0.00  0.00    +0.000 OA
ATOM     13  H   UNL     1       0.030   2.092  17.660  0.00  0.00    +0.000 HD
ENDBRANCH   6  12
BRANCH   1  14
ATOM     14  C   UNL     1       6.422   6.025  16.463  0.00  0.00    +0.000 C 
BRANCH  14  16
ATOM     15  C   UNL     1       7.717   7.844  17.594  0.00  0.00    +0.000 C 
ATOM     16  C   UNL     1       7.064   6.478  17.773  0.00  0.00    +0.000 C 
ENDBRANCH  14  16
ENDBRANCH   1  14
TORSDOF 4
ENDMDL
MODEL 3
REMARK VINA RESULT:      -6.4      0.874      1.974
REMARK  Name = 
REMARK  5 active torsions:
REMARK  status: ('A' for Active; 'I' for Inactive)
REMARK    1  A    between atoms: C_1  and  C_2
REMARK    2  A    between atoms: C_2  and  C_3
REMARK    3  A    between atoms: C_3  and  C_4
REMARK    4  A    between atoms: C_8  and  O_9
REMARK    5  A    between atoms: C_10  and  O_11
REMARK                            x       y       z     vdW  Elec       q    Type
REMARK                         _______ _______ _______ _____ _____    ______ ____
ROOT
ATOM      1  C   UNL     1       3.012   3.816  18.520  0.00  0.00    +0.000 C 
ATOM      2  C   UNL     1       3.661   5.170  18.899  0.00  0.00    +0.000 C 
ATOM      3  C   UNL     1       4.746   5.300  17.881  0.00  0.00    +0.000 A 
ATOM      4  C   UNL     1       5.774   6.233  17.868  0.00  0.00    +0.000 A 
ATOM      5  C   UNL     1       6.682   6.171  16.819  0.00  0.00    +0.000 A 
ATOM      6  C   UNL     1       6.574   5.180  15.834  0.00  0.00    +0.000 A 
ATOM      7  C   UNL     1       5.513   4.277  15.825  0.00  0.00    +0.000 A 
ATOM      8  C   UNL     1       4.585   4.368  16.845  0.00  0.00    +0.000 A 
ATOM      9  C   UNL     1       3.301   3.611  17.017  0.00  0.00    +0.000 C 
ENDROOT
BRANCH   5  10
ATOM     10  O   UNL     1       7.695   7.083  16.694  0.00  0.00    +0.000 OA
ATOM     11  H   UNL     1       8.525   6.582  16.610  0.00  0.00    +0.000 HD
ENDBRANCH   5  10
BRANCH   6  12
ATOM     12  O   UNL     1       7.510   5.119  14.841  0.00  0.00    +0.000 OA
ATOM     13  H   UNL     1       7.044   5.452  14.047  0.00  0.00    +0.000 HD
ENDBRANCH   6  12
BRANCH   1  14
ATOM     14  C   UNL     1       1.533   3.820  18.917  0.00  0.00    +0.000 C 
BRANCH  14  16
ATOM     15  C   UNL     1       1.347   2.861  21.222  0.00  0.00    +0.000 C 
ATOM     16  C   UNL     1       1.262   4.134  20.386  0.00  0.00    +0.000 C 
ENDBRANCH  14  16
ENDBRANCH   1  14
TORSDOF 4
ENDMDL
MODEL 4
REMARK VINA RESULT:      -6.3      3.462      5.768
REMARK  Name = 
REMARK  5 active torsions:
REMARK  status: ('A' for Active; 'I' for Inactive)
REMARK    1  A    between atoms: C_1  and  C_2
REMARK    2  A    between atoms: C_2  and  C_3
REMARK    3  A    between atoms: C_3  and  C_4
REMARK    4  A    between atoms: C_8  and  O_9
REMARK    5  A    between atoms: C_10  and  O_11
REMARK                            x       y       z     vdW  Elec       q    Type
REMARK                         _______ _______ _______ _____ _____    ______ ____
ROOT
ATOM      1  C   UNL     1       5.457   5.012  17.692  0.00  0.00    +0.000 C 
ATOM      2  C   UNL     1       4.992   5.027  19.169  0.00  0.00    +0.000 C 
ATOM      3  C   UNL     1       3.724   4.239  19.113  0.00  0.00    +0.000 A 
ATOM      4  C   UNL     1       2.779   4.102  20.120  0.00  0.00    +0.000 A 
ATOM      5  C   UNL     1       1.666   3.318  19.851  0.00  0.00    +0.000 A 
ATOM      6  C   UNL     1       1.497   2.718  18.595  0.00  0.00    +0.000 A 
ATOM      7  C   UNL     1       2.471   2.819  17.605  0.00  0.00    +0.000 A 
ATOM      8  C   UNL     1       3.600   3.563  17.890  0.00  0.00    +0.000 A 
ATOM      9  C   UNL     1       4.840   3.742  17.064  0.00  0.00    +0.000 C 
ENDROOT
BRANCH   5  10
ATOM     10  O   UNL     1       0.709   3.081  20.801  0.00  0.00    +0.000 OA
ATOM     11  H   UNL     1       1.164   2.744  21.592  0.00  0.00    +0.000 HD
ENDBRANCH   5  10
BRANCH   6  12
ATOM     12  O   UNL     1       0.367   1.989  18.348  0.00  0.00    +0.000 OA
ATOM     13  H   UNL     1       0.580   1.477  17.542  0.00  0.00    +0.000 HD
ENDBRANCH   6  12
BRANCH   1  14
ATOM     14  C   UNL     1       6.984   5.109  17.628  0.00  0.00    +0.000 C 
BRANCH  14  16
ATOM     15  C   UNL     1       7.620   7.530  17.608  0.00  0.00    +0.000 C 
ATOM     16  C   UNL     1       7.590   6.252  18.439  0.00  0.00    +0.000 C 
ENDBRANCH  14  16
ENDBRANCH   1  14
TORSDOF 4
ENDMDL
MODEL 5
REMARK VINA RESULT:      -6.3      1.196      1.274
REMARK  Name = 
REMARK  5 active torsions:
REMARK  status: ('A' for Active; 'I' for Inactive)
REMARK    1  A    between atoms: C_1  and  C_2
REMARK    2  A    between atoms: C_2  and  C_3
REMARK    3  A    between atoms: C_3  and  C_4
REMARK    4  A    between atoms: C_8  and  O_9
REMARK    5  A    between atoms: C_10  and  O_11
REMARK                            x       y       z     vdW  Elec       q    Type
REMARK                         _______ _______ _______ _____ _____    ______ ____
ROOT
ATOM      1  C   UNL     1       3.227   3.682  18.534  0.00  0.00    +0.000 C 
ATOM      2  C   UNL     1       3.888   3.087  17.266  0.00  0.00    +0.000 C 
ATOM      3  C   UNL     1       4.974   4.072  16.979  0.00  0.00    +0.000 A 
ATOM      4  C   UNL     1       5.759   4.142  15.837  0.00  0.00    +0.000 A 
ATOM      5  C   UNL     1       6.716   5.147  15.779  0.00  0.00    +0.000 A 
ATOM      6  C   UNL     1       6.853   6.069  16.826  0.00  0.00    +0.000 A 
ATOM      7  C   UNL     1       6.096   5.964  17.989  0.00  0.00    +0.000 A 
ATOM      8  C   UNL     1       5.175   4.937  18.065  0.00  0.00    +0.000 A 
ATOM      9  C   UNL     1       4.320   4.525  19.228  0.00  0.00    +0.000 C 
ENDROOT
BRANCH   5  10
ATOM     10  O   UNL     1       7.572   5.260  14.717  0.00  0.00    +0.000 OA
ATOM     11  H   UNL     1       7.259   4.650  14.027  0.00  0.00    +0.000 HD
ENDBRANCH   5  10
BRANCH   6  12
ATOM     12  O   UNL     1       7.774   7.073  16.716  0.00  0.00    +0.000 OA
ATOM     13  H   UNL     1       7.679   7.390  15.796  0.00  0.00    +0.000 HD
ENDBRANCH   6  12
BRANCH   1  14
ATOM     14  C   UNL     1       2.620   2.559  19.379  0.00  0.00    +0.000 C 
BRANCH  14  16
ATOM     15  C   UNL     1       1.485   2.767  21.601  0.00  0.00    +0.000 C 
ATOM     16  C   UNL     1       1.320   2.923  20.093  0.00  0.00    +0.000 C 
ENDBRANCH  14  16
ENDBRANCH   1  14
TORSDOF 4
ENDMDL
MODEL 6
REMARK VINA RESULT:      -6.3      0.882      1.019
REMARK  Name = 
REMARK  5 active torsions:
REMARK  status: ('A' for Active; 'I' for Inactive)
REMARK    1  A    between atoms: C_1  and  C_2
REMARK    2  A    between atoms: C_2  and  C_3
REMARK    3  A    between atoms: C_3  and  C_4
REMARK    4  A    between atoms: C_8  and  O_9
REMARK    5  A    between atoms: C_10  and  O_11
REMARK                            x       y       z     vdW  Elec       q    Type
REMARK                         _______ _______ _______ _____ _____    ______ ____
ROOT
ATOM      1  C   UNL     1       2.171   5.016  18.743  0.00  0.00    +0.000 C 
ATOM      2  C   UNL     1       2.644   3.903  17.776  0.00  0.00    +0.000 C 
ATOM      3  C   UNL     1       3.954   4.434  17.293  0.00  0.00    +0.000 A 
ATOM      4  C   UNL     1       4.726   3.936  16.254  0.00  0.00    +0.000 A 
ATOM      5  C   UNL     1       5.918   4.590  15.971  0.00  0.00    +0.000 A 
ATOM      6  C   UNL     1       6.301   5.729  16.694  0.00  0.00    +0.000 A 
ATOM      7  C   UNL     1       5.546   6.195  17.767  0.00  0.00    +0.000 A 
ATOM      8  C   UNL     1       4.383   5.516  18.076  0.00  0.00    +0.000 A 
ATOM      9  C   UNL     1       3.452   5.727  19.234  0.00  0.00    +0.000 C 
ENDROOT
BRANCH   5  10
ATOM     10  O   UNL     1       6.771   4.138  15.000  0.00  0.00    +0.000 OA
ATOM     11  H   UNL     1       6.233   3.937  14.214  0.00  0.00    +0.000 HD
ENDBRANCH   5  10
BRANCH   6  12
ATOM     12  O   UNL     1       7.457   6.375  16.360  0.00  0.00    +0.000 OA
ATOM     13  H   UNL     1       7.996   6.347  17.176  0.00  0.00    +0.000 HD
ENDBRANCH   6  12
BRANCH   1  14
ATOM     14  C   UNL     1       1.286   4.413  19.837  0.00  0.00    +0.000 C 
BRANCH  14  16
ATOM     15  C   UNL     1       1.751   2.678  21.581  0.00  0.00    +0.000 C 
ATOM     16  C   UNL     1       1.508   2.925  20.096  0.00  0.00    +0.000 C 
ENDBRANCH  14  16
ENDBRANCH   1  14
TORSDOF 4
ENDMDL
MODEL 7
REMARK VINA RESULT:      -6.2      1.698      2.227
REMARK  Name = 
REMARK  5 active torsions:
REMARK  status: ('A' for Active; 'I' for Inactive)
REMARK    1  A    between atoms: C_1  and  C_2
REMARK    2  A    between atoms: C_2  and  C_3
REMARK    3  A    between atoms: C_3  and  C_4
REMARK    4  A    between atoms: C_8  and  O_9
REMARK    5  A    between atoms: C_10  and  O_11
REMARK                            x       y       z     vdW  Elec       q    Type
REMARK                         _______ _______ _______ _____ _____    ______ ____
ROOT
ATOM      1  C   UNL     1       3.694   2.884  18.011  0.00  0.00    +0.000 C 
ATOM      2  C   UNL     1       4.411   3.457  19.257  0.00  0.00    +0.000 C 
ATOM      3  C   UNL     1       5.381   4.420  18.655  0.00  0.00    +0.000 A 
ATOM      4  C   UNL     1       6.421   5.074  19.299  0.00  0.00    +0.000 A 
ATOM      5  C   UNL     1       7.206   5.932  18.541  0.00  0.00    +0.000 A 
ATOM      6  C   UNL     1       6.968   6.100  17.170  0.00  0.00    +0.000 A 
ATOM      7  C   UNL     1       5.893   5.479  16.539  0.00  0.00    +0.000 A 
ATOM      8  C   UNL     1       5.085   4.660  17.305  0.00  0.00    +0.000 A 
ATOM      9  C   UNL     1       3.811   3.968  16.916  0.00  0.00    +0.000 C 
ENDROOT
BRANCH   5  10
ATOM     10  O   UNL     1       8.220   6.660  19.103  0.00  0.00    +0.000 OA
ATOM     11  H   UNL     1       8.746   7.033  18.374  0.00  0.00    +0.000 HD
ENDBRANCH   5  10
BRANCH   6  12
ATOM     12  O   UNL     1       7.787   6.917  16.444  0.00  0.00    +0.000 OA
ATOM     13  H   UNL     1       8.179   7.520  17.107  0.00  0.00    +0.000 HD
ENDBRANCH   6  12
BRANCH   1  14
ATOM     14  C   UNL     1       2.268   2.464  18.378  0.00  0.00    +0.000 C 
BRANCH  14  16
ATOM     15  C   UNL     1       0.933   3.729  20.076  0.00  0.00    +0.000 C 
ATOM     16  C   UNL     1       1.294   3.619  18.599  0.00  0.00    +0.000 C 
ENDBRANCH  14  16
ENDBRANCH   1  14
TORSDOF 4
ENDMDL
MODEL 8
REMARK VINA RESULT:      -6.2      3.382      5.500
REMARK  Name = 
REMARK  5 active torsions:
REMARK  status: ('A' for Active; 'I' for Inactive)
REMARK    1  A    between atoms: C_1  and  C_2
REMARK    2  A    between atoms: C_2  and  C_3
REMARK    3  A    between atoms: C_3  and  C_4
REMARK    4  A    between atoms: C_8  and  O_9
REMARK    5  A    between atoms: C_10  and  O_11
REMARK                            x       y       z     vdW  Elec       q    Type
REMARK                         _______ _______ _______ _____ _____    ______ ____
ROOT
ATOM      1  C   UNL     1       5.688   4.530  17.860  0.00  0.00    +0.000 C 
ATOM      2  C   UNL     1       4.706   3.774  16.931  0.00  0.00    +0.000 C 
ATOM      3  C   UNL     1       3.537   3.535  17.829  0.00  0.00    +0.000 A 
ATOM      4  C   UNL     1       2.441   2.721  17.576  0.00  0.00    +0.000 A 
ATOM      5  C   UNL     1       1.462   2.643  18.558  0.00  0.00    +0.000 A 
ATOM      6  C   UNL     1       1.601   3.338  19.767  0.00  0.00    +0.000 A 
ATOM      7  C   UNL     1       2.678   4.190  19.995  0.00  0.00    +0.000 A 
ATOM      8  C   UNL     1       3.630   4.302  18.999  0.00  0.00    +0.000 A 
ATOM      9  C   UNL     1       4.815   5.220  18.931  0.00  0.00    +0.000 C 
ENDROOT
BRANCH   5  10
ATOM     10  O   UNL     1       0.321   1.910  18.374  0.00  0.00    +0.000 OA
ATOM     11  H   UNL     1      -0.388   2.349  18.874  0.00  0.00    +0.000 HD
ENDBRANCH   5  10
BRANCH   6  12
ATOM     12  O   UNL     1       0.641   3.203  20.730  0.00  0.00    +0.000 OA
ATOM     13  H   UNL     1       1.073   2.677  21.432  0.00  0.00    +0.000 HD
ENDBRANCH   6  12
BRANCH   1  14
ATOM     14  C   UNL     1       6.578   5.459  17.030  0.00  0.00    +0.000 C 
BRANCH  14  16
ATOM     15  C   UNL     1       7.657   7.645  17.602  0.00  0.00    +0.000 C 
ATOM     16  C   UNL     1       6.343   6.951  17.262  0.00  0.00    +0.000 C 
ENDBRANCH  14  16
ENDBRANCH   1  14
TORSDOF 4
ENDMDL
MODEL 9
REMARK VINA RESULT:      -6.1      1.376      1.944
REMARK  Name = 
REMARK  5 active torsions:
REMARK  status: ('A' for Active; 'I' for Inactive)
REMARK    1  A    between atoms: C_1  and  C_2
REMARK    2  A    between atoms: C_2  and  C_3
REMARK    3  A    between atoms: C_3  and  C_4
REMARK    4  A    between atoms: C_8  and  O_9
REMARK    5  A    between atoms: C_10  and  O_11
REMARK                            x       y       z     vdW  Elec       q    Type
REMARK                         _______ _______ _______ _____ _____    ______ ____
ROOT
ATOM      1  C   UNL     1       2.999   3.092  18.605  0.00  0.00    +0.000 C 
ATOM      2  C   UNL     1       3.782   4.017  19.568  0.00  0.00    +0.000 C 
ATOM      3  C   UNL     1       4.836   4.588  18.678  0.00  0.00    +0.000 A 
ATOM      4  C   UNL     1       5.943   5.332  19.061  0.00  0.00    +0.000 A 
ATOM      5  C   UNL     1       6.801   5.766  18.060  0.00  0.00    +0.000 A 
ATOM      6  C   UNL     1       6.567   5.431  16.719  0.00  0.00    +0.000 A 
ATOM      7  C   UNL     1       5.430   4.726  16.335  0.00  0.00    +0.000 A 
ATOM      8  C   UNL     1       4.553   4.334  17.328  0.00  0.00    +0.000 A 
ATOM      9  C   UNL     1       3.212   3.672  17.189  0.00  0.00    +0.000 C 
ENDROOT
BRANCH   5  10
ATOM     10  O   UNL     1       7.887   6.551  18.339  0.00  0.00    +0.000 OA
ATOM     11  H   UNL     1       7.700   7.020  19.170  0.00  0.00    +0.000 HD
ENDBRANCH   5  10
BRANCH   6  12
ATOM     12  O   UNL     1       7.457   5.836  15.764  0.00  0.00    +0.000 OA
ATOM     13  H   UNL     1       8.330   5.567  16.116  0.00  0.00    +0.000 HD
ENDBRANCH   6  12
BRANCH   1  14
ATOM     14  C   UNL     1       1.542   2.978  19.062  0.00  0.00    +0.000 C 
BRANCH  14  16
ATOM     15  C   UNL     1       1.330   2.703  21.541  0.00  0.00    +0.000 C 
ATOM     16  C   UNL     1       1.224   3.684  20.378  0.00  0.00    +0.000 C 
ENDBRANCH  14  16
ENDBRANCH   1  14
TORSDOF 4
ENDMDL
