MODEL 1
REMARK VINA RESULT:      -8.3      0.000      0.000
REMARK  Name = 
REMARK  3 active torsions:
REMARK  status: ('A' for Active; 'I' for Inactive)
REMARK    1  A    between atoms: C_1  and  C_2
REMARK    2  A    between atoms: C_2  and  C_3
REMARK    3  A    between atoms: C_5  and  C_6
REMARK                            x       y       z     vdW  Elec       q    Type
REMARK                         _______ _______ _______ _____ _____    ______ ____
ROOT
ATOM      1  C   UNL     1       2.480   4.637  20.073  0.00  0.00    +0.000 A 
ATOM      2  N   UNL     1       1.662   5.653  19.973  0.00  0.00    +0.000 NA
ATOM      3  C   UNL     1       2.478   6.668  19.528  0.00  0.00    +0.000 A 
ATOM      4  N   UNL     1       3.748   6.279  19.316  0.00  0.00    +0.000 NA
ATOM      5  O   UNL     1       3.753   4.938  19.687  0.00  0.00    +0.000 OA
ENDROOT
BRANCH   3   6
ATOM      6  C   UNL     1       1.991   8.026  19.291  0.00  0.00    +0.000 A 
ATOM      7  C   UNL     1       2.234   8.599  18.027  0.00  0.00    +0.000 A 
ATOM      8  C   UNL     1       1.790   9.884  17.729  0.00  0.00    +0.000 A 
ATOM      9  C   UNL     1       1.101  10.614  18.691  0.00  0.00    +0.000 A 
ATOM     10  C   UNL     1       0.846  10.080  19.962  0.00  0.00    +0.000 A 
ATOM     11  C   UNL     1       0.151  10.850  20.911  0.00  0.00    +0.000 A 
ATOM     12  C   UNL     1      -0.122  10.355  22.185  0.00  0.00    +0.000 A 
ATOM     13  C   UNL     1       0.304   9.085  22.532  0.00  0.00    +0.000 A 
ATOM     14  C   UNL     1       1.002   8.311  21.604  0.00  0.00    +0.000 A 
ATOM     15  C   UNL     1       1.288   8.771  20.290  0.00  0.00    +0.000 A 
ENDBRANCH   3   6
BRANCH   1  17
ATOM     16  C   UNL     1       2.266   3.220  22.076  0.00  0.00    +0.000 C 
ATOM     17  C   UNL     1       2.202   3.237  20.537  0.00  0.00    +0.000 C 
ATOM     18  C   UNL     1       0.806   2.772  20.074  0.00  0.00    +0.000 C 
ATOM     19  C   UNL     1       0.749   2.616  18.562  0.00  0.00    +0.000 C 
ATOM     20  N   UNL     1       1.830   1.811  18.054  0.00  0.00    +0.000 N 
ATOM     21  C   UNL     1       3.111   1.936  18.520  0.00  0.00    +0.000 C 
ATOM     22  O   UNL     1       4.060   1.644  17.799  0.00  0.00    +0.000 OA
ATOM     23  C   UNL     1       3.266   2.265  19.990  0.00  0.00    +0.000 C 
ATOM     24  H   UNL     1       1.805   1.556  17.073  0.00  0.00    +0.000 HD
ENDBRANCH   1  17
TORSDOF 2
ENDMDL
MODEL 2
REMARK VINA RESULT:      -8.1      3.324      7.095
REMARK  Name = 
REMARK  3 active torsions:
REMARK  status: ('A' for Active; 'I' for Inactive)
REMARK    1  A    between atoms: C_1  and  C_2
REMARK    2  A    between atoms: C_2  and  C_3
REMARK    3  A    between atoms: C_5  and  C_6
REMARK                            x       y       z     vdW  Elec       q    Type
REMARK                         _______ _______ _______ _____ _____    ______ ____
ROOT
ATOM      1  C   UNL     1       1.248   9.034  19.322  0.00  0.00    +0.000 A 
ATOM      2  N   UNL     1       1.988   7.961  19.446  0.00  0.00    +0.000 NA
ATOM      3  C   UNL     1       2.565   7.835  18.203  0.00  0.00    +0.000 A 
ATOM      4  N   UNL     1       2.229   8.824  17.354  0.00  0.00    +0.000 NA
ATOM      5  O   UNL     1       1.349   9.612  18.091  0.00  0.00    +0.000 OA
ENDROOT
BRANCH   3   6
ATOM      6  C   UNL     1       3.470   6.739  17.860  0.00  0.00    +0.000 A 
ATOM      7  C   UNL     1       4.799   7.068  17.522  0.00  0.00    +0.000 A 
ATOM      8  C   UNL     1       5.718   6.075  17.196  0.00  0.00    +0.000 A 
ATOM      9  C   UNL     1       5.321   4.743  17.198  0.00  0.00    +0.000 A 
ATOM     10  C   UNL     1       4.006   4.378  17.522  0.00  0.00    +0.000 A 
ATOM     11  C   UNL     1       3.640   3.020  17.508  0.00  0.00    +0.000 A 
ATOM     12  C   UNL     1       2.343   2.617  17.824  0.00  0.00    +0.000 A 
ATOM     13  C   UNL     1       1.391   3.567  18.149  0.00  0.00    +0.000 A 
ATOM     14  C   UNL     1       1.737   4.919  18.160  0.00  0.00    +0.000 A 
ATOM     15  C   UNL     1       3.051   5.373  17.859  0.00  0.00    +0.000 A 
ENDBRANCH   3   6
BRANCH   1  17
ATOM     16  C   UNL     1      -0.034   8.629  21.386  0.00  0.00    +0.000 C 
ATOM     17  C   UNL     1       0.344   9.684  20.328  0.00  0.00    +0.000 C 
ATOM     18  C   UNL     1       1.049  10.872  21.014  0.00  0.00    +0.000 C 
ATOM     19  C   UNL     1       1.295  12.010  20.034  0.00  0.00    +0.000 C 
ATOM     20  N   UNL     1       0.102  12.376  19.313  0.00  0.00    +0.000 N 
ATOM     21  C   UNL     1      -0.768  11.440  18.823  0.00  0.00    +0.000 C 
ATOM     22  O   UNL     1      -1.462  11.697  17.845  0.00  0.00    +0.000 OA
ATOM     23  C   UNL     1      -0.947  10.185  19.651  0.00  0.00    +0.000 C 
ATOM     24  H   UNL     1       0.144  13.202  18.726  0.00  0.00    +0.000 HD
ENDBRANCH   1  17
TORSDOF 2
ENDMDL
MODEL 3
REMARK VINA RESULT:      -8.0      1.002      1.244
REMARK  Name = 
REMARK  3 active torsions:
REMARK  status: ('A' for Active; 'I' for Inactive)
REMARK    1  A    between atoms: C_1  and  C_2
REMARK    2  A    between atoms: C_2  and  C_3
REMARK    3  A    between atoms: C_5  and  C_6
REMARK                            x       y       z     vdW  Elec       q    Type
REMARK                         _______ _______ _______ _____ _____    ______ ____
ROOT
ATOM      1  C   UNL     1       2.370   4.447  19.734  0.00  0.00    +0.000 A 
ATOM      2  N   UNL     1       1.596   5.486  19.554  0.00  0.00    +0.000 NA
ATOM      3  C   UNL     1       2.491   6.518  19.391  0.00  0.00    +0.000 A 
ATOM      4  N   UNL     1       3.777   6.121  19.423  0.00  0.00    +0.000 NA
ATOM      5  O   UNL     1       3.697   4.752  19.660  0.00  0.00    +0.000 OA
ENDROOT
BRANCH   3   6
ATOM      6  C   UNL     1       2.071   7.903  19.182  0.00  0.00    +0.000 A 
ATOM      7  C   UNL     1       2.376   8.501  17.943  0.00  0.00    +0.000 A 
ATOM      8  C   UNL     1       1.997   9.812  17.672  0.00  0.00    +0.000 A 
ATOM      9  C   UNL     1       1.314  10.544  18.636  0.00  0.00    +0.000 A 
ATOM     10  C   UNL     1       0.999   9.985  19.883  0.00  0.00    +0.000 A 
ATOM     11  C   UNL     1       0.311  10.758  20.836  0.00  0.00    +0.000 A 
ATOM     12  C   UNL     1      -0.020  10.239  22.086  0.00  0.00    +0.000 A 
ATOM     13  C   UNL     1       0.340   8.942  22.406  0.00  0.00    +0.000 A 
ATOM     14  C   UNL     1       1.030   8.165  21.474  0.00  0.00    +0.000 A 
ATOM     15  C   UNL     1       1.374   8.649  20.183  0.00  0.00    +0.000 A 
ENDBRANCH   3   6
BRANCH   1  17
ATOM     16  C   UNL     1       0.672   3.006  20.787  0.00  0.00    +0.000 C 
ATOM     17  C   UNL     1       1.994   3.017  19.995  0.00  0.00    +0.000 C 
ATOM     18  C   UNL     1       1.807   2.248  18.671  0.00  0.00    +0.000 C 
ATOM     19  C   UNL     1       3.127   2.093  17.931  0.00  0.00    +0.000 C 
ATOM     20  N   UNL     1       4.167   1.559  18.774  0.00  0.00    +0.000 N 
ATOM     21  C   UNL     1       4.336   1.971  20.069  0.00  0.00    +0.000 C 
ATOM     22  O   UNL     1       5.442   1.909  20.595  0.00  0.00    +0.000 OA
ATOM     23  C   UNL     1       3.078   2.318  20.837  0.00  0.00    +0.000 C 
ATOM     24  H   UNL     1       5.047   1.312  18.335  0.00  0.00    +0.000 HD
ENDBRANCH   1  17
TORSDOF 2
ENDMDL
MODEL 4
REMARK VINA RESULT:      -8.0      2.597      3.497
REMARK  Name = 
REMARK  3 active torsions:
REMARK  status: ('A' for Active; 'I' for Inactive)
REMARK    1  A    between atoms: C_1  and  C_2
REMARK    2  A    between atoms: C_2  and  C_3
REMARK    3  A    between atoms: C_5  and  C_6
REMARK                            x       y       z     vdW  Elec       q    Type
REMARK                         _______ _______ _______ _____ _____    ______ ____
ROOT
ATOM      1  C   UNL     1       3.605   6.048  18.453  0.00  0.00    +0.000 A 
ATOM      2  N   UNL     1       3.018   7.153  18.069  0.00  0.00    +0.000 NA
ATOM      3  C   UNL     1       2.284   7.517  19.175  0.00  0.00    +0.000 A 
ATOM      4  N   UNL     1       2.448   6.689  20.223  0.00  0.00    +0.000 NA
ATOM      5  O   UNL     1       3.314   5.710  19.742  0.00  0.00    +0.000 OA
ENDROOT
BRANCH   3   6
ATOM      6  C   UNL     1       1.430   8.704  19.200  0.00  0.00    +0.000 A 
ATOM      7  C   UNL     1       1.178   9.356  17.976  0.00  0.00    +0.000 A 
ATOM      8  C   UNL     1       0.366  10.484  17.924  0.00  0.00    +0.000 A 
ATOM      9  C   UNL     1      -0.201  10.979  19.093  0.00  0.00    +0.000 A 
ATOM     10  C   UNL     1       0.033  10.361  20.330  0.00  0.00    +0.000 A 
ATOM     11  C   UNL     1      -0.553  10.893  21.493  0.00  0.00    +0.000 A 
ATOM     12  C   UNL     1      -0.345  10.308  22.741  0.00  0.00    +0.000 A 
ATOM     13  C   UNL     1       0.460   9.188  22.846  0.00  0.00    +0.000 A 
ATOM     14  C   UNL     1       1.055   8.652  21.703  0.00  0.00    +0.000 A 
ATOM     15  C   UNL     1       0.857   9.208  20.409  0.00  0.00    +0.000 A 
ENDBRANCH   3   6
BRANCH   1  17
ATOM     16  C   UNL     1       3.682   4.005  17.079  0.00  0.00    +0.000 C 
ATOM     17  C   UNL     1       4.524   5.145  17.684  0.00  0.00    +0.000 C 
ATOM     18  C   UNL     1       5.234   5.918  16.553  0.00  0.00    +0.000 C 
ATOM     19  C   UNL     1       6.204   6.948  17.112  0.00  0.00    +0.000 C 
ATOM     20  N   UNL     1       7.103   6.381  18.084  0.00  0.00    +0.000 N 
ATOM     21  C   UNL     1       6.680   5.490  19.033  0.00  0.00    +0.000 C 
ATOM     22  O   UNL     1       7.277   5.398  20.101  0.00  0.00    +0.000 OA
ATOM     23  C   UNL     1       5.584   4.530  18.619  0.00  0.00    +0.000 C 
ATOM     24  H   UNL     1       7.860   6.965  18.421  0.00  0.00    +0.000 HD
ENDBRANCH   1  17
TORSDOF 2
ENDMDL
MODEL 5
REMARK VINA RESULT:      -7.8      1.362      1.798
REMARK  Name = 
REMARK  3 active torsions:
REMARK  status: ('A' for Active; 'I' for Inactive)
REMARK    1  A    between atoms: C_1  and  C_2
REMARK    2  A    between atoms: C_2  and  C_3
REMARK    3  A    between atoms: C_5  and  C_6
REMARK                            x       y       z     vdW  Elec       q    Type
REMARK                         _______ _______ _______ _____ _____    ______ ____
ROOT
ATOM      1  C   UNL     1       1.948   4.581  19.315  0.00  0.00    +0.000 A 
ATOM      2  N   UNL     1       1.754   5.707  18.679  0.00  0.00    +0.000 NA
ATOM      3  C   UNL     1       1.836   6.649  19.678  0.00  0.00    +0.000 A 
ATOM      4  N   UNL     1       2.117   6.125  20.885  0.00  0.00    +0.000 NA
ATOM      5  O   UNL     1       2.181   4.755  20.648  0.00  0.00    +0.000 OA
ENDROOT
BRANCH   3   6
ATOM      6  C   UNL     1       1.655   8.079  19.433  0.00  0.00    +0.000 A 
ATOM      7  C   UNL     1       2.158   8.607  18.226  0.00  0.00    +0.000 A 
ATOM      8  C   UNL     1       2.011   9.956  17.922  0.00  0.00    +0.000 A 
ATOM      9  C   UNL     1       1.365  10.798  18.820  0.00  0.00    +0.000 A 
ATOM     10  C   UNL     1       0.857  10.311  20.033  0.00  0.00    +0.000 A 
ATOM     11  C   UNL     1       0.213  11.193  20.920  0.00  0.00    +0.000 A 
ATOM     12  C   UNL     1      -0.305  10.748  22.135  0.00  0.00    +0.000 A 
ATOM     13  C   UNL     1      -0.179   9.415  22.486  0.00  0.00    +0.000 A 
ATOM     14  C   UNL     1       0.464   8.529  21.621  0.00  0.00    +0.000 A 
ATOM     15  C   UNL     1       0.993   8.937  20.366  0.00  0.00    +0.000 A 
ENDBRANCH   3   6
BRANCH   1  17
ATOM     16  C   UNL     1       0.500   2.657  18.797  0.00  0.00    +0.000 C 
ATOM     17  C   UNL     1       1.950   3.178  18.783  0.00  0.00    +0.000 C 
ATOM     18  C   UNL     1       2.498   3.138  17.341  0.00  0.00    +0.000 C 
ATOM     19  C   UNL     1       3.978   3.489  17.302  0.00  0.00    +0.000 C 
ATOM     20  N   UNL     1       4.748   2.713  18.241  0.00  0.00    +0.000 N 
ATOM     21  C   UNL     1       4.303   2.455  19.509  0.00  0.00    +0.000 C 
ATOM     22  O   UNL     1       5.106   2.248  20.413  0.00  0.00    +0.000 OA
ATOM     23  C   UNL     1       2.810   2.262  19.675  0.00  0.00    +0.000 C 
ATOM     24  H   UNL     1       5.758   2.795  18.201  0.00  0.00    +0.000 HD
ENDBRANCH   1  17
TORSDOF 2
ENDMDL
MODEL 6
REMARK VINA RESULT:      -7.8      2.910      6.864
REMARK  Name = 
REMARK  3 active torsions:
REMARK  status: ('A' for Active; 'I' for Inactive)
REMARK    1  A    between atoms: C_1  and  C_2
REMARK    2  A    between atoms: C_2  and  C_3
REMARK    3  A    between atoms: C_5  and  C_6
REMARK                            x       y       z     vdW  Elec       q    Type
REMARK                         _______ _______ _______ _____ _____    ______ ____
ROOT
ATOM      1  C   UNL     1       1.002   9.009  20.327  0.00  0.00    +0.000 A 
ATOM      2  N   UNL     1       1.567   8.629  19.210  0.00  0.00    +0.000 NA
ATOM      3  C   UNL     1       2.114   7.410  19.536  0.00  0.00    +0.000 A 
ATOM      4  N   UNL     1       1.857   7.029  20.800  0.00  0.00    +0.000 NA
ATOM      5  O   UNL     1       1.129   8.091  21.328  0.00  0.00    +0.000 OA
ENDROOT
BRANCH   3   6
ATOM      6  C   UNL     1       2.882   6.609  18.583  0.00  0.00    +0.000 A 
ATOM      7  C   UNL     1       3.895   7.257  17.847  0.00  0.00    +0.000 A 
ATOM      8  C   UNL     1       4.671   6.554  16.932  0.00  0.00    +0.000 A 
ATOM      9  C   UNL     1       4.443   5.196  16.734  0.00  0.00    +0.000 A 
ATOM     10  C   UNL     1       3.439   4.519  17.442  0.00  0.00    +0.000 A 
ATOM     11  C   UNL     1       3.233   3.147  17.212  0.00  0.00    +0.000 A 
ATOM     12  C   UNL     1       2.247   2.439  17.896  0.00  0.00    +0.000 A 
ATOM     13  C   UNL     1       1.444   3.095  18.813  0.00  0.00    +0.000 A 
ATOM     14  C   UNL     1       1.631   4.458  19.047  0.00  0.00    +0.000 A 
ATOM     15  C   UNL     1       2.635   5.215  18.383  0.00  0.00    +0.000 A 
ENDBRANCH   3   6
BRANCH   1  17
ATOM     16  C   UNL     1      -0.139  10.254  22.120  0.00  0.00    +0.000 C 
ATOM     17  C   UNL     1       0.256  10.276  20.631  0.00  0.00    +0.000 C 
ATOM     18  C   UNL     1       1.135  11.512  20.349  0.00  0.00    +0.000 C 
ATOM     19  C   UNL     1       1.415  11.664  18.862  0.00  0.00    +0.000 C 
ATOM     20  N   UNL     1       0.211  11.612  18.072  0.00  0.00    +0.000 N 
ATOM     21  C   UNL     1      -0.789  10.714  18.328  0.00  0.00    +0.000 C 
ATOM     22  O   UNL     1      -1.532  10.344  17.425  0.00  0.00    +0.000 OA
ATOM     23  C   UNL     1      -1.027  10.365  19.783  0.00  0.00    +0.000 C 
ATOM     24  H   UNL     1       0.289  11.823  17.083  0.00  0.00    +0.000 HD
ENDBRANCH   1  17
TORSDOF 2
ENDMDL
MODEL 7
REMARK VINA RESULT:      -7.8      2.304      3.240
REMARK  Name = 
REMARK  3 active torsions:
REMARK  status: ('A' for Active; 'I' for Inactive)
REMARK    1  A    between atoms: C_1  and  C_2
REMARK    2  A    between atoms: C_2  and  C_3
REMARK    3  A    between atoms: C_5  and  C_6
REMARK                            x       y       z     vdW  Elec       q    Type
REMARK                         _______ _______ _______ _____ _____    ______ ____
ROOT
ATOM      1  C   UNL     1       3.696   6.609  18.131  0.00  0.00    +0.000 A 
ATOM      2  N   UNL     1       3.059   7.733  17.922  0.00  0.00    +0.000 NA
ATOM      3  C   UNL     1       2.175   7.791  18.974  0.00  0.00    +0.000 A 
ATOM      4  N   UNL     1       2.294   6.760  19.831  0.00  0.00    +0.000 NA
ATOM      5  O   UNL     1       3.293   5.972  19.268  0.00  0.00    +0.000 OA
ENDROOT
BRANCH   3   6
ATOM      6  C   UNL     1       1.219   8.885  19.143  0.00  0.00    +0.000 A 
ATOM      7  C   UNL     1       0.763   9.542  17.982  0.00  0.00    +0.000 A 
ATOM      8  C   UNL     1      -0.154  10.584  18.067  0.00  0.00    +0.000 A 
ATOM      9  C   UNL     1      -0.625  10.987  19.311  0.00  0.00    +0.000 A 
ATOM     10  C   UNL     1      -0.190  10.362  20.488  0.00  0.00    +0.000 A 
ATOM     11  C   UNL     1      -0.684  10.800  21.731  0.00  0.00    +0.000 A 
ATOM     12  C   UNL     1      -0.275  10.204  22.923  0.00  0.00    +0.000 A 
ATOM     13  C   UNL     1       0.641   9.168  22.891  0.00  0.00    +0.000 A 
ATOM     14  C   UNL     1       1.146   8.727  21.668  0.00  0.00    +0.000 A 
ATOM     15  C   UNL     1       0.746   9.295  20.428  0.00  0.00    +0.000 A 
ENDBRANCH   3   6
BRANCH   1  17
ATOM     16  C   UNL     1       4.899   6.736  15.986  0.00  0.00    +0.000 C 
ATOM     17  C   UNL     1       4.776   5.963  17.313  0.00  0.00    +0.000 C 
ATOM     18  C   UNL     1       6.126   5.998  18.058  0.00  0.00    +0.000 C 
ATOM     19  C   UNL     1       6.099   5.112  19.293  0.00  0.00    +0.000 C 
ATOM     20  N   UNL     1       5.629   3.781  19.001  0.00  0.00    +0.000 N 
ATOM     21  C   UNL     1       4.568   3.552  18.168  0.00  0.00    +0.000 C 
ATOM     22  O   UNL     1       3.888   2.540  18.301  0.00  0.00    +0.000 OA
ATOM     23  C   UNL     1       4.411   4.499  16.996  0.00  0.00    +0.000 C 
ATOM     24  H   UNL     1       5.690   3.089  19.739  0.00  0.00    +0.000 HD
ENDBRANCH   1  17
TORSDOF 2
ENDMDL
MODEL 8
REMARK VINA RESULT:      -7.8      3.171      7.259
REMARK  Name = 
REMARK  3 active torsions:
REMARK  status: ('A' for Active; 'I' for Inactive)
REMARK    1  A    between atoms: C_1  and  C_2
REMARK    2  A    between atoms: C_2  and  C_3
REMARK    3  A    between atoms: C_5  and  C_6
REMARK                            x       y       z     vdW  Elec       q    Type
REMARK                         _______ _______ _______ _____ _____    ______ ____
ROOT
ATOM      1  C   UNL     1       0.888   9.336  19.011  0.00  0.00    +0.000 A 
ATOM      2  N   UNL     1       1.496   8.711  18.036  0.00  0.00    +0.000 NA
ATOM      3  C   UNL     1       2.235   7.753  18.691  0.00  0.00    +0.000 A 
ATOM      4  N   UNL     1       2.054   7.757  20.024  0.00  0.00    +0.000 NA
ATOM      5  O   UNL     1       1.170   8.811  20.238  0.00  0.00    +0.000 OA
ENDROOT
BRANCH   3   6
ATOM      6  C   UNL     1       3.112   6.816  17.990  0.00  0.00    +0.000 A 
ATOM      7  C   UNL     1       4.260   7.337  17.360  0.00  0.00    +0.000 A 
ATOM      8  C   UNL     1       5.144   6.502  16.685  0.00  0.00    +0.000 A 
ATOM      9  C   UNL     1       4.891   5.136  16.626  0.00  0.00    +0.000 A 
ATOM     10  C   UNL     1       3.755   4.582  17.235  0.00  0.00    +0.000 A 
ATOM     11  C   UNL     1       3.529   3.196  17.149  0.00  0.00    +0.000 A 
ATOM     12  C   UNL     1       2.413   2.607  17.741  0.00  0.00    +0.000 A 
ATOM     13  C   UNL     1       1.501   3.397  18.419  0.00  0.00    +0.000 A 
ATOM     14  C   UNL     1       1.707   4.774  18.506  0.00  0.00    +0.000 A 
ATOM     15  C   UNL     1       2.839   5.413  17.930  0.00  0.00    +0.000 A 
ENDBRANCH   3   6
BRANCH   1  17
ATOM     16  C   UNL     1      -1.149  10.189  17.921  0.00  0.00    +0.000 C 
ATOM     17  C   UNL     1      -0.048  10.508  18.950  0.00  0.00    +0.000 C 
ATOM     18  C   UNL     1      -0.690  10.770  20.328  0.00  0.00    +0.000 C 
ATOM     19  C   UNL     1       0.342  11.248  21.337  0.00  0.00    +0.000 C 
ATOM     20  N   UNL     1       1.124  12.352  20.838  0.00  0.00    +0.000 N 
ATOM     21  C   UNL     1       1.591  12.389  19.552  0.00  0.00    +0.000 C 
ATOM     22  O   UNL     1       2.605  13.024  19.284  0.00  0.00    +0.000 OA
ATOM     23  C   UNL     1       0.701  11.775  18.492  0.00  0.00    +0.000 C 
ATOM     24  H   UNL     1       1.755  12.811  21.486  0.00  0.00    +0.000 HD
ENDBRANCH   1  17
TORSDOF 2
ENDMDL
MODEL 9
REMARK VINA RESULT:      -7.7      2.814      7.070
REMARK  Name = 
REMARK  3 active torsions:
REMARK  status: ('A' for Active; 'I' for Inactive)
REMARK    1  A    between atoms: C_1  and  C_2
REMARK    2  A    between atoms: C_2  and  C_3
REMARK    3  A    between atoms: C_5  and  C_6
REMARK                            x       y       z     vdW  Elec       q    Type
REMARK                         _______ _______ _______ _____ _____    ______ ____
ROOT
ATOM      1  C   UNL     1       1.708   9.269  18.954  0.00  0.00    +0.000 A 
ATOM      2  N   UNL     1       2.218   8.498  18.028  0.00  0.00    +0.000 NA
ATOM      3  C   UNL     1       2.470   7.325  18.702  0.00  0.00    +0.000 A 
ATOM      4  N   UNL     1       2.085   7.356  19.991  0.00  0.00    +0.000 NA
ATOM      5  O   UNL     1       1.590   8.646  20.162  0.00  0.00    +0.000 OA
ENDROOT
BRANCH   3   6
ATOM      6  C   UNL     1       3.077   6.160  18.060  0.00  0.00    +0.000 A 
ATOM      7  C   UNL     1       4.194   6.378  17.229  0.00  0.00    +0.000 A 
ATOM      8  C   UNL     1       4.829   5.314  16.595  0.00  0.00    +0.000 A 
ATOM      9  C   UNL     1       4.353   4.021  16.779  0.00  0.00    +0.000 A 
ATOM     10  C   UNL     1       3.241   3.766  17.593  0.00  0.00    +0.000 A 
ATOM     11  C   UNL     1       2.785   2.445  17.752  0.00  0.00    +0.000 A 
ATOM     12  C   UNL     1       1.683   2.151  18.552  0.00  0.00    +0.000 A 
ATOM     13  C   UNL     1       1.014   3.175  19.199  0.00  0.00    +0.000 A 
ATOM     14  C   UNL     1       1.449   4.492  19.046  0.00  0.00    +0.000 A 
ATOM     15  C   UNL     1       2.577   4.835  18.252  0.00  0.00    +0.000 A 
ENDBRANCH   3   6
BRANCH   1  17
ATOM     16  C   UNL     1       2.234  11.453  17.944  0.00  0.00    +0.000 C 
ATOM     17  C   UNL     1       1.250  10.695  18.856  0.00  0.00    +0.000 C 
ATOM     18  C   UNL     1      -0.171  10.776  18.261  0.00  0.00    +0.000 C 
ATOM     19  C   UNL     1      -1.202  10.182  19.209  0.00  0.00    +0.000 C 
ATOM     20  N   UNL     1      -1.095  10.723  20.541  0.00  0.00    +0.000 N 
ATOM     21  C   UNL     1       0.114  10.933  21.146  0.00  0.00    +0.000 C 
ATOM     22  O   UNL     1       0.202  10.913  22.369  0.00  0.00    +0.000 OA
ATOM     23  C   UNL     1       1.254  11.362  20.246  0.00  0.00    +0.000 C 
ATOM     24  H   UNL     1      -1.817  10.473  21.208  0.00  0.00    +0.000 HD
ENDBRANCH   1  17
TORSDOF 2
ENDMDL
