MODEL 1
REMARK VINA RESULT:      -6.8      0.000      0.000
REMARK  Name = 
REMARK  4 active torsions:
REMARK  status: ('A' for Active; 'I' for Inactive)
REMARK    1  A    between atoms: C_1  and  C_2
REMARK    2  A    between atoms: C_2  and  C_4
REMARK    3  A    between atoms: C_4  and  O_5
REMARK    4  A    between atoms: O_5  and  C_6
REMARK                            x       y       z     vdW  Elec       q    Type
REMARK                         _______ _______ _______ _____ _____    ______ ____
ROOT
ATOM      1  C   UNL     1       4.007   4.361  17.460  0.00  0.00    +0.000 A 
ATOM      2  N   UNL     1       4.260   3.089  17.111  0.00  0.00    +0.000 NA
ATOM      3  C   UNL     1       3.694   2.171  17.897  0.00  0.00    +0.000 A 
ATOM      4  N   UNL     1       2.929   2.415  18.970  0.00  0.00    +0.000 NA
ATOM      5  C   UNL     1       2.684   3.700  19.301  0.00  0.00    +0.000 A 
ATOM      6  C   UNL     1       1.903   4.057  20.413  0.00  0.00    +0.000 A 
ATOM      7 CL   UNL     1       1.226   2.833  21.438  0.00  0.00    +0.000 Cl
ATOM      8  C   UNL     1       1.638   5.390  20.754  0.00  0.00    +0.000 A 
ATOM      9  C   UNL     1       2.161   6.408  19.974  0.00  0.00    +0.000 A 
ATOM     10 CL   UNL     1       1.839   8.049  20.369  0.00  0.00    +0.000 Cl
ATOM     11  C   UNL     1       2.947   6.099  18.874  0.00  0.00    +0.000 A 
ATOM     12  C   UNL     1       3.212   4.749  18.541  0.00  0.00    +0.000 A 
ENDROOT
BRANCH   1  13
ATOM     13  O   UNL     1       4.568   5.376  16.715  0.00  0.00    +0.000 OA
BRANCH  13  14
ATOM     14  C   UNL     1       5.676   4.990  15.913  0.00  0.00    +0.000 C 
BRANCH  14  16
ATOM     15  C   UNL     1       7.024   6.603  17.395  0.00  0.00    +0.000 C 
ATOM     16  C   UNL     1       6.945   5.269  16.706  0.00  0.00    +0.000 C 
ATOM     17  O   UNL     1       7.875   4.464  16.798  0.00  0.00    +0.000 OA
ENDBRANCH  14  16
ENDBRANCH  13  14
ENDBRANCH   1  13
TORSDOF 3
ENDMDL
MODEL 2
REMARK VINA RESULT:      -6.5      1.065      1.133
REMARK  Name = 
REMARK  4 active torsions:
REMARK  status: ('A' for Active; 'I' for Inactive)
REMARK    1  A    between atoms: C_1  and  C_2
REMARK    2  A    between atoms: C_2  and  C_4
REMARK    3  A    between atoms: C_4  and  O_5
REMARK    4  A    between atoms: O_5  and  C_6
REMARK                            x       y       z     vdW  Elec       q    Type
REMARK                         _______ _______ _______ _____ _____    ______ ____
ROOT
ATOM      1  C   UNL     1       4.142   5.054  17.583  0.00  0.00    +0.000 A 
ATOM      2  N   UNL     1       4.478   3.856  17.078  0.00  0.00    +0.000 NA
ATOM      3  C   UNL     1       3.897   2.814  17.677  0.00  0.00    +0.000 A 
ATOM      4  N   UNL     1       3.044   2.873  18.708  0.00  0.00    +0.000 NA
ATOM      5  C   UNL     1       2.716   4.087  19.198  0.00  0.00    +0.000 A 
ATOM      6  C   UNL     1       1.838   4.251  20.283  0.00  0.00    +0.000 A 
ATOM      7 CL   UNL     1       1.143   2.868  21.065  0.00  0.00    +0.000 Cl
ATOM      8  C   UNL     1       1.488   5.510  20.788  0.00  0.00    +0.000 A 
ATOM      9  C   UNL     1       2.021   6.648  20.206  0.00  0.00    +0.000 A 
ATOM     10 CL   UNL     1       1.596   8.202  20.803  0.00  0.00    +0.000 Cl
ATOM     11  C   UNL     1       2.901   6.530  19.140  0.00  0.00    +0.000 A 
ATOM     12  C   UNL     1       3.251   5.253  18.640  0.00  0.00    +0.000 A 
ENDROOT
BRANCH   1  13
ATOM     13  O   UNL     1       4.711   6.185  17.039  0.00  0.00    +0.000 OA
BRANCH  13  14
ATOM     14  C   UNL     1       5.993   5.991  16.457  0.00  0.00    +0.000 C 
BRANCH  14  16
ATOM     15  C   UNL     1       7.507   6.075  18.534  0.00  0.00    +0.000 C 
ATOM     16  C   UNL     1       7.006   6.761  17.294  0.00  0.00    +0.000 C 
ATOM     17  O   UNL     1       7.412   7.886  16.995  0.00  0.00    +0.000 OA
ENDBRANCH  14  16
ENDBRANCH  13  14
ENDBRANCH   1  13
TORSDOF 3
ENDMDL
MODEL 3
REMARK VINA RESULT:      -6.4      4.377      6.887
REMARK  Name = 
REMARK  4 active torsions:
REMARK  status: ('A' for Active; 'I' for Inactive)
REMARK    1  A    between atoms: C_1  and  C_2
REMARK    2  A    between atoms: C_2  and  C_4
REMARK    3  A    between atoms: C_4  and  O_5
REMARK    4  A    between atoms: O_5  and  C_6
REMARK                            x       y       z     vdW  Elec       q    Type
REMARK                         _______ _______ _______ _____ _____    ______ ____
ROOT
ATOM      1  C   UNL     1       5.398   4.359  16.181  0.00  0.00    +0.000 A 
ATOM      2  N   UNL     1       5.933   5.127  17.145  0.00  0.00    +0.000 NA
ATOM      3  C   UNL     1       6.992   5.845  16.765  0.00  0.00    +0.000 A 
ATOM      4  N   UNL     1       7.543   5.850  15.544  0.00  0.00    +0.000 NA
ATOM      5  C   UNL     1       6.988   5.076  14.589  0.00  0.00    +0.000 A 
ATOM      6  C   UNL     1       7.500   5.007  13.282  0.00  0.00    +0.000 A 
ATOM      7 CL   UNL     1       8.908   5.919  12.842  0.00  0.00    +0.000 Cl
ATOM      8  C   UNL     1       6.920   4.212  12.284  0.00  0.00    +0.000 A 
ATOM      9  C   UNL     1       5.799   3.456  12.583  0.00  0.00    +0.000 A 
ATOM     10 CL   UNL     1       5.067   2.483  11.372  0.00  0.00    +0.000 Cl
ATOM     11  C   UNL     1       5.269   3.487  13.865  0.00  0.00    +0.000 A 
ATOM     12  C   UNL     1       5.865   4.291  14.866  0.00  0.00    +0.000 A 
ENDROOT
BRANCH   1  13
ATOM     13  O   UNL     1       4.313   3.568  16.490  0.00  0.00    +0.000 OA
BRANCH  13  14
ATOM     14  C   UNL     1       3.829   3.706  17.819  0.00  0.00    +0.000 C 
BRANCH  14  16
ATOM     15  C   UNL     1       2.370   5.788  18.206  0.00  0.00    +0.000 C 
ATOM     16  C   UNL     1       2.455   4.359  17.749  0.00  0.00    +0.000 C 
ATOM     17  O   UNL     1       1.449   3.772  17.343  0.00  0.00    +0.000 OA
ENDBRANCH  14  16
ENDBRANCH  13  14
ENDBRANCH   1  13
TORSDOF 3
ENDMDL
MODEL 4
REMARK VINA RESULT:      -6.4      2.085      3.249
REMARK  Name = 
REMARK  4 active torsions:
REMARK  status: ('A' for Active; 'I' for Inactive)
REMARK    1  A    between atoms: C_1  and  C_2
REMARK    2  A    between atoms: C_2  and  C_4
REMARK    3  A    between atoms: C_4  and  O_5
REMARK    4  A    between atoms: O_5  and  C_6
REMARK                            x       y       z     vdW  Elec       q    Type
REMARK                         _______ _______ _______ _____ _____    ______ ____
ROOT
ATOM      1  C   UNL     1       4.401   5.866  17.221  0.00  0.00    +0.000 A 
ATOM      2  N   UNL     1       4.053   7.160  17.310  0.00  0.00    +0.000 NA
ATOM      3  C   UNL     1       3.035   7.410  18.136  0.00  0.00    +0.000 A 
ATOM      4  N   UNL     1       2.356   6.500  18.848  0.00  0.00    +0.000 NA
ATOM      5  C   UNL     1       2.725   5.206  18.748  0.00  0.00    +0.000 A 
ATOM      6  C   UNL     1       2.069   4.178  19.448  0.00  0.00    +0.000 A 
ATOM      7 CL   UNL     1       0.718   4.539  20.473  0.00  0.00    +0.000 Cl
ATOM      8  C   UNL     1       2.456   2.835  19.354  0.00  0.00    +0.000 A 
ATOM      9  C   UNL     1       3.524   2.489  18.543  0.00  0.00    +0.000 A 
ATOM     10 CL   UNL     1       4.020   0.849  18.423  0.00  0.00    +0.000 Cl
ATOM     11  C   UNL     1       4.191   3.472  17.826  0.00  0.00    +0.000 A 
ATOM     12  C   UNL     1       3.790   4.826  17.924  0.00  0.00    +0.000 A 
ENDROOT
BRANCH   1  13
ATOM     13  O   UNL     1       5.431   5.514  16.375  0.00  0.00    +0.000 OA
BRANCH  13  14
ATOM     14  C   UNL     1       6.667   6.165  16.632  0.00  0.00    +0.000 C 
BRANCH  14  16
ATOM     15  C   UNL     1       7.654   5.691  18.958  0.00  0.00    +0.000 C 
ATOM     16  C   UNL     1       7.496   5.255  17.528  0.00  0.00    +0.000 C 
ATOM     17  O   UNL     1       8.020   4.212  17.132  0.00  0.00    +0.000 OA
ENDBRANCH  14  16
ENDBRANCH  13  14
ENDBRANCH   1  13
TORSDOF 3
ENDMDL
MODEL 5
REMARK VINA RESULT:      -6.3      3.511      5.864
REMARK  Name = 
REMARK  4 active torsions:
REMARK  status: ('A' for Active; 'I' for Inactive)
REMARK    1  A    between atoms: C_1  and  C_2
REMARK    2  A    between atoms: C_2  and  C_4
REMARK    3  A    between atoms: C_4  and  O_5
REMARK    4  A    between atoms: O_5  and  C_6
REMARK                            x       y       z     vdW  Elec       q    Type
REMARK                         _______ _______ _______ _____ _____    ______ ____
ROOT
ATOM      1  C   UNL     1       3.686   4.069  17.924  0.00  0.00    +0.000 A 
ATOM      2  N   UNL     1       3.448   4.590  19.139  0.00  0.00    +0.000 NA
ATOM      3  C   UNL     1       4.295   5.553  19.510  0.00  0.00    +0.000 A 
ATOM      4  N   UNL     1       5.328   6.014  18.792  0.00  0.00    +0.000 NA
ATOM      5  C   UNL     1       5.547   5.481  17.573  0.00  0.00    +0.000 A 
ATOM      6  C   UNL     1       6.610   5.891  16.749  0.00  0.00    +0.000 A 
ATOM      7 CL   UNL     1       7.717   7.111  17.290  0.00  0.00    +0.000 Cl
ATOM      8  C   UNL     1       6.834   5.347  15.478  0.00  0.00    +0.000 A 
ATOM      9  C   UNL     1       5.985   4.363  14.999  0.00  0.00    +0.000 A 
ATOM     10 CL   UNL     1       6.237   3.690  13.439  0.00  0.00    +0.000 Cl
ATOM     11  C   UNL     1       4.930   3.921  15.786  0.00  0.00    +0.000 A 
ATOM     12  C   UNL     1       4.715   4.475  17.070  0.00  0.00    +0.000 A 
ENDROOT
BRANCH   1  13
ATOM     13  O   UNL     1       2.873   3.055  17.467  0.00  0.00    +0.000 OA
BRANCH  13  14
ATOM     14  C   UNL     1       2.650   2.002  18.395  0.00  0.00    +0.000 C 
BRANCH  14  16
ATOM     15  C   UNL     1       1.264   2.554  20.490  0.00  0.00    +0.000 C 
ATOM     16  C   UNL     1       1.281   2.218  19.024  0.00  0.00    +0.000 C 
ATOM     17  O   UNL     1       0.225   2.130  18.393  0.00  0.00    +0.000 OA
ENDBRANCH  14  16
ENDBRANCH  13  14
ENDBRANCH   1  13
TORSDOF 3
ENDMDL
MODEL 6
REMARK VINA RESULT:      -6.3      1.747      2.182
REMARK  Name = 
REMARK  4 active torsions:
REMARK  status: ('A' for Active; 'I' for Inactive)
REMARK    1  A    between atoms: C_1  and  C_2
REMARK    2  A    between atoms: C_2  and  C_4
REMARK    3  A    between atoms: C_4  and  O_5
REMARK    4  A    between atoms: O_5  and  C_6
REMARK                            x       y       z     vdW  Elec       q    Type
REMARK                         _______ _______ _______ _____ _____    ______ ____
ROOT
ATOM      1  C   UNL     1       4.618   4.941  16.994  0.00  0.00    +0.000 A 
ATOM      2  N   UNL     1       4.824   3.631  17.204  0.00  0.00    +0.000 NA
ATOM      3  C   UNL     1       4.115   3.107  18.205  0.00  0.00    +0.000 A 
ATOM      4  N   UNL     1       3.252   3.767  18.990  0.00  0.00    +0.000 NA
ATOM      5  C   UNL     1       3.057   5.082  18.760  0.00  0.00    +0.000 A 
ATOM      6  C   UNL     1       2.180   5.862  19.535  0.00  0.00    +0.000 A 
ATOM      7 CL   UNL     1       1.314   5.153  20.859  0.00  0.00    +0.000 Cl
ATOM      8  C   UNL     1       1.967   7.225  19.291  0.00  0.00    +0.000 A 
ATOM      9  C   UNL     1       2.639   7.844  18.251  0.00  0.00    +0.000 A 
ATOM     10 CL   UNL     1       2.383   9.512  17.930  0.00  0.00    +0.000 Cl
ATOM     11  C   UNL     1       3.522   7.113  17.469  0.00  0.00    +0.000 A 
ATOM     12  C   UNL     1       3.734   5.737  17.726  0.00  0.00    +0.000 A 
ENDROOT
BRANCH   1  13
ATOM     13  O   UNL     1       5.325   5.571  15.991  0.00  0.00    +0.000 OA
BRANCH  13  14
ATOM     14  C   UNL     1       6.684   5.173  15.876  0.00  0.00    +0.000 C 
BRANCH  14  16
ATOM     15  C   UNL     1       6.146   3.890  13.712  0.00  0.00    +0.000 C 
ATOM     16  C   UNL     1       6.976   4.938  14.400  0.00  0.00    +0.000 C 
ATOM     17  O   UNL     1       7.840   5.558  13.775  0.00  0.00    +0.000 OA
ENDBRANCH  14  16
ENDBRANCH  13  14
ENDBRANCH   1  13
TORSDOF 3
ENDMDL
MODEL 7
REMARK VINA RESULT:      -6.3      1.583      1.830
REMARK  Name = 
REMARK  4 active torsions:
REMARK  status: ('A' for Active; 'I' for Inactive)
REMARK    1  A    between atoms: C_1  and  C_2
REMARK    2  A    between atoms: C_2  and  C_4
REMARK    3  A    between atoms: C_4  and  O_5
REMARK    4  A    between atoms: O_5  and  C_6
REMARK                            x       y       z     vdW  Elec       q    Type
REMARK                         _______ _______ _______ _____ _____    ______ ____
ROOT
ATOM      1  C   UNL     1       4.693   4.967  16.916  0.00  0.00    +0.000 A 
ATOM      2  N   UNL     1       4.898   3.646  17.044  0.00  0.00    +0.000 NA
ATOM      3  C   UNL     1       4.156   3.052  17.980  0.00  0.00    +0.000 A 
ATOM      4  N   UNL     1       3.262   3.654  18.776  0.00  0.00    +0.000 NA
ATOM      5  C   UNL     1       3.067   4.981  18.629  0.00  0.00    +0.000 A 
ATOM      6  C   UNL     1       2.158   5.703  19.422  0.00  0.00    +0.000 A 
ATOM      7 CL   UNL     1       1.248   4.902  20.662  0.00  0.00    +0.000 Cl
ATOM      8  C   UNL     1       1.945   7.079  19.265  0.00  0.00    +0.000 A 
ATOM      9  C   UNL     1       2.652   7.770  18.295  0.00  0.00    +0.000 A 
ATOM     10 CL   UNL     1       2.398   9.455  18.079  0.00  0.00    +0.000 Cl
ATOM     11  C   UNL     1       3.567   7.097  17.498  0.00  0.00    +0.000 A 
ATOM     12  C   UNL     1       3.777   5.708  17.668  0.00  0.00    +0.000 A 
ENDROOT
BRANCH   1  13
ATOM     13  O   UNL     1       5.431   5.666  15.986  0.00  0.00    +0.000 OA
BRANCH  13  14
ATOM     14  C   UNL     1       6.840   5.561  16.139  0.00  0.00    +0.000 C 
BRANCH  14  16
ATOM     15  C   UNL     1       7.678   6.015  18.527  0.00  0.00    +0.000 C 
ATOM     16  C   UNL     1       7.271   6.573  17.192  0.00  0.00    +0.000 C 
ATOM     17  O   UNL     1       7.296   7.789  16.989  0.00  0.00    +0.000 OA
ENDBRANCH  14  16
ENDBRANCH  13  14
ENDBRANCH   1  13
TORSDOF 3
ENDMDL
MODEL 8
REMARK VINA RESULT:      -6.2      3.279      5.074
REMARK  Name = 
REMARK  4 active torsions:
REMARK  status: ('A' for Active; 'I' for Inactive)
REMARK    1  A    between atoms: C_1  and  C_2
REMARK    2  A    between atoms: C_2  and  C_4
REMARK    3  A    between atoms: C_4  and  O_5
REMARK    4  A    between atoms: O_5  and  C_6
REMARK                            x       y       z     vdW  Elec       q    Type
REMARK                         _______ _______ _______ _____ _____    ______ ____
ROOT
ATOM      1  C   UNL     1       2.372   6.185  19.745  0.00  0.00    +0.000 A 
ATOM      2  N   UNL     1       1.657   5.672  20.759  0.00  0.00    +0.000 NA
ATOM      3  C   UNL     1       1.639   4.338  20.811  0.00  0.00    +0.000 A 
ATOM      4  N   UNL     1       2.251   3.507  19.956  0.00  0.00    +0.000 NA
ATOM      5  C   UNL     1       2.968   4.044  18.947  0.00  0.00    +0.000 A 
ATOM      6  C   UNL     1       3.637   3.256  17.994  0.00  0.00    +0.000 A 
ATOM      7 CL   UNL     1       3.548   1.525  18.069  0.00  0.00    +0.000 Cl
ATOM      8  C   UNL     1       4.391   3.809  16.951  0.00  0.00    +0.000 A 
ATOM      9  C   UNL     1       4.489   5.186  16.839  0.00  0.00    +0.000 A 
ATOM     10 CL   UNL     1       5.417   5.884  15.573  0.00  0.00    +0.000 Cl
ATOM     11  C   UNL     1       3.834   6.000  17.752  0.00  0.00    +0.000 A 
ATOM     12  C   UNL     1       3.072   5.431  18.800  0.00  0.00    +0.000 A 
ENDROOT
BRANCH   1  13
ATOM     13  O   UNL     1       2.429   7.555  19.601  0.00  0.00    +0.000 OA
BRANCH  13  14
ATOM     14  C   UNL     1       1.431   8.274  20.312  0.00  0.00    +0.000 C 
BRANCH  14  16
ATOM     15  C   UNL     1       1.299   9.397  18.003  0.00  0.00    +0.000 C 
ATOM     16  C   UNL     1       1.056   9.495  19.483  0.00  0.00    +0.000 C 
ATOM     17  O   UNL     1       0.577  10.521  19.971  0.00  0.00    +0.000 OA
ENDBRANCH  14  16
ENDBRANCH  13  14
ENDBRANCH   1  13
TORSDOF 3
ENDMDL
MODEL 9
REMARK VINA RESULT:      -6.2      1.195      1.362
REMARK  Name = 
REMARK  4 active torsions:
REMARK  status: ('A' for Active; 'I' for Inactive)
REMARK    1  A    between atoms: C_1  and  C_2
REMARK    2  A    between atoms: C_2  and  C_4
REMARK    3  A    between atoms: C_4  and  O_5
REMARK    4  A    between atoms: O_5  and  C_6
REMARK                            x       y       z     vdW  Elec       q    Type
REMARK                         _______ _______ _______ _____ _____    ______ ____
ROOT
ATOM      1  C   UNL     1       4.542   4.285  16.936  0.00  0.00    +0.000 A 
ATOM      2  N   UNL     1       4.626   2.951  17.067  0.00  0.00    +0.000 NA
ATOM      3  C   UNL     1       3.831   2.430  18.004  0.00  0.00    +0.000 A 
ATOM      4  N   UNL     1       2.994   3.113  18.797  0.00  0.00    +0.000 NA
ATOM      5  C   UNL     1       2.921   4.452  18.646  0.00  0.00    +0.000 A 
ATOM      6  C   UNL     1       2.081   5.256  19.435  0.00  0.00    +0.000 A 
ATOM      7 CL   UNL     1       1.100   4.545  20.676  0.00  0.00    +0.000 Cl
ATOM      8  C   UNL     1       1.995   6.645  19.274  0.00  0.00    +0.000 A 
ATOM      9  C   UNL     1       2.763   7.266  18.303  0.00  0.00    +0.000 A 
ATOM     10 CL   UNL     1       2.665   8.967  18.083  0.00  0.00    +0.000 Cl
ATOM     11  C   UNL     1       3.614   6.510  17.510  0.00  0.00    +0.000 A 
ATOM     12  C   UNL     1       3.697   5.108  17.684  0.00  0.00    +0.000 A 
ENDROOT
BRANCH   1  13
ATOM     13  O   UNL     1       5.343   4.911  16.005  0.00  0.00    +0.000 OA
BRANCH  13  14
ATOM     14  C   UNL     1       6.707   4.515  16.027  0.00  0.00    +0.000 C 
BRANCH  14  16
ATOM     15  C   UNL     1       7.345   6.622  17.357  0.00  0.00    +0.000 C 
ATOM     16  C   UNL     1       7.349   5.121  17.267  0.00  0.00    +0.000 C 
ATOM     17  O   UNL     1       7.852   4.444  18.167  0.00  0.00    +0.000 OA
ENDBRANCH  14  16
ENDBRANCH  13  14
ENDBRANCH   1  13
TORSDOF 3
ENDMDL
