MODEL 1
REMARK VINA RESULT:      -6.6      0.000      0.000
REMARK  Name = 
REMARK  6 active torsions:
REMARK  status: ('A' for Active; 'I' for Inactive)
REMARK    1  A    between atoms: C_1  and  C_2
REMARK    2  A    between atoms: C_2  and  C_3
REMARK    3  A    between atoms: C_2  and  N_4
REMARK    4  A    between atoms: N_9  and  C_10
REMARK    5  A    between atoms: N_19  and  C_20
REMARK    6  A    between atoms: C_25  and  N_26
REMARK                            x       y       z     vdW  Elec       q    Type
REMARK                         _______ _______ _______ _____ _____    ______ ____
ROOT
ATOM      1  N   UNL     1       0.048  10.781  19.431  0.00  0.00    +0.000 N 
ATOM      2  C   UNL     1       0.079  10.014  20.578  0.00  0.00    +0.000 A 
ATOM      3  C   UNL     1      -0.184  10.836  21.650  0.00  0.00    +0.000 A 
ATOM      4  C   UNL     1      -0.359  12.154  21.147  0.00  0.00    +0.000 A 
ATOM      5  C   UNL     1      -0.700  13.398  21.694  0.00  0.00    +0.000 A 
ATOM      6  N   UNL     1      -0.889  13.587  23.065  0.00  0.00    +0.000 N 
ATOM      7  N   UNL     1      -0.808  14.451  20.850  0.00  0.00    +0.000 NA
ATOM      8  C   UNL     1      -0.530  14.308  19.549  0.00  0.00    +0.000 A 
ATOM      9  N   UNL     1      -0.491  15.442  18.736  0.00  0.00    +0.000 N 
ATOM     10  N   UNL     1      -0.227  13.151  18.933  0.00  0.00    +0.000 NA
ATOM     11  C   UNL     1      -0.176  12.099  19.771  0.00  0.00    +0.000 A 
ATOM     12  H   UNL     1      -0.312  13.003  23.651  0.00  0.00    +0.000 HD
ATOM     13  H   UNL     1       0.022  15.197  17.898  0.00  0.00    +0.000 HD
ENDROOT
BRANCH   6  14
ATOM     14  C   UNL     1      -1.803  14.428  23.719  0.00  0.00    +0.000 A 
ATOM     15  C   UNL     1      -1.400  15.356  24.689  0.00  0.00    +0.000 A 
ATOM     16  C   UNL     1      -2.329  16.169  25.345  0.00  0.00    +0.000 A 
ATOM     17  C   UNL     1      -3.685  16.042  25.058  0.00  0.00    +0.000 A 
ATOM     18  C   UNL     1      -4.100  15.104  24.116  0.00  0.00    +0.000 A 
ATOM     19 CL   UNL     1      -5.778  14.927  23.776  0.00  0.00    +0.000 Cl
ATOM     20  C   UNL     1      -3.172  14.305  23.447  0.00  0.00    +0.000 A 
ENDBRANCH   6  14
BRANCH   9  21
ATOM     21  C   UNL     1      -0.139  16.727  19.376  0.00  0.00    +0.000 C 
ATOM     22  C   UNL     1       1.334  17.123  19.159  0.00  0.00    +0.000 C 
ATOM     23  C   UNL     1       1.650  17.471  17.707  0.00  0.00    +0.000 C 
ATOM     24  C   UNL     1       0.742  18.579  17.188  0.00  0.00    +0.000 C 
ATOM     25  C   UNL     1      -0.734  18.238  17.376  0.00  0.00    +0.000 C 
ATOM     26  C   UNL     1      -1.057  17.877  18.837  0.00  0.00    +0.000 C 
BRANCH  26  27
ATOM     27  N   UNL     1      -2.486  17.558  18.964  0.00  0.00    +0.000 NA
ATOM     28  H   UNL     1      -2.675  17.319  19.940  0.00  0.00    +0.000 HD
ATOM     29  H   UNL     1      -2.722  16.747  18.399  0.00  0.00    +0.000 HD
ENDBRANCH  26  27
ENDBRANCH   9  21
BRANCH   1  31
ATOM     30  C   UNL     1       1.222   9.117  18.001  0.00  0.00    +0.000 C 
ATOM     31  C   UNL     1       0.156  10.210  18.091  0.00  0.00    +0.000 C 
ATOM     32  C   UNL     1      -1.186   9.751  17.526  0.00  0.00    +0.000 C 
ENDBRANCH   1  31
TORSDOF 4
ENDMDL
MODEL 2
REMARK VINA RESULT:      -6.4      4.046      7.564
REMARK  Name = 
REMARK  6 active torsions:
REMARK  status: ('A' for Active; 'I' for Inactive)
REMARK    1  A    between atoms: C_1  and  C_2
REMARK    2  A    between atoms: C_2  and  C_3
REMARK    3  A    between atoms: C_2  and  N_4
REMARK    4  A    between atoms: N_9  and  C_10
REMARK    5  A    between atoms: N_19  and  C_20
REMARK    6  A    between atoms: C_25  and  N_26
REMARK                            x       y       z     vdW  Elec       q    Type
REMARK                         _______ _______ _______ _____ _____    ______ ____
ROOT
ATOM      1  N   UNL     1       1.014  14.903  19.684  0.00  0.00    +0.000 N 
ATOM      2  C   UNL     1       1.915  14.644  20.698  0.00  0.00    +0.000 A 
ATOM      3  C   UNL     1       2.004  13.280  20.853  0.00  0.00    +0.000 A 
ATOM      4  C   UNL     1       1.112  12.683  19.921  0.00  0.00    +0.000 A 
ATOM      5  C   UNL     1       0.788  11.373  19.542  0.00  0.00    +0.000 A 
ATOM      6  N   UNL     1       1.335  10.253  20.173  0.00  0.00    +0.000 N 
ATOM      7  N   UNL     1      -0.119  11.209  18.550  0.00  0.00    +0.000 NA
ATOM      8  C   UNL     1      -0.727  12.269  18.006  0.00  0.00    +0.000 A 
ATOM      9  N   UNL     1      -1.772  12.061  17.104  0.00  0.00    +0.000 N 
ATOM     10  N   UNL     1      -0.458  13.558  18.284  0.00  0.00    +0.000 NA
ATOM     11  C   UNL     1       0.484  13.712  19.232  0.00  0.00    +0.000 A 
ATOM     12  H   UNL     1       1.531  10.381  21.154  0.00  0.00    +0.000 HD
ATOM     13  H   UNL     1      -2.297  12.924  17.044  0.00  0.00    +0.000 HD
ENDROOT
BRANCH   6  14
ATOM     14  C   UNL     1       1.694   9.017  19.615  0.00  0.00    +0.000 A 
ATOM     15  C   UNL     1       1.992   8.873  18.252  0.00  0.00    +0.000 A 
ATOM     16  C   UNL     1       2.326   7.628  17.711  0.00  0.00    +0.000 A 
ATOM     17  C   UNL     1       2.339   6.499  18.525  0.00  0.00    +0.000 A 
ATOM     18  C   UNL     1       2.018   6.626  19.875  0.00  0.00    +0.000 A 
ATOM     19 CL   UNL     1       2.008   5.229  20.880  0.00  0.00    +0.000 Cl
ATOM     20  C   UNL     1       1.703   7.871  20.420  0.00  0.00    +0.000 A 
ENDBRANCH   6  14
BRANCH   9  21
ATOM     21  C   UNL     1      -2.557  10.817  17.247  0.00  0.00    +0.000 C 
ATOM     22  C   UNL     1      -3.334  10.746  18.576  0.00  0.00    +0.000 C 
ATOM     23  C   UNL     1      -4.465  11.768  18.661  0.00  0.00    +0.000 C 
ATOM     24  C   UNL     1      -5.435  11.625  17.495  0.00  0.00    +0.000 C 
ATOM     25  C   UNL     1      -4.717  11.691  16.149  0.00  0.00    +0.000 C 
ATOM     26  C   UNL     1      -3.570  10.669  16.061  0.00  0.00    +0.000 C 
BRANCH  26  27
ATOM     27  N   UNL     1      -2.914  10.773  14.749  0.00  0.00    +0.000 NA
ATOM     28  H   UNL     1      -3.420  11.464  14.192  0.00  0.00    +0.000 HD
ATOM     29  H   UNL     1      -2.964   9.885  14.254  0.00  0.00    +0.000 HD
ENDBRANCH  26  27
ENDBRANCH   9  21
BRANCH   1  31
ATOM     30  C   UNL     1       0.377  17.240  20.254  0.00  0.00    +0.000 C 
ATOM     31  C   UNL     1       0.771  16.246  19.162  0.00  0.00    +0.000 C 
ATOM     32  C   UNL     1       1.916  16.767  18.297  0.00  0.00    +0.000 C 
ENDBRANCH   1  31
TORSDOF 4
ENDMDL
MODEL 3
REMARK VINA RESULT:      -6.4      1.490      1.929
REMARK  Name = 
REMARK  6 active torsions:
REMARK  status: ('A' for Active; 'I' for Inactive)
REMARK    1  A    between atoms: C_1  and  C_2
REMARK    2  A    between atoms: C_2  and  C_3
REMARK    3  A    between atoms: C_2  and  N_4
REMARK    4  A    between atoms: N_9  and  C_10
REMARK    5  A    between atoms: N_19  and  C_20
REMARK    6  A    between atoms: C_25  and  N_26
REMARK                            x       y       z     vdW  Elec       q    Type
REMARK                         _______ _______ _______ _____ _____    ______ ____
ROOT
ATOM      1  N   UNL     1       1.112   9.407  20.307  0.00  0.00    +0.000 N 
ATOM      2  C   UNL     1       0.670   8.631  21.360  0.00  0.00    +0.000 A 
ATOM      3  C   UNL     1      -0.067   9.432  22.201  0.00  0.00    +0.000 A 
ATOM      4  C   UNL     1      -0.058  10.747  21.660  0.00  0.00    +0.000 A 
ATOM      5  C   UNL     1      -0.652  11.971  21.992  0.00  0.00    +0.000 A 
ATOM      6  N   UNL     1      -1.428  12.140  23.142  0.00  0.00    +0.000 N 
ATOM      7  N   UNL     1      -0.422  13.027  21.176  0.00  0.00    +0.000 NA
ATOM      8  C   UNL     1       0.401  12.907  20.128  0.00  0.00    +0.000 A 
ATOM      9  N   UNL     1       0.745  14.048  19.404  0.00  0.00    +0.000 N 
ATOM     10  N   UNL     1       0.988  11.768  19.718  0.00  0.00    +0.000 NA
ATOM     11  C   UNL     1       0.710  10.712  20.503  0.00  0.00    +0.000 A 
ATOM     12  H   UNL     1      -1.142  11.574  23.926  0.00  0.00    +0.000 HD
ATOM     13  H   UNL     1       1.582  13.832  18.876  0.00  0.00    +0.000 HD
ENDROOT
BRANCH   6  14
ATOM     14  C   UNL     1      -2.569  12.938  23.323  0.00  0.00    +0.000 A 
ATOM     15  C   UNL     1      -2.567  14.061  24.162  0.00  0.00    +0.000 A 
ATOM     16  C   UNL     1      -3.720  14.830  24.346  0.00  0.00    +0.000 A 
ATOM     17  C   UNL     1      -4.904  14.465  23.713  0.00  0.00    +0.000 A 
ATOM     18  C   UNL     1      -4.925  13.336  22.899  0.00  0.00    +0.000 A 
ATOM     19 CL   UNL     1      -6.393  12.867  22.133  0.00  0.00    +0.000 Cl
ATOM     20  C   UNL     1      -3.770  12.578  22.699  0.00  0.00    +0.000 A 
ENDBRANCH   6  14
BRANCH   9  21
ATOM     21  C   UNL     1       0.732  15.341  20.121  0.00  0.00    +0.000 C 
ATOM     22  C   UNL     1       2.016  16.164  19.902  0.00  0.00    +0.000 C 
ATOM     23  C   UNL     1       2.161  16.673  18.471  0.00  0.00    +0.000 C 
ATOM     24  C   UNL     1       0.950  17.494  18.045  0.00  0.00    +0.000 C 
ATOM     25  C   UNL     1      -0.354  16.724  18.239  0.00  0.00    +0.000 C 
ATOM     26  C   UNL     1      -0.502  16.200  19.679  0.00  0.00    +0.000 C 
BRANCH  26  27
ATOM     27  N   UNL     1      -1.770  15.469  19.812  0.00  0.00    +0.000 NA
ATOM     28  H   UNL     1      -1.604  14.492  19.560  0.00  0.00    +0.000 HD
ATOM     29  H   UNL     1      -2.464  15.838  19.167  0.00  0.00    +0.000 HD
ENDBRANCH  26  27
ENDBRANCH   9  21
BRANCH   1  31
ATOM     30  C   UNL     1       2.248   7.401  19.369  0.00  0.00    +0.000 C 
ATOM     31  C   UNL     1       1.817   8.852  19.154  0.00  0.00    +0.000 C 
ATOM     32  C   UNL     1       1.057   9.038  17.843  0.00  0.00    +0.000 C 
ENDBRANCH   1  31
TORSDOF 4
ENDMDL
MODEL 4
REMARK VINA RESULT:      -6.4      1.543      2.224
REMARK  Name = 
REMARK  6 active torsions:
REMARK  status: ('A' for Active; 'I' for Inactive)
REMARK    1  A    between atoms: C_1  and  C_2
REMARK    2  A    between atoms: C_2  and  C_3
REMARK    3  A    between atoms: C_2  and  N_4
REMARK    4  A    between atoms: N_9  and  C_10
REMARK    5  A    between atoms: N_19  and  C_20
REMARK    6  A    between atoms: C_25  and  N_26
REMARK                            x       y       z     vdW  Elec       q    Type
REMARK                         _______ _______ _______ _____ _____    ______ ____
ROOT
ATOM      1  N   UNL     1       1.095   9.321  20.327  0.00  0.00    +0.000 N 
ATOM      2  C   UNL     1       0.596   8.533  21.344  0.00  0.00    +0.000 A 
ATOM      3  C   UNL     1      -0.178   9.326  22.160  0.00  0.00    +0.000 A 
ATOM      4  C   UNL     1      -0.133  10.648  21.641  0.00  0.00    +0.000 A 
ATOM      5  C   UNL     1      -0.735  11.872  21.961  0.00  0.00    +0.000 A 
ATOM      6  N   UNL     1      -1.567  12.029  23.073  0.00  0.00    +0.000 N 
ATOM      7  N   UNL     1      -0.458  12.938  21.174  0.00  0.00    +0.000 NA
ATOM      8  C   UNL     1       0.415  12.828  20.167  0.00  0.00    +0.000 A 
ATOM      9  N   UNL     1       0.803  13.978  19.478  0.00  0.00    +0.000 N 
ATOM     10  N   UNL     1       1.016  11.692  19.769  0.00  0.00    +0.000 NA
ATOM     11  C   UNL     1       0.692  10.626  20.523  0.00  0.00    +0.000 A 
ATOM     12  H   UNL     1      -1.324  11.449  23.862  0.00  0.00    +0.000 HD
ATOM     13  H   UNL     1       1.663  13.764  18.990  0.00  0.00    +0.000 HD
ENDROOT
BRANCH   6  14
ATOM     14  C   UNL     1      -2.710  12.831  23.210  0.00  0.00    +0.000 A 
ATOM     15  C   UNL     1      -3.898  12.561  22.515  0.00  0.00    +0.000 A 
ATOM     16  C   UNL     1      -5.019  13.385  22.648  0.00  0.00    +0.000 A 
ATOM     17  C   UNL     1      -4.957  14.514  23.460  0.00  0.00    +0.000 A 
ATOM     18  C   UNL     1      -3.774  14.807  24.134  0.00  0.00    +0.000 A 
ATOM     19 CL   UNL     1      -3.684  16.215  25.120  0.00  0.00    +0.000 Cl
ATOM     20  C   UNL     1      -2.659  13.975  24.017  0.00  0.00    +0.000 A 
ENDBRANCH   6  14
BRANCH   9  21
ATOM     21  C   UNL     1       0.761  15.260  20.214  0.00  0.00    +0.000 C 
ATOM     22  C   UNL     1       2.065  16.071  20.083  0.00  0.00    +0.000 C 
ATOM     23  C   UNL     1       2.298  16.600  18.670  0.00  0.00    +0.000 C 
ATOM     24  C   UNL     1       1.122  17.442  18.189  0.00  0.00    +0.000 C 
ATOM     25  C   UNL     1      -0.199  16.684  18.294  0.00  0.00    +0.000 C 
ATOM     26  C   UNL     1      -0.435  16.140  19.715  0.00  0.00    +0.000 C 
BRANCH  26  27
ATOM     27  N   UNL     1      -1.716  15.421  19.763  0.00  0.00    +0.000 NA
ATOM     28  H   UNL     1      -1.524  14.419  19.698  0.00  0.00    +0.000 HD
ATOM     29  H   UNL     1      -2.297  15.674  18.967  0.00  0.00    +0.000 HD
ENDBRANCH  26  27
ENDBRANCH   9  21
BRANCH   1  31
ATOM     30  C   UNL     1       2.277   7.326  19.422  0.00  0.00    +0.000 C 
ATOM     31  C   UNL     1       1.853   8.779  19.202  0.00  0.00    +0.000 C 
ATOM     32  C   UNL     1       1.154   8.977  17.859  0.00  0.00    +0.000 C 
ENDBRANCH   1  31
TORSDOF 4
ENDMDL
MODEL 5
REMARK VINA RESULT:      -6.4      3.431      5.350
REMARK  Name = 
REMARK  6 active torsions:
REMARK  status: ('A' for Active; 'I' for Inactive)
REMARK    1  A    between atoms: C_1  and  C_2
REMARK    2  A    between atoms: C_2  and  C_3
REMARK    3  A    between atoms: C_2  and  N_4
REMARK    4  A    between atoms: N_9  and  C_10
REMARK    5  A    between atoms: N_19  and  C_20
REMARK    6  A    between atoms: C_25  and  N_26
REMARK                            x       y       z     vdW  Elec       q    Type
REMARK                         _______ _______ _______ _____ _____    ______ ____
ROOT
ATOM      1  N   UNL     1      -6.980  12.109  21.446  0.00  0.00    +0.000 N 
ATOM      2  C   UNL     1      -7.612  12.097  22.673  0.00  0.00    +0.000 A 
ATOM      3  C   UNL     1      -6.781  12.702  23.588  0.00  0.00    +0.000 A 
ATOM      4  C   UNL     1      -5.591  13.075  22.906  0.00  0.00    +0.000 A 
ATOM      5  C   UNL     1      -4.417  13.762  23.242  0.00  0.00    +0.000 A 
ATOM      6  N   UNL     1      -4.154  14.205  24.540  0.00  0.00    +0.000 N 
ATOM      7  N   UNL     1      -3.498  13.958  22.266  0.00  0.00    +0.000 NA
ATOM      8  C   UNL     1      -3.690  13.451  21.044  0.00  0.00    +0.000 A 
ATOM      9  N   UNL     1      -2.657  13.528  20.109  0.00  0.00    +0.000 N 
ATOM     10  N   UNL     1      -4.795  12.808  20.624  0.00  0.00    +0.000 NA
ATOM     11  C   UNL     1      -5.725  12.665  21.586  0.00  0.00    +0.000 A 
ATOM     12  H   UNL     1      -4.532  13.617  25.268  0.00  0.00    +0.000 HD
ATOM     13  H   UNL     1      -2.850  12.847  19.386  0.00  0.00    +0.000 HD
ENDROOT
BRANCH   6  14
ATOM     14  C   UNL     1      -3.494  15.373  24.954  0.00  0.00    +0.000 A 
ATOM     15  C   UNL     1      -3.984  16.652  24.654  0.00  0.00    +0.000 A 
ATOM     16  C   UNL     1      -3.301  17.803  25.056  0.00  0.00    +0.000 A 
ATOM     17  C   UNL     1      -2.097  17.689  25.743  0.00  0.00    +0.000 A 
ATOM     18  C   UNL     1      -1.587  16.424  26.024  0.00  0.00    +0.000 A 
ATOM     19 CL   UNL     1      -0.085  16.278  26.852  0.00  0.00    +0.000 Cl
ATOM     20  C   UNL     1      -2.277  15.274  25.639  0.00  0.00    +0.000 A 
ENDBRANCH   6  14
BRANCH   9  21
ATOM     21  C   UNL     1      -1.272  13.571  20.625  0.00  0.00    +0.000 C 
ATOM     22  C   UNL     1      -0.748  12.187  21.056  0.00  0.00    +0.000 C 
ATOM     23  C   UNL     1      -0.548  11.234  19.881  0.00  0.00    +0.000 C 
ATOM     24  C   UNL     1       0.383  11.829  18.832  0.00  0.00    +0.000 C 
ATOM     25  C   UNL     1      -0.091  13.203  18.366  0.00  0.00    +0.000 C 
ATOM     26  C   UNL     1      -0.303  14.167  19.548  0.00  0.00    +0.000 C 
BRANCH  26  27
ATOM     27  N   UNL     1      -0.758  15.472  19.047  0.00  0.00    +0.000 NA
ATOM     28  H   UNL     1      -0.284  15.657  18.160  0.00  0.00    +0.000 HD
ATOM     29  H   UNL     1      -0.497  16.212  19.694  0.00  0.00    +0.000 HD
ENDBRANCH  26  27
ENDBRANCH   9  21
BRANCH   1  31
ATOM     30  C   UNL     1      -7.618  12.737  19.124  0.00  0.00    +0.000 C 
ATOM     31  C   UNL     1      -7.630  11.665  20.214  0.00  0.00    +0.000 C 
ATOM     32  C   UNL     1      -7.101  10.325  19.709  0.00  0.00    +0.000 C 
ENDBRANCH   1  31
TORSDOF 4
ENDMDL
MODEL 6
REMARK VINA RESULT:      -6.3      4.053      7.010
REMARK  Name = 
REMARK  6 active torsions:
REMARK  status: ('A' for Active; 'I' for Inactive)
REMARK    1  A    between atoms: C_1  and  C_2
REMARK    2  A    between atoms: C_2  and  C_3
REMARK    3  A    between atoms: C_2  and  N_4
REMARK    4  A    between atoms: N_9  and  C_10
REMARK    5  A    between atoms: N_19  and  C_20
REMARK    6  A    between atoms: C_25  and  N_26
REMARK                            x       y       z     vdW  Elec       q    Type
REMARK                         _______ _______ _______ _____ _____    ______ ____
ROOT
ATOM      1  N   UNL     1      -6.675  11.174  19.844  0.00  0.00    +0.000 N 
ATOM      2  C   UNL     1      -6.558  10.757  18.534  0.00  0.00    +0.000 A 
ATOM      3  C   UNL     1      -5.308  11.112  18.081  0.00  0.00    +0.000 A 
ATOM      4  C   UNL     1      -4.645  11.790  19.139  0.00  0.00    +0.000 A 
ATOM      5  C   UNL     1      -3.369  12.333  19.337  0.00  0.00    +0.000 A 
ATOM      6  N   UNL     1      -2.400  12.357  18.330  0.00  0.00    +0.000 N 
ATOM      7  N   UNL     1      -3.097  12.884  20.544  0.00  0.00    +0.000 NA
ATOM      8  C   UNL     1      -4.046  12.960  21.483  0.00  0.00    +0.000 A 
ATOM      9  N   UNL     1      -3.785  13.676  22.652  0.00  0.00    +0.000 N 
ATOM     10  N   UNL     1      -5.284  12.441  21.393  0.00  0.00    +0.000 NA
ATOM     11  C   UNL     1      -5.527  11.847  20.211  0.00  0.00    +0.000 A 
ATOM     12  H   UNL     1      -2.770  12.457  17.397  0.00  0.00    +0.000 HD
ATOM     13  H   UNL     1      -4.677  13.888  23.084  0.00  0.00    +0.000 HD
ENDROOT
BRANCH   6  14
ATOM     14  C   UNL     1      -1.010  12.205  18.444  0.00  0.00    +0.000 A 
ATOM     15  C   UNL     1      -0.135  13.299  18.407  0.00  0.00    +0.000 A 
ATOM     16  C   UNL     1       1.249  13.125  18.499  0.00  0.00    +0.000 A 
ATOM     17  C   UNL     1       1.780  11.843  18.602  0.00  0.00    +0.000 A 
ATOM     18  C   UNL     1       0.922  10.746  18.613  0.00  0.00    +0.000 A 
ATOM     19 CL   UNL     1       1.575   9.156  18.715  0.00  0.00    +0.000 Cl
ATOM     20  C   UNL     1      -0.461  10.920  18.539  0.00  0.00    +0.000 A 
ENDBRANCH   6  14
BRANCH   9  21
ATOM     21  C   UNL     1      -2.811  14.785  22.570  0.00  0.00    +0.000 C 
ATOM     22  C   UNL     1      -3.428  16.154  22.914  0.00  0.00    +0.000 C 
ATOM     23  C   UNL     1      -3.823  16.277  24.383  0.00  0.00    +0.000 C 
ATOM     24  C   UNL     1      -2.640  16.004  25.304  0.00  0.00    +0.000 C 
ATOM     25  C   UNL     1      -1.991  14.654  25.008  0.00  0.00    +0.000 C 
ATOM     26  C   UNL     1      -1.598  14.521  23.525  0.00  0.00    +0.000 C 
BRANCH  26  27
ATOM     27  N   UNL     1      -0.978  13.209  23.293  0.00  0.00    +0.000 NA
ATOM     28  H   UNL     1       0.025  13.349  23.153  0.00  0.00    +0.000 HD
ATOM     29  H   UNL     1      -1.350  12.783  22.448  0.00  0.00    +0.000 HD
ENDBRANCH  26  27
ENDBRANCH   9  21
BRANCH   1  31
ATOM     30  C   UNL     1      -7.916   9.355  21.001  0.00  0.00    +0.000 C 
ATOM     31  C   UNL     1      -7.826  10.847  20.682  0.00  0.00    +0.000 C 
ATOM     32  C   UNL     1      -7.915  11.710  21.938  0.00  0.00    +0.000 C 
ENDBRANCH   1  31
TORSDOF 4
ENDMDL
MODEL 7
REMARK VINA RESULT:      -6.3      1.042      1.377
REMARK  Name = 
REMARK  6 active torsions:
REMARK  status: ('A' for Active; 'I' for Inactive)
REMARK    1  A    between atoms: C_1  and  C_2
REMARK    2  A    between atoms: C_2  and  C_3
REMARK    3  A    between atoms: C_2  and  N_4
REMARK    4  A    between atoms: N_9  and  C_10
REMARK    5  A    between atoms: N_19  and  C_20
REMARK    6  A    between atoms: C_25  and  N_26
REMARK                            x       y       z     vdW  Elec       q    Type
REMARK                         _______ _______ _______ _____ _____    ______ ____
ROOT
ATOM      1  N   UNL     1       0.319  10.737  19.462  0.00  0.00    +0.000 N 
ATOM      2  C   UNL     1       0.363   9.981  20.615  0.00  0.00    +0.000 A 
ATOM      3  C   UNL     1       0.056  10.800  21.677  0.00  0.00    +0.000 A 
ATOM      4  C   UNL     1      -0.161  12.107  21.162  0.00  0.00    +0.000 A 
ATOM      5  C   UNL     1      -0.555  13.341  21.695  0.00  0.00    +0.000 A 
ATOM      6  N   UNL     1      -0.768  13.533  23.062  0.00  0.00    +0.000 N 
ATOM      7  N   UNL     1      -0.690  14.384  20.841  0.00  0.00    +0.000 NA
ATOM      8  C   UNL     1      -0.391  14.242  19.546  0.00  0.00    +0.000 A 
ATOM      9  N   UNL     1      -0.383  15.370  18.725  0.00  0.00    +0.000 N 
ATOM     10  N   UNL     1      -0.037  13.092  18.943  0.00  0.00    +0.000 NA
ATOM     11  C   UNL     1       0.042  12.049  19.789  0.00  0.00    +0.000 A 
ATOM     12  H   UNL     1      -0.177  12.975  23.660  0.00  0.00    +0.000 HD
ATOM     13  H   UNL     1       0.149  15.138  17.895  0.00  0.00    +0.000 HD
ENDROOT
BRANCH   6  14
ATOM     14  C   UNL     1      -1.721  14.344  23.698  0.00  0.00    +0.000 A 
ATOM     15  C   UNL     1      -3.098  14.117  23.569  0.00  0.00    +0.000 A 
ATOM     16  C   UNL     1      -4.032  14.949  24.193  0.00  0.00    +0.000 A 
ATOM     17  C   UNL     1      -3.598  16.043  24.935  0.00  0.00    +0.000 A 
ATOM     18  C   UNL     1      -2.233  16.294  25.049  0.00  0.00    +0.000 A 
ATOM     19 CL   UNL     1      -1.692  17.660  25.946  0.00  0.00    +0.000 Cl
ATOM     20  C   UNL     1      -1.299  15.454  24.442  0.00  0.00    +0.000 A 
ENDBRANCH   6  14
BRANCH   9  21
ATOM     21  C   UNL     1      -0.087  16.672  19.359  0.00  0.00    +0.000 C 
ATOM     22  C   UNL     1       1.319  17.201  19.017  0.00  0.00    +0.000 C 
ATOM     23  C   UNL     1       1.467  17.597  17.550  0.00  0.00    +0.000 C 
ATOM     24  C   UNL     1       0.421  18.628  17.142  0.00  0.00    +0.000 C 
ATOM     25  C   UNL     1      -0.996  18.153  17.457  0.00  0.00    +0.000 C 
ATOM     26  C   UNL     1      -1.148  17.743  18.933  0.00  0.00    +0.000 C 
BRANCH  26  27
ATOM     27  N   UNL     1      -2.526  17.296  19.183  0.00  0.00    +0.000 NA
ATOM     28  H   UNL     1      -2.500  16.563  19.895  0.00  0.00    +0.000 HD
ATOM     29  H   UNL     1      -2.928  16.891  18.341  0.00  0.00    +0.000 HD
ENDBRANCH  26  27
ENDBRANCH   9  21
BRANCH   1  31
ATOM     30  C   UNL     1       1.478   9.016  18.089  0.00  0.00    +0.000 C 
ATOM     31  C   UNL     1       0.465  10.161  18.128  0.00  0.00    +0.000 C 
ATOM     32  C   UNL     1      -0.869   9.770  17.496  0.00  0.00    +0.000 C 
ENDBRANCH   1  31
TORSDOF 4
ENDMDL
MODEL 8
REMARK VINA RESULT:      -6.3      1.848      5.938
REMARK  Name = 
REMARK  6 active torsions:
REMARK  status: ('A' for Active; 'I' for Inactive)
REMARK    1  A    between atoms: C_1  and  C_2
REMARK    2  A    between atoms: C_2  and  C_3
REMARK    3  A    between atoms: C_2  and  N_4
REMARK    4  A    between atoms: N_9  and  C_10
REMARK    5  A    between atoms: N_19  and  C_20
REMARK    6  A    between atoms: C_25  and  N_26
REMARK                            x       y       z     vdW  Elec       q    Type
REMARK                         _______ _______ _______ _____ _____    ______ ____
ROOT
ATOM      1  N   UNL     1       1.327  16.109  18.792  0.00  0.00    +0.000 N 
ATOM      2  C   UNL     1       0.429  17.127  18.545  0.00  0.00    +0.000 A 
ATOM      3  C   UNL     1      -0.802  16.736  19.020  0.00  0.00    +0.000 A 
ATOM      4  C   UNL     1      -0.660  15.426  19.553  0.00  0.00    +0.000 A 
ATOM      5  C   UNL     1      -1.496  14.520  20.220  0.00  0.00    +0.000 A 
ATOM      6  N   UNL     1      -2.850  14.777  20.447  0.00  0.00    +0.000 N 
ATOM      7  N   UNL     1      -0.960  13.342  20.618  0.00  0.00    +0.000 NA
ATOM      8  C   UNL     1       0.308  13.039  20.318  0.00  0.00    +0.000 A 
ATOM      9  N   UNL     1       0.782  11.756  20.597  0.00  0.00    +0.000 N 
ATOM     10  N   UNL     1       1.189  13.856  19.711  0.00  0.00    +0.000 NA
ATOM     11  C   UNL     1       0.663  15.046  19.368  0.00  0.00    +0.000 A 
ATOM     12  H   UNL     1      -3.297  15.326  19.728  0.00  0.00    +0.000 HD
ATOM     13  H   UNL     1       1.615  11.613  20.040  0.00  0.00    +0.000 HD
ENDROOT
BRANCH   6  14
ATOM     14  C   UNL     1      -3.638  14.426  21.553  0.00  0.00    +0.000 A 
ATOM     15  C   UNL     1      -3.258  14.735  22.867  0.00  0.00    +0.000 A 
ATOM     16  C   UNL     1      -4.047  14.357  23.958  0.00  0.00    +0.000 A 
ATOM     17  C   UNL     1      -5.219  13.635  23.749  0.00  0.00    +0.000 A 
ATOM     18  C   UNL     1      -5.592  13.300  22.450  0.00  0.00    +0.000 A 
ATOM     19 CL   UNL     1      -7.028  12.386  22.188  0.00  0.00    +0.000 Cl
ATOM     20  C   UNL     1      -4.816  13.692  21.359  0.00  0.00    +0.000 A 
ENDBRANCH   6  14
BRANCH   9  21
ATOM     21  C   UNL     1      -0.203  10.654  20.608  0.00  0.00    +0.000 C 
ATOM     22  C   UNL     1       0.097   9.569  19.556  0.00  0.00    +0.000 C 
ATOM     23  C   UNL     1       1.364   8.776  19.862  0.00  0.00    +0.000 C 
ATOM     24  C   UNL     1       1.305   8.142  21.246  0.00  0.00    +0.000 C 
ATOM     25  C   UNL     1       1.013   9.175  22.331  0.00  0.00    +0.000 C 
ATOM     26  C   UNL     1      -0.260   9.985  22.024  0.00  0.00    +0.000 C 
BRANCH  26  27
ATOM     27  N   UNL     1      -0.496  10.962  23.096  0.00  0.00    +0.000 NA
ATOM     28  H   UNL     1       0.109  10.724  23.884  0.00  0.00    +0.000 HD
ATOM     29  H   UNL     1      -1.458  10.909  23.421  0.00  0.00    +0.000 HD
ENDBRANCH  26  27
ENDBRANCH   9  21
BRANCH   1  31
ATOM     30  C   UNL     1       3.066  16.741  17.128  0.00  0.00    +0.000 C 
ATOM     31  C   UNL     1       2.761  16.235  18.538  0.00  0.00    +0.000 C 
ATOM     32  C   UNL     1       3.489  17.044  19.609  0.00  0.00    +0.000 C 
ENDBRANCH   1  31
TORSDOF 4
ENDMDL
MODEL 9
REMARK VINA RESULT:      -6.3      1.836      5.954
REMARK  Name = 
REMARK  6 active torsions:
REMARK  status: ('A' for Active; 'I' for Inactive)
REMARK    1  A    between atoms: C_1  and  C_2
REMARK    2  A    between atoms: C_2  and  C_3
REMARK    3  A    between atoms: C_2  and  N_4
REMARK    4  A    between atoms: N_9  and  C_10
REMARK    5  A    between atoms: N_19  and  C_20
REMARK    6  A    between atoms: C_25  and  N_26
REMARK                            x       y       z     vdW  Elec       q    Type
REMARK                         _______ _______ _______ _____ _____    ______ ____
ROOT
ATOM      1  N   UNL     1       1.517  16.077  18.670  0.00  0.00    +0.000 N 
ATOM      2  C   UNL     1       0.649  17.123  18.428  0.00  0.00    +0.000 A 
ATOM      3  C   UNL     1      -0.585  16.780  18.933  0.00  0.00    +0.000 A 
ATOM      4  C   UNL     1      -0.476  15.473  19.481  0.00  0.00    +0.000 A 
ATOM      5  C   UNL     1      -1.328  14.606  20.178  0.00  0.00    +0.000 A 
ATOM      6  N   UNL     1      -2.667  14.912  20.429  0.00  0.00    +0.000 N 
ATOM      7  N   UNL     1      -0.824  13.415  20.581  0.00  0.00    +0.000 NA
ATOM      8  C   UNL     1       0.426  13.065  20.259  0.00  0.00    +0.000 A 
ATOM      9  N   UNL     1       0.862  11.770  20.545  0.00  0.00    +0.000 N 
ATOM     10  N   UNL     1       1.321  13.843  19.623  0.00  0.00    +0.000 NA
ATOM     11  C   UNL     1       0.829  15.045  19.275  0.00  0.00    +0.000 A 
ATOM     12  H   UNL     1      -3.111  15.466  19.712  0.00  0.00    +0.000 HD
ATOM     13  H   UNL     1       1.678  11.591  19.974  0.00  0.00    +0.000 HD
ENDROOT
BRANCH   6  14
ATOM     14  C   UNL     1      -3.444  14.602  21.557  0.00  0.00    +0.000 A 
ATOM     15  C   UNL     1      -4.155  13.399  21.665  0.00  0.00    +0.000 A 
ATOM     16  C   UNL     1      -4.940  13.119  22.787  0.00  0.00    +0.000 A 
ATOM     17  C   UNL     1      -5.048  14.058  23.809  0.00  0.00    +0.000 A 
ATOM     18  C   UNL     1      -4.367  15.268  23.700  0.00  0.00    +0.000 A 
ATOM     19 CL   UNL     1      -4.517  16.442  24.950  0.00  0.00    +0.000 Cl
ATOM     20  C   UNL     1      -3.568  15.541  22.589  0.00  0.00    +0.000 A 
ENDBRANCH   6  14
BRANCH   9  21
ATOM     21  C   UNL     1      -0.160  10.703  20.593  0.00  0.00    +0.000 C 
ATOM     22  C   UNL     1       0.092   9.584  19.563  0.00  0.00    +0.000 C 
ATOM     23  C   UNL     1       1.335   8.755  19.876  0.00  0.00    +0.000 C 
ATOM     24  C   UNL     1       1.269   8.156  21.276  0.00  0.00    +0.000 C 
ATOM     25  C   UNL     1       1.023   9.224  22.339  0.00  0.00    +0.000 C 
ATOM     26  C   UNL     1      -0.224  10.069  22.024  0.00  0.00    +0.000 C 
BRANCH  26  27
ATOM     27  N   UNL     1      -0.417  11.078  23.075  0.00  0.00    +0.000 NA
ATOM     28  H   UNL     1      -1.338  11.501  22.947  0.00  0.00    +0.000 HD
ATOM     29  H   UNL     1       0.275  11.819  22.989  0.00  0.00    +0.000 HD
ENDBRANCH  26  27
ENDBRANCH   9  21
BRANCH   1  31
ATOM     30  C   UNL     1       3.244  16.758  17.013  0.00  0.00    +0.000 C 
ATOM     31  C   UNL     1       2.948  16.151  18.385  0.00  0.00    +0.000 C 
ATOM     32  C   UNL     1       3.745  16.827  19.497  0.00  0.00    +0.000 C 
ENDBRANCH   1  31
TORSDOF 4
ENDMDL
