MODEL 1
REMARK VINA RESULT:      -7.9      0.000      0.000
REMARK  Name = 
REMARK  8 active torsions:
REMARK  status: ('A' for Active; 'I' for Inactive)
REMARK    1  A    between atoms: C_1  and  C_2
REMARK    2  A    between atoms: C_5  and  C_6
REMARK    3  A    between atoms: C_7  and  N_8
REMARK    4  A    between atoms: C_9  and  C_11
REMARK    5  A    between atoms: C_11  and  C_12
REMARK    6  A    between atoms: C_12  and  C_13
REMARK    7  A    between atoms: C_17  and  C_18
REMARK    8  A    between atoms: N_22  and  C_23
REMARK                            x       y       z     vdW  Elec       q    Type
REMARK                         _______ _______ _______ _____ _____    ______ ____
ROOT
ATOM      1  C   UNL     1       1.791   8.283  18.608  0.00  0.00    +0.000 C 
ENDROOT
BRANCH   1   2
ATOM      2  C   UNL     1       2.589   7.094  18.139  0.00  0.00    +0.000 A 
ATOM      3  C   UNL     1       3.814   7.238  17.494  0.00  0.00    +0.000 A 
ATOM      4  C   UNL     1       4.492   6.108  17.080  0.00  0.00    +0.000 A 
ATOM      5  C   UNL     1       3.955   4.862  17.360  0.00  0.00    +0.000 A 
ATOM      6  C   UNL     1       2.748   4.762  18.045  0.00  0.00    +0.000 A 
ATOM      7  N   UNL     1       2.064   5.875  18.423  0.00  0.00    +0.000 NA
BRANCH   6   8
ATOM      8  C   UNL     1       2.127   3.427  18.436  0.00  0.00    +0.000 C 
ATOM      9  C   UNL     1       1.017   3.580  19.489  0.00  0.00    +0.000 C 
ATOM     10  C   UNL     1       1.579   3.783  20.895  0.00  0.00    +0.000 C 
ATOM     11  C   UNL     1       2.641   2.738  21.255  0.00  0.00    +0.000 C 
ATOM     12  N   UNL     1       3.688   2.641  20.235  0.00  0.00    +0.000 NA
ATOM     13  C   UNL     1       4.727   1.687  20.600  0.00  0.00    +0.000 C 
ATOM     14  C   UNL     1       3.140   2.359  18.900  0.00  0.00    +0.000 C 
ENDBRANCH   6   8
ENDBRANCH   1   2
BRANCH   1  15
ATOM     15  C   UNL     1       2.117   9.578  17.876  0.00  0.00    +0.000 C 
BRANCH  15  17
ATOM     16  N   UNL     1      -0.232  10.126  17.969  0.00  0.00    +0.000 N 
ATOM     17  C   UNL     1       1.049  10.600  18.164  0.00  0.00    +0.000 C 
ATOM     18  O   UNL     1       1.392  11.711  18.551  0.00  0.00    +0.000 OA
ATOM     19  H   UNL     1      -0.335   9.180  17.626  0.00  0.00    +0.000 HD
BRANCH  16  26
ATOM     20  C   UNL     1      -2.550  10.405  15.827  0.00  0.00    +0.000 C 
ATOM     21  C   UNL     1      -2.472  10.944  17.207  0.00  0.00    +0.000 A 
ATOM     22  N   UNL     1      -3.497  11.664  17.678  0.00  0.00    +0.000 NA
ATOM     23  N   UNL     1      -3.113  11.994  18.912  0.00  0.00    +0.000 N 
ATOM     24  C   UNL     1      -1.878  11.524  19.265  0.00  0.00    +0.000 A 
ATOM     25  C   UNL     1      -1.341  11.830  20.614  0.00  0.00    +0.000 C 
ATOM     26  C   UNL     1      -1.418  10.819  18.168  0.00  0.00    +0.000 A 
ATOM     27  H   UNL     1      -3.745  12.551  19.477  0.00  0.00    +0.000 HD
ENDBRANCH  16  26
ENDBRANCH  15  17
ENDBRANCH   1  15
TORSDOF 5
ENDMDL
MODEL 2
REMARK VINA RESULT:      -7.9      1.290      1.765
REMARK  Name = 
REMARK  8 active torsions:
REMARK  status: ('A' for Active; 'I' for Inactive)
REMARK    1  A    between atoms: C_1  and  C_2
REMARK    2  A    between atoms: C_5  and  C_6
REMARK    3  A    between atoms: C_7  and  N_8
REMARK    4  A    between atoms: C_9  and  C_11
REMARK    5  A    between atoms: C_11  and  C_12
REMARK    6  A    between atoms: C_12  and  C_13
REMARK    7  A    between atoms: C_17  and  C_18
REMARK    8  A    between atoms: N_22  and  C_23
REMARK                            x       y       z     vdW  Elec       q    Type
REMARK                         _______ _______ _______ _____ _____    ______ ____
ROOT
ATOM      1  C   UNL     1       2.802   7.675  18.533  0.00  0.00    +0.000 C 
ENDROOT
BRANCH   1   2
ATOM      2  C   UNL     1       3.556   6.573  17.835  0.00  0.00    +0.000 A 
ATOM      3  C   UNL     1       4.423   6.832  16.776  0.00  0.00    +0.000 A 
ATOM      4  C   UNL     1       5.077   5.777  16.171  0.00  0.00    +0.000 A 
ATOM      5  C   UNL     1       4.889   4.497  16.666  0.00  0.00    +0.000 A 
ATOM      6  C   UNL     1       4.046   4.288  17.754  0.00  0.00    +0.000 A 
ATOM      7  N   UNL     1       3.375   5.323  18.327  0.00  0.00    +0.000 NA
BRANCH   6   8
ATOM      8  C   UNL     1       3.835   2.918  18.385  0.00  0.00    +0.000 C 
ATOM      9  C   UNL     1       2.674   2.144  17.736  0.00  0.00    +0.000 C 
ATOM     10  C   UNL     1       1.311   2.631  18.225  0.00  0.00    +0.000 C 
ATOM     11  C   UNL     1       1.234   2.707  19.754  0.00  0.00    +0.000 C 
ATOM     12  N   UNL     1       2.346   3.469  20.326  0.00  0.00    +0.000 NA
ATOM     13  C   UNL     1       2.246   3.588  21.775  0.00  0.00    +0.000 C 
ATOM     14  C   UNL     1       3.655   2.937  19.917  0.00  0.00    +0.000 C 
ENDBRANCH   6   8
ENDBRANCH   1   2
BRANCH   1  15
ATOM     15  C   UNL     1       1.896   8.487  17.617  0.00  0.00    +0.000 C 
BRANCH  15  17
ATOM     16  N   UNL     1       0.127  10.127  17.698  0.00  0.00    +0.000 N 
ATOM     17  C   UNL     1       1.027   9.394  18.445  0.00  0.00    +0.000 C 
ATOM     18  O   UNL     1       1.169   9.389  19.663  0.00  0.00    +0.000 OA
ATOM     19  H   UNL     1       0.156  10.021  16.693  0.00  0.00    +0.000 HD
BRANCH  16  26
ATOM     20  C   UNL     1      -3.009   9.675  17.639  0.00  0.00    +0.000 C 
ATOM     21  C   UNL     1      -2.232  10.829  18.157  0.00  0.00    +0.000 A 
ATOM     22  N   UNL     1      -2.892  11.865  18.688  0.00  0.00    +0.000 NA
ATOM     23  N   UNL     1      -1.922  12.711  19.040  0.00  0.00    +0.000 N 
ATOM     24  C   UNL     1      -0.658  12.273  18.756  0.00  0.00    +0.000 A 
ATOM     25  C   UNL     1       0.503  13.130  19.100  0.00  0.00    +0.000 C 
ATOM     26  C   UNL     1      -0.815  11.029  18.175  0.00  0.00    +0.000 A 
ATOM     27  H   UNL     1      -2.187  13.587  19.478  0.00  0.00    +0.000 HD
ENDBRANCH  16  26
ENDBRANCH  15  17
ENDBRANCH   1  15
TORSDOF 5
ENDMDL
MODEL 3
REMARK VINA RESULT:      -7.9      2.189      8.722
REMARK  Name = 
REMARK  8 active torsions:
REMARK  status: ('A' for Active; 'I' for Inactive)
REMARK    1  A    between atoms: C_1  and  C_2
REMARK    2  A    between atoms: C_5  and  C_6
REMARK    3  A    between atoms: C_7  and  N_8
REMARK    4  A    between atoms: C_9  and  C_11
REMARK    5  A    between atoms: C_11  and  C_12
REMARK    6  A    between atoms: C_12  and  C_13
REMARK    7  A    between atoms: C_17  and  C_18
REMARK    8  A    between atoms: N_22  and  C_23
REMARK                            x       y       z     vdW  Elec       q    Type
REMARK                         _______ _______ _______ _____ _____    ______ ____
ROOT
ATOM      1  C   UNL     1       1.113   7.865  21.089  0.00  0.00    +0.000 C 
ENDROOT
BRANCH   1   2
ATOM      2  C   UNL     1       0.320   9.068  21.533  0.00  0.00    +0.000 A 
ATOM      3  C   UNL     1      -0.057   9.252  22.861  0.00  0.00    +0.000 A 
ATOM      4  C   UNL     1      -0.791  10.371  23.201  0.00  0.00    +0.000 A 
ATOM      5  C   UNL     1      -1.089  11.303  22.220  0.00  0.00    +0.000 A 
ATOM      6  C   UNL     1      -0.656  11.101  20.913  0.00  0.00    +0.000 A 
ATOM      7  N   UNL     1       0.036   9.982  20.571  0.00  0.00    +0.000 NA
BRANCH   6   8
ATOM      8  C   UNL     1      -0.901  12.108  19.796  0.00  0.00    +0.000 C 
ATOM      9  C   UNL     1      -2.118  13.006  20.070  0.00  0.00    +0.000 C 
ATOM     10  C   UNL     1      -3.439  12.294  19.780  0.00  0.00    +0.000 C 
ATOM     11  C   UNL     1      -3.451  11.630  18.399  0.00  0.00    +0.000 C 
ATOM     12  N   UNL     1      -2.285  10.769  18.189  0.00  0.00    +0.000 NA
ATOM     13  C   UNL     1      -2.322  10.094  16.898  0.00  0.00    +0.000 C 
ATOM     14  C   UNL     1      -1.018  11.489  18.388  0.00  0.00    +0.000 C 
ENDBRANCH   6   8
ENDBRANCH   1   2
BRANCH   1  15
ATOM     15  C   UNL     1       1.932   8.092  19.826  0.00  0.00    +0.000 C 
BRANCH  15  17
ATOM     16  N   UNL     1       2.873   5.911  20.259  0.00  0.00    +0.000 N 
ATOM     17  C   UNL     1       2.398   6.766  19.286  0.00  0.00    +0.000 C 
ATOM     18  O   UNL     1       2.298   6.558  18.082  0.00  0.00    +0.000 OA
ATOM     19  H   UNL     1       2.902   6.254  21.210  0.00  0.00    +0.000 HD
BRANCH  16  26
ATOM     20  C   UNL     1       5.723   5.185  19.080  0.00  0.00    +0.000 C 
ATOM     21  C   UNL     1       4.640   4.286  19.550  0.00  0.00    +0.000 A 
ATOM     22  N   UNL     1       4.830   2.962  19.494  0.00  0.00    +0.000 NA
ATOM     23  N   UNL     1       3.692   2.458  19.973  0.00  0.00    +0.000 N 
ATOM     24  C   UNL     1       2.765   3.397  20.335  0.00  0.00    +0.000 A 
ATOM     25  C   UNL     1       1.457   2.955  20.879  0.00  0.00    +0.000 C 
ATOM     26  C   UNL     1       3.352   4.621  20.076  0.00  0.00    +0.000 A 
ATOM     27  H   UNL     1       3.603   1.450  20.031  0.00  0.00    +0.000 HD
ENDBRANCH  16  26
ENDBRANCH  15  17
ENDBRANCH   1  15
TORSDOF 5
ENDMDL
MODEL 4
REMARK VINA RESULT:      -7.8      1.339      2.256
REMARK  Name = 
REMARK  8 active torsions:
REMARK  status: ('A' for Active; 'I' for Inactive)
REMARK    1  A    between atoms: C_1  and  C_2
REMARK    2  A    between atoms: C_5  and  C_6
REMARK    3  A    between atoms: C_7  and  N_8
REMARK    4  A    between atoms: C_9  and  C_11
REMARK    5  A    between atoms: C_11  and  C_12
REMARK    6  A    between atoms: C_12  and  C_13
REMARK    7  A    between atoms: C_17  and  C_18
REMARK    8  A    between atoms: N_22  and  C_23
REMARK                            x       y       z     vdW  Elec       q    Type
REMARK                         _______ _______ _______ _____ _____    ______ ____
ROOT
ATOM      1  C   UNL     1       2.679   7.567  18.729  0.00  0.00    +0.000 C 
ENDROOT
BRANCH   1   2
ATOM      2  C   UNL     1       3.501   6.528  18.011  0.00  0.00    +0.000 A 
ATOM      3  C   UNL     1       4.307   6.851  16.922  0.00  0.00    +0.000 A 
ATOM      4  C   UNL     1       5.028   5.851  16.301  0.00  0.00    +0.000 A 
ATOM      5  C   UNL     1       4.967   4.564  16.808  0.00  0.00    +0.000 A 
ATOM      6  C   UNL     1       4.182   4.292  17.925  0.00  0.00    +0.000 A 
ATOM      7  N   UNL     1       3.444   5.270  18.516  0.00  0.00    +0.000 NA
BRANCH   6   8
ATOM      8  C   UNL     1       4.110   2.914  18.570  0.00  0.00    +0.000 C 
ATOM      9  C   UNL     1       3.142   1.971  17.836  0.00  0.00    +0.000 C 
ATOM     10  C   UNL     1       1.681   2.260  18.180  0.00  0.00    +0.000 C 
ATOM     11  C   UNL     1       1.445   2.343  19.693  0.00  0.00    +0.000 C 
ATOM     12  N   UNL     1       2.375   3.267  20.347  0.00  0.00    +0.000 NA
ATOM     13  C   UNL     1       2.118   3.389  21.776  0.00  0.00    +0.000 C 
ATOM     14  C   UNL     1       3.781   2.926  20.077  0.00  0.00    +0.000 C 
ENDBRANCH   6   8
ENDBRANCH   1   2
BRANCH   1  15
ATOM     15  C   UNL     1       2.016   8.582  17.807  0.00  0.00    +0.000 C 
BRANCH  15  17
ATOM     16  N   UNL     1       0.267  10.245  17.821  0.00  0.00    +0.000 N 
ATOM     17  C   UNL     1       1.068   9.438  18.603  0.00  0.00    +0.000 C 
ATOM     18  O   UNL     1       1.071   9.335  19.824  0.00  0.00    +0.000 OA
ATOM     19  H   UNL     1       0.410  10.218  16.820  0.00  0.00    +0.000 HD
BRANCH  16  26
ATOM     20  C   UNL     1       0.830  13.015  19.252  0.00  0.00    +0.000 C 
ATOM     21  C   UNL     1      -0.466  12.382  18.900  0.00  0.00    +0.000 A 
ATOM     22  N   UNL     1      -1.601  13.021  19.206  0.00  0.00    +0.000 NA
ATOM     23  N   UNL     1      -2.555  12.197  18.771  0.00  0.00    +0.000 N 
ATOM     24  C   UNL     1      -2.091  11.044  18.199  0.00  0.00    +0.000 A 
ATOM     25  C   UNL     1      -3.060  10.048  17.680  0.00  0.00    +0.000 C 
ATOM     26  C   UNL     1      -0.712  11.126  18.259  0.00  0.00    +0.000 A 
ATOM     27  H   UNL     1      -3.522  12.478  18.893  0.00  0.00    +0.000 HD
ENDBRANCH  16  26
ENDBRANCH  15  17
ENDBRANCH   1  15
TORSDOF 5
ENDMDL
MODEL 5
REMARK VINA RESULT:      -7.8      1.158      2.086
REMARK  Name = 
REMARK  8 active torsions:
REMARK  status: ('A' for Active; 'I' for Inactive)
REMARK    1  A    between atoms: C_1  and  C_2
REMARK    2  A    between atoms: C_5  and  C_6
REMARK    3  A    between atoms: C_7  and  N_8
REMARK    4  A    between atoms: C_9  and  C_11
REMARK    5  A    between atoms: C_11  and  C_12
REMARK    6  A    between atoms: C_12  and  C_13
REMARK    7  A    between atoms: C_17  and  C_18
REMARK    8  A    between atoms: N_22  and  C_23
REMARK                            x       y       z     vdW  Elec       q    Type
REMARK                         _______ _______ _______ _____ _____    ______ ____
ROOT
ATOM      1  C   UNL     1       3.488   7.917  17.775  0.00  0.00    +0.000 C 
ENDROOT
BRANCH   1   2
ATOM      2  C   UNL     1       3.952   6.583  17.249  0.00  0.00    +0.000 A 
ATOM      3  C   UNL     1       5.088   6.460  16.454  0.00  0.00    +0.000 A 
ATOM      4  C   UNL     1       5.455   5.210  15.996  0.00  0.00    +0.000 A 
ATOM      5  C   UNL     1       4.708   4.108  16.380  0.00  0.00    +0.000 A 
ATOM      6  C   UNL     1       3.604   4.271  17.211  0.00  0.00    +0.000 A 
ATOM      7  N   UNL     1       3.223   5.506  17.634  0.00  0.00    +0.000 NA
BRANCH   6   8
ATOM      8  C   UNL     1       2.771   3.100  17.718  0.00  0.00    +0.000 C 
ATOM      9  C   UNL     1       1.504   3.557  18.461  0.00  0.00    +0.000 C 
ATOM     10  C   UNL     1       1.806   4.020  19.886  0.00  0.00    +0.000 C 
ATOM     11  C   UNL     1       2.652   3.004  20.661  0.00  0.00    +0.000 C 
ATOM     12  N   UNL     1       3.857   2.613  19.926  0.00  0.00    +0.000 NA
ATOM     13  C   UNL     1       4.690   1.688  20.683  0.00  0.00    +0.000 C 
ATOM     14  C   UNL     1       3.547   2.088  18.587  0.00  0.00    +0.000 C 
ENDBRANCH   6   8
ENDBRANCH   1   2
BRANCH   1  15
ATOM     15  C   UNL     1       2.014   7.958  18.155  0.00  0.00    +0.000 C 
BRANCH  15  17
ATOM     16  N   UNL     1       0.188   9.515  18.406  0.00  0.00    +0.000 N 
ATOM     17  C   UNL     1       1.485   9.354  17.965  0.00  0.00    +0.000 C 
ATOM     18  O   UNL     1       2.227  10.200  17.477  0.00  0.00    +0.000 OA
ATOM     19  H   UNL     1      -0.289   8.700  18.769  0.00  0.00    +0.000 HD
BRANCH  16  26
ATOM     20  C   UNL     1       0.685  12.025  20.274  0.00  0.00    +0.000 C 
ATOM     21  C   UNL     1      -0.340  11.823  19.220  0.00  0.00    +0.000 A 
ATOM     22  N   UNL     1      -1.215  12.805  18.974  0.00  0.00    +0.000 NA
ATOM     23  N   UNL     1      -1.982  12.309  18.001  0.00  0.00    +0.000 N 
ATOM     24  C   UNL     1      -1.648  11.043  17.606  0.00  0.00    +0.000 A 
ATOM     25  C   UNL     1      -2.432  10.385  16.533  0.00  0.00    +0.000 C 
ATOM     26  C   UNL     1      -0.563  10.683  18.384  0.00  0.00    +0.000 A 
ATOM     27  H   UNL     1      -2.730  12.890  17.639  0.00  0.00    +0.000 HD
ENDBRANCH  16  26
ENDBRANCH  15  17
ENDBRANCH   1  15
TORSDOF 5
ENDMDL
MODEL 6
REMARK VINA RESULT:      -7.8      2.027      2.660
REMARK  Name = 
REMARK  8 active torsions:
REMARK  status: ('A' for Active; 'I' for Inactive)
REMARK    1  A    between atoms: C_1  and  C_2
REMARK    2  A    between atoms: C_5  and  C_6
REMARK    3  A    between atoms: C_7  and  N_8
REMARK    4  A    between atoms: C_9  and  C_11
REMARK    5  A    between atoms: C_11  and  C_12
REMARK    6  A    between atoms: C_12  and  C_13
REMARK    7  A    between atoms: C_17  and  C_18
REMARK    8  A    between atoms: N_22  and  C_23
REMARK                            x       y       z     vdW  Elec       q    Type
REMARK                         _______ _______ _______ _____ _____    ______ ____
ROOT
ATOM      1  C   UNL     1       2.387   8.553  18.545  0.00  0.00    +0.000 C 
ENDROOT
BRANCH   1   2
ATOM      2  C   UNL     1       2.952   7.244  18.057  0.00  0.00    +0.000 A 
ATOM      3  C   UNL     1       4.116   7.184  17.295  0.00  0.00    +0.000 A 
ATOM      4  C   UNL     1       4.577   5.953  16.870  0.00  0.00    +0.000 A 
ATOM      5  C   UNL     1       3.894   4.811  17.254  0.00  0.00    +0.000 A 
ATOM      6  C   UNL     1       2.759   4.913  18.053  0.00  0.00    +0.000 A 
ATOM      7  N   UNL     1       2.285   6.127  18.442  0.00  0.00    +0.000 NA
BRANCH   6   8
ATOM      8  C   UNL     1       1.991   3.698  18.558  0.00  0.00    +0.000 C 
ATOM      9  C   UNL     1       1.102   4.027  19.769  0.00  0.00    +0.000 C 
ATOM     10  C   UNL     1       1.903   4.118  21.067  0.00  0.00    +0.000 C 
ATOM     11  C   UNL     1       2.817   2.905  21.274  0.00  0.00    +0.000 C 
ATOM     12  N   UNL     1       3.660   2.642  20.105  0.00  0.00    +0.000 NA
ATOM     13  C   UNL     1       4.568   1.523  20.319  0.00  0.00    +0.000 C 
ATOM     14  C   UNL     1       2.870   2.471  18.876  0.00  0.00    +0.000 C 
ENDBRANCH   6   8
ENDBRANCH   1   2
BRANCH   1  15
ATOM     15  C   UNL     1       1.181   9.043  17.754  0.00  0.00    +0.000 C 
BRANCH  15  17
ATOM     16  N   UNL     1       0.901  10.188  19.860  0.00  0.00    +0.000 N 
ATOM     17  C   UNL     1       0.343   9.943  18.622  0.00  0.00    +0.000 C 
ATOM     18  O   UNL     1      -0.708  10.381  18.168  0.00  0.00    +0.000 OA
ATOM     19  H   UNL     1       1.774   9.727  20.081  0.00  0.00    +0.000 HD
BRANCH  16  26
ATOM     20  C   UNL     1      -0.326   9.113  22.576  0.00  0.00    +0.000 C 
ATOM     21  C   UNL     1      -0.171  10.510  22.099  0.00  0.00    +0.000 A 
ATOM     22  N   UNL     1      -0.592  11.510  22.883  0.00  0.00    +0.000 NA
ATOM     23  N   UNL     1      -0.318  12.606  22.172  0.00  0.00    +0.000 N 
ATOM     24  C   UNL     1       0.258  12.362  20.956  0.00  0.00    +0.000 A 
ATOM     25  C   UNL     1       0.605  13.504  20.074  0.00  0.00    +0.000 C 
ATOM     26  C   UNL     1       0.379  10.988  20.868  0.00  0.00    +0.000 A 
ATOM     27  H   UNL     1      -0.551  13.507  22.574  0.00  0.00    +0.000 HD
ENDBRANCH  16  26
ENDBRANCH  15  17
ENDBRANCH   1  15
TORSDOF 5
ENDMDL
MODEL 7
REMARK VINA RESULT:      -7.8      1.277      2.148
REMARK  Name = 
REMARK  8 active torsions:
REMARK  status: ('A' for Active; 'I' for Inactive)
REMARK    1  A    between atoms: C_1  and  C_2
REMARK    2  A    between atoms: C_5  and  C_6
REMARK    3  A    between atoms: C_7  and  N_8
REMARK    4  A    between atoms: C_9  and  C_11
REMARK    5  A    between atoms: C_11  and  C_12
REMARK    6  A    between atoms: C_12  and  C_13
REMARK    7  A    between atoms: C_17  and  C_18
REMARK    8  A    between atoms: N_22  and  C_23
REMARK                            x       y       z     vdW  Elec       q    Type
REMARK                         _______ _______ _______ _____ _____    ______ ____
ROOT
ATOM      1  C   UNL     1       2.265   8.201  18.538  0.00  0.00    +0.000 C 
ENDROOT
BRANCH   1   2
ATOM      2  C   UNL     1       2.936   6.951  18.028  0.00  0.00    +0.000 A 
ATOM      3  C   UNL     1       4.118   6.997  17.294  0.00  0.00    +0.000 A 
ATOM      4  C   UNL     1       4.677   5.816  16.847  0.00  0.00    +0.000 A 
ATOM      5  C   UNL     1       4.071   4.617  17.183  0.00  0.00    +0.000 A 
ATOM      6  C   UNL     1       2.912   4.614  17.954  0.00  0.00    +0.000 A 
ATOM      7  N   UNL     1       2.343   5.778  18.365  0.00  0.00    +0.000 NA
BRANCH   6   8
ATOM      8  C   UNL     1       2.223   3.333  18.407  0.00  0.00    +0.000 C 
ATOM      9  C   UNL     1       1.089   3.597  19.411  0.00  0.00    +0.000 C 
ATOM     10  C   UNL     1       1.616   3.866  20.820  0.00  0.00    +0.000 C 
ATOM     11  C   UNL     1       2.621   2.804  21.279  0.00  0.00    +0.000 C 
ATOM     12  N   UNL     1       3.693   2.599  20.302  0.00  0.00    +0.000 NA
ATOM     13  C   UNL     1       4.679   1.628  20.760  0.00  0.00    +0.000 C 
ATOM     14  C   UNL     1       3.175   2.256  18.969  0.00  0.00    +0.000 C 
ENDBRANCH   6   8
ENDBRANCH   1   2
BRANCH   1  15
ATOM     15  C   UNL     1       1.823   8.121  19.993  0.00  0.00    +0.000 C 
BRANCH  15  17
ATOM     16  N   UNL     1       0.543  10.023  19.238  0.00  0.00    +0.000 N 
ATOM     17  C   UNL     1       0.670   9.061  20.219  0.00  0.00    +0.000 C 
ATOM     18  O   UNL     1      -0.042   8.887  21.202  0.00  0.00    +0.000 OA
ATOM     19  H   UNL     1       1.235  10.034  18.500  0.00  0.00    +0.000 HD
BRANCH  16  26
ATOM     20  C   UNL     1       0.557  12.711  20.915  0.00  0.00    +0.000 C 
ATOM     21  C   UNL     1      -0.423  12.233  19.909  0.00  0.00    +0.000 A 
ATOM     22  N   UNL     1      -1.481  13.000  19.623  0.00  0.00    +0.000 NA
ATOM     23  N   UNL     1      -2.149  12.293  18.710  0.00  0.00    +0.000 N 
ATOM     24  C   UNL     1      -1.574  11.093  18.392  0.00  0.00    +0.000 A 
ATOM     25  C   UNL     1      -2.227  10.216  17.390  0.00  0.00    +0.000 C 
ATOM     26  C   UNL     1      -0.427  11.013  19.159  0.00  0.00    +0.000 A 
ATOM     27  H   UNL     1      -3.004  12.685  18.333  0.00  0.00    +0.000 HD
ENDBRANCH  16  26
ENDBRANCH  15  17
ENDBRANCH   1  15
TORSDOF 5
ENDMDL
MODEL 8
REMARK VINA RESULT:      -7.8      1.165      1.284
REMARK  Name = 
REMARK  8 active torsions:
REMARK  status: ('A' for Active; 'I' for Inactive)
REMARK    1  A    between atoms: C_1  and  C_2
REMARK    2  A    between atoms: C_5  and  C_6
REMARK    3  A    between atoms: C_7  and  N_8
REMARK    4  A    between atoms: C_9  and  C_11
REMARK    5  A    between atoms: C_11  and  C_12
REMARK    6  A    between atoms: C_12  and  C_13
REMARK    7  A    between atoms: C_17  and  C_18
REMARK    8  A    between atoms: N_22  and  C_23
REMARK                            x       y       z     vdW  Elec       q    Type
REMARK                         _______ _______ _______ _____ _____    ______ ____
ROOT
ATOM      1  C   UNL     1       2.269   8.270  18.454  0.00  0.00    +0.000 C 
ENDROOT
BRANCH   1   2
ATOM      2  C   UNL     1       2.965   7.018  17.986  0.00  0.00    +0.000 A 
ATOM      3  C   UNL     1       4.178   7.062  17.303  0.00  0.00    +0.000 A 
ATOM      4  C   UNL     1       4.760   5.879  16.892  0.00  0.00    +0.000 A 
ATOM      5  C   UNL     1       4.145   4.681  17.214  0.00  0.00    +0.000 A 
ATOM      6  C   UNL     1       2.955   4.680  17.936  0.00  0.00    +0.000 A 
ATOM      7  N   UNL     1       2.364   5.846  18.310  0.00  0.00    +0.000 NA
BRANCH   6   8
ATOM      8  C   UNL     1       2.253   3.400  18.371  0.00  0.00    +0.000 C 
ATOM      9  C   UNL     1       1.128   3.663  19.387  0.00  0.00    +0.000 C 
ATOM     10  C   UNL     1       1.666   3.902  20.796  0.00  0.00    +0.000 C 
ATOM     11  C   UNL     1       2.661   2.820  21.232  0.00  0.00    +0.000 C 
ATOM     12  N   UNL     1       3.725   2.618  20.245  0.00  0.00    +0.000 NA
ATOM     13  C   UNL     1       4.701   1.628  20.681  0.00  0.00    +0.000 C 
ATOM     14  C   UNL     1       3.194   2.303  18.910  0.00  0.00    +0.000 C 
ENDBRANCH   6   8
ENDBRANCH   1   2
BRANCH   1  15
ATOM     15  C   UNL     1       1.757   8.199  19.886  0.00  0.00    +0.000 C 
BRANCH  15  17
ATOM     16  N   UNL     1       0.384   9.946  18.945  0.00  0.00    +0.000 N 
ATOM     17  C   UNL     1       0.687   9.238  20.089  0.00  0.00    +0.000 C 
ATOM     18  O   UNL     1       0.180   9.346  21.200  0.00  0.00    +0.000 OA
ATOM     19  H   UNL     1       0.916   9.738  18.110  0.00  0.00    +0.000 HD
BRANCH  16  26
ATOM     20  C   UNL     1      -2.100   9.838  16.981  0.00  0.00    +0.000 C 
ATOM     21  C   UNL     1      -1.695  10.904  17.930  0.00  0.00    +0.000 A 
ATOM     22  N   UNL     1      -2.444  12.010  18.017  0.00  0.00    +0.000 NA
ATOM     23  N   UNL     1      -1.813  12.748  18.933  0.00  0.00    +0.000 N 
ATOM     24  C   UNL     1      -0.682  12.173  19.442  0.00  0.00    +0.000 A 
ATOM     25  C   UNL     1       0.107  12.902  20.466  0.00  0.00    +0.000 C 
ATOM     26  C   UNL     1      -0.567  10.949  18.810  0.00  0.00    +0.000 A 
ATOM     27  H   UNL     1      -2.208  13.651  19.173  0.00  0.00    +0.000 HD
ENDBRANCH  16  26
ENDBRANCH  15  17
ENDBRANCH   1  15
TORSDOF 5
ENDMDL
MODEL 9
REMARK VINA RESULT:      -7.8      1.447      2.269
REMARK  Name = 
REMARK  8 active torsions:
REMARK  status: ('A' for Active; 'I' for Inactive)
REMARK    1  A    between atoms: C_1  and  C_2
REMARK    2  A    between atoms: C_5  and  C_6
REMARK    3  A    between atoms: C_7  and  N_8
REMARK    4  A    between atoms: C_9  and  C_11
REMARK    5  A    between atoms: C_11  and  C_12
REMARK    6  A    between atoms: C_12  and  C_13
REMARK    7  A    between atoms: C_17  and  C_18
REMARK    8  A    between atoms: N_22  and  C_23
REMARK                            x       y       z     vdW  Elec       q    Type
REMARK                         _______ _______ _______ _____ _____    ______ ____
ROOT
ATOM      1  C   UNL     1       3.620   7.932  17.403  0.00  0.00    +0.000 C 
ENDROOT
BRANCH   1   2
ATOM      2  C   UNL     1       4.246   6.596  17.093  0.00  0.00    +0.000 A 
ATOM      3  C   UNL     1       5.091   6.416  16.001  0.00  0.00    +0.000 A 
ATOM      4  C   UNL     1       5.626   5.164  15.766  0.00  0.00    +0.000 A 
ATOM      5  C   UNL     1       5.343   4.136  16.650  0.00  0.00    +0.000 A 
ATOM      6  C   UNL     1       4.527   4.370  17.754  0.00  0.00    +0.000 A 
ATOM      7  N   UNL     1       3.973   5.594  17.966  0.00  0.00    +0.000 NA
BRANCH   6   8
ATOM      8  C   UNL     1       4.219   3.303  18.796  0.00  0.00    +0.000 C 
ATOM      9  C   UNL     1       3.699   2.000  18.167  0.00  0.00    +0.000 C 
ATOM     10  C   UNL     1       2.228   2.099  17.766  0.00  0.00    +0.000 C 
ATOM     11  C   UNL     1       1.349   2.639  18.901  0.00  0.00    +0.000 C 
ATOM     12  N   UNL     1       1.871   3.890  19.455  0.00  0.00    +0.000 NA
ATOM     13  C   UNL     1       1.010   4.434  20.498  0.00  0.00    +0.000 C 
ATOM     14  C   UNL     1       3.262   3.758  19.917  0.00  0.00    +0.000 C 
ENDBRANCH   6   8
ENDBRANCH   1   2
BRANCH   1  15
ATOM     15  C   UNL     1       2.428   7.855  18.348  0.00  0.00    +0.000 C 
BRANCH  15  17
ATOM     16  N   UNL     1       0.558   9.171  19.122  0.00  0.00    +0.000 N 
ATOM     17  C   UNL     1       1.643   9.137  18.270  0.00  0.00    +0.000 C 
ATOM     18  O   UNL     1       2.029  10.014  17.505  0.00  0.00    +0.000 OA
ATOM     19  H   UNL     1       0.372   8.345  19.676  0.00  0.00    +0.000 HD
BRANCH  16  26
ATOM     20  C   UNL     1      -1.788   9.887  17.117  0.00  0.00    +0.000 C 
ATOM     21  C   UNL     1      -1.406  10.541  18.393  0.00  0.00    +0.000 A 
ATOM     22  N   UNL     1      -2.113  11.596  18.814  0.00  0.00    +0.000 NA
ATOM     23  N   UNL     1      -1.518  11.940  19.958  0.00  0.00    +0.000 N 
ATOM     24  C   UNL     1      -0.448  11.158  20.296  0.00  0.00    +0.000 A 
ATOM     25  C   UNL     1       0.297  11.447  21.547  0.00  0.00    +0.000 C 
ATOM     26  C   UNL     1      -0.340  10.216  19.291  0.00  0.00    +0.000 A 
ATOM     27  H   UNL     1      -1.891  12.730  20.472  0.00  0.00    +0.000 HD
ENDBRANCH  16  26
ENDBRANCH  15  17
ENDBRANCH   1  15
TORSDOF 5
ENDMDL
