MODEL 1
REMARK VINA RESULT:      -6.4      0.000      0.000
REMARK  Name = 
REMARK  5 active torsions:
REMARK  status: ('A' for Active; 'I' for Inactive)
REMARK    1  A    between atoms: C_2  and  C_3
REMARK    2  A    between atoms: C_12  and  C_13
REMARK    3  A    between atoms: C_13  and  N_14
REMARK    4  A    between atoms: C_16  and  C_17
REMARK    5  A    between atoms: C_17  and  O_18
REMARK                            x       y       z     vdW  Elec       q    Type
REMARK                         _______ _______ _______ _____ _____    ______ ____
ROOT
ATOM      1  O   UNL     1       3.891   2.386  17.080  0.00  0.00    +0.000 OA
ATOM      2  C   UNL     1       4.027   3.205  17.990  0.00  0.00    +0.000 C 
ATOM      3  N   UNL     1       4.959   4.247  17.866  0.00  0.00    +0.000 N 
ATOM      4  C   UNL     1       5.768   4.332  16.646  0.00  0.00    +0.000 C 
ATOM      5  C   UNL     1       7.232   4.609  16.987  0.00  0.00    +0.000 C 
ATOM      6  C   UNL     1       7.413   5.824  17.920  0.00  0.00    +0.000 C 
ATOM      7  C   UNL     1       6.494   5.663  19.143  0.00  0.00    +0.000 C 
ATOM      8  C   UNL     1       5.039   5.420  18.731  0.00  0.00    +0.000 C 
ENDROOT
BRANCH   2   9
ATOM      9  C   UNL     1       3.211   3.128  19.193  0.00  0.00    +0.000 A 
ATOM     10  S   UNL     1       1.608   3.755  19.108  0.00  0.00    +0.000 S 
ATOM     11  C   UNL     1       1.299   3.380  20.745  0.00  0.00    +0.000 A 
ATOM     12  C   UNL     1       2.377   2.771  21.343  0.00  0.00    +0.000 A 
ATOM     13  C   UNL     1       3.448   2.555  20.429  0.00  0.00    +0.000 A 
ATOM     14 CL   UNL     1       4.831   1.666  20.913  0.00  0.00    +0.000 Cl
ENDBRANCH   2   9
BRANCH   6  15
ATOM     15  C   UNL     1       7.140   7.181  17.252  0.00  0.00    +0.000 C 
BRANCH  15  16
ATOM     16  N   UNL     1       7.795   8.303  17.883  0.00  0.00    +0.000 N 
ATOM     17  C   UNL     1       7.796   9.602  17.476  0.00  0.00    +0.000 A 
ATOM     18  C   UNL     1       8.747  10.194  18.277  0.00  0.00    +0.000 A 
ATOM     19  N   UNL     1       9.249   9.258  19.146  0.00  0.00    +0.000 NA
ATOM     20  N   UNL     1       8.654   8.103  18.893  0.00  0.00    +0.000 NA
BRANCH  18  21
ATOM     21  C   UNL     1       9.293  11.567  18.253  0.00  0.00    +0.000 C 
BRANCH  21  22
ATOM     22  O   UNL     1      10.094  11.825  19.406  0.00  0.00    +0.000 OA
ATOM     23  H   UNL     1       9.495  11.730  20.168  0.00  0.00    +0.000 HD
ENDBRANCH  21  22
ENDBRANCH  18  21
ENDBRANCH  15  16
ENDBRANCH   6  15
TORSDOF 5
ENDMDL
MODEL 2
REMARK VINA RESULT:      -6.3      3.936      6.504
REMARK  Name = 
REMARK  5 active torsions:
REMARK  status: ('A' for Active; 'I' for Inactive)
REMARK    1  A    between atoms: C_2  and  C_3
REMARK    2  A    between atoms: C_12  and  C_13
REMARK    3  A    between atoms: C_13  and  N_14
REMARK    4  A    between atoms: C_16  and  C_17
REMARK    5  A    between atoms: C_17  and  O_18
REMARK                            x       y       z     vdW  Elec       q    Type
REMARK                         _______ _______ _______ _____ _____    ______ ____
ROOT
ATOM      1  O   UNL     1       5.994   4.628  19.896  0.00  0.00    +0.000 OA
ATOM      2  C   UNL     1       5.154   4.388  19.027  0.00  0.00    +0.000 C 
ATOM      3  N   UNL     1       5.530   4.355  17.675  0.00  0.00    +0.000 N 
ATOM      4  C   UNL     1       6.928   4.621  17.322  0.00  0.00    +0.000 C 
ATOM      5  C   UNL     1       7.013   5.575  16.131  0.00  0.00    +0.000 C 
ATOM      6  C   UNL     1       6.162   5.114  14.930  0.00  0.00    +0.000 C 
ATOM      7  C   UNL     1       4.730   4.818  15.408  0.00  0.00    +0.000 C 
ATOM      8  C   UNL     1       4.717   3.834  16.581  0.00  0.00    +0.000 C 
ENDROOT
BRANCH   2   9
ATOM      9  C   UNL     1       3.770   4.107  19.381  0.00  0.00    +0.000 A 
ATOM     10  S   UNL     1       3.462   2.712  20.342  0.00  0.00    +0.000 S 
ATOM     11  C   UNL     1       1.777   2.989  20.332  0.00  0.00    +0.000 A 
ATOM     12  C   UNL     1       1.450   4.128  19.635  0.00  0.00    +0.000 A 
ATOM     13  C   UNL     1       2.603   4.814  19.155  0.00  0.00    +0.000 A 
ATOM     14 CL   UNL     1       2.445   6.344  18.398  0.00  0.00    +0.000 Cl
ENDBRANCH   2   9
BRANCH   6  15
ATOM     15  C   UNL     1       6.718   3.884  14.195  0.00  0.00    +0.000 C 
BRANCH  15  16
ATOM     16  N   UNL     1       6.020   3.546  12.977  0.00  0.00    +0.000 N 
ATOM     17  C   UNL     1       4.809   4.004  12.559  0.00  0.00    +0.000 A 
ATOM     18  C   UNL     1       4.510   3.200  11.481  0.00  0.00    +0.000 A 
ATOM     19  N   UNL     1       5.549   2.328  11.269  0.00  0.00    +0.000 NA
ATOM     20  N   UNL     1       6.468   2.554  12.194  0.00  0.00    +0.000 NA
BRANCH  18  21
ATOM     21  C   UNL     1       3.284   3.122  10.660  0.00  0.00    +0.000 C 
BRANCH  21  22
ATOM     22  O   UNL     1       3.166   4.254   9.798  0.00  0.00    +0.000 OA
ATOM     23  H   UNL     1       4.062   4.413   9.450  0.00  0.00    +0.000 HD
ENDBRANCH  21  22
ENDBRANCH  18  21
ENDBRANCH  15  16
ENDBRANCH   6  15
TORSDOF 5
ENDMDL
MODEL 3
REMARK VINA RESULT:      -6.2      3.593      5.756
REMARK  Name = 
REMARK  5 active torsions:
REMARK  status: ('A' for Active; 'I' for Inactive)
REMARK    1  A    between atoms: C_2  and  C_3
REMARK    2  A    between atoms: C_12  and  C_13
REMARK    3  A    between atoms: C_13  and  N_14
REMARK    4  A    between atoms: C_16  and  C_17
REMARK    5  A    between atoms: C_17  and  O_18
REMARK                            x       y       z     vdW  Elec       q    Type
REMARK                         _______ _______ _______ _____ _____    ______ ____
ROOT
ATOM      1  O   UNL     1       5.163   4.253  20.461  0.00  0.00    +0.000 OA
ATOM      2  C   UNL     1       4.634   4.107  19.357  0.00  0.00    +0.000 C 
ATOM      3  N   UNL     1       5.339   4.440  18.190  0.00  0.00    +0.000 N 
ATOM      4  C   UNL     1       6.700   4.970  18.311  0.00  0.00    +0.000 C 
ATOM      5  C   UNL     1       6.894   6.176  17.392  0.00  0.00    +0.000 C 
ATOM      6  C   UNL     1       6.482   5.893  15.933  0.00  0.00    +0.000 C 
ATOM      7  C   UNL     1       5.062   5.301  15.915  0.00  0.00    +0.000 C 
ATOM      8  C   UNL     1       4.946   4.079  16.831  0.00  0.00    +0.000 C 
ENDROOT
BRANCH   2   9
ATOM      9  C   UNL     1       3.288   3.565  19.239  0.00  0.00    +0.000 A 
ATOM     10  S   UNL     1       1.970   4.647  19.481  0.00  0.00    +0.000 S 
ATOM     11  C   UNL     1       0.818   3.412  19.236  0.00  0.00    +0.000 A 
ATOM     12  C   UNL     1       1.413   2.205  18.953  0.00  0.00    +0.000 A 
ATOM     13  C   UNL     1       2.832   2.311  18.877  0.00  0.00    +0.000 A 
ATOM     14 CL   UNL     1       3.772   0.968  18.377  0.00  0.00    +0.000 Cl
ENDBRANCH   2   9
BRANCH   6  15
ATOM     15  C   UNL     1       7.436   4.954  15.176  0.00  0.00    +0.000 C 
BRANCH  15  16
ATOM     16  N   UNL     1       6.951   4.519  13.888  0.00  0.00    +0.000 N 
ATOM     17  C   UNL     1       6.033   3.548  13.629  0.00  0.00    +0.000 A 
ATOM     18  C   UNL     1       6.116   3.373  12.266  0.00  0.00    +0.000 A 
ATOM     19  N   UNL     1       7.037   4.253  11.756  0.00  0.00    +0.000 NA
ATOM     20  N   UNL     1       7.540   4.950  12.762  0.00  0.00    +0.000 NA
BRANCH  18  21
ATOM     21  C   UNL     1       5.454   2.386  11.388  0.00  0.00    +0.000 C 
BRANCH  21  22
ATOM     22  O   UNL     1       6.135   1.132  11.413  0.00  0.00    +0.000 OA
ATOM     23  H   UNL     1       5.442   0.460  11.546  0.00  0.00    +0.000 HD
ENDBRANCH  21  22
ENDBRANCH  18  21
ENDBRANCH  15  16
ENDBRANCH   6  15
TORSDOF 5
ENDMDL
MODEL 4
REMARK VINA RESULT:      -6.1      5.200      6.750
REMARK  Name = 
REMARK  5 active torsions:
REMARK  status: ('A' for Active; 'I' for Inactive)
REMARK    1  A    between atoms: C_2  and  C_3
REMARK    2  A    between atoms: C_12  and  C_13
REMARK    3  A    between atoms: C_13  and  N_14
REMARK    4  A    between atoms: C_16  and  C_17
REMARK    5  A    between atoms: C_17  and  O_18
REMARK                            x       y       z     vdW  Elec       q    Type
REMARK                         _______ _______ _______ _____ _____    ______ ____
ROOT
ATOM      1  O   UNL     1       5.002   2.909  19.703  0.00  0.00    +0.000 OA
ATOM      2  C   UNL     1       4.876   3.960  19.073  0.00  0.00    +0.000 C 
ATOM      3  N   UNL     1       3.935   4.918  19.482  0.00  0.00    +0.000 N 
ATOM      4  C   UNL     1       3.105   4.638  20.658  0.00  0.00    +0.000 C 
ATOM      5  C   UNL     1       1.645   5.001  20.388  0.00  0.00    +0.000 C 
ATOM      6  C   UNL     1       1.471   6.436  19.852  0.00  0.00    +0.000 C 
ATOM      7  C   UNL     1       2.412   6.645  18.653  0.00  0.00    +0.000 C 
ATOM      8  C   UNL     1       3.861   6.294  19.001  0.00  0.00    +0.000 C 
ENDROOT
BRANCH   2   9
ATOM      9  C   UNL     1       5.712   4.243  17.916  0.00  0.00    +0.000 A 
ATOM     10  S   UNL     1       5.079   3.855  16.362  0.00  0.00    +0.000 S 
ATOM     11  C   UNL     1       6.495   4.388  15.572  0.00  0.00    +0.000 A 
ATOM     12  C   UNL     1       7.425   4.874  16.461  0.00  0.00    +0.000 A 
ATOM     13  C   UNL     1       6.944   4.863  17.802  0.00  0.00    +0.000 A 
ATOM     14 CL   UNL     1       7.870   5.572  19.058  0.00  0.00    +0.000 Cl
ENDBRANCH   2   9
BRANCH   6  15
ATOM     15  C   UNL     1       1.724   7.537  20.896  0.00  0.00    +0.000 C 
BRANCH  15  16
ATOM     16  N   UNL     1       0.801   8.645  20.834  0.00  0.00    +0.000 N 
ATOM     17  C   UNL     1       0.751   9.635  19.901  0.00  0.00    +0.000 A 
ATOM     18  C   UNL     1      -0.136  10.544  20.435  0.00  0.00    +0.000 A 
ATOM     19  N   UNL     1      -0.608  10.061  21.630  0.00  0.00    +0.000 NA
ATOM     20  N   UNL     1      -0.026   8.895  21.861  0.00  0.00    +0.000 NA
BRANCH  18  21
ATOM     21  C   UNL     1      -0.533  11.883  19.956  0.00  0.00    +0.000 C 
BRANCH  21  22
ATOM     22  O   UNL     1      -1.904  11.904  19.556  0.00  0.00    +0.000 OA
ATOM     23  H   UNL     1      -1.897  12.131  18.608  0.00  0.00    +0.000 HD
ENDBRANCH  21  22
ENDBRANCH  18  21
ENDBRANCH  15  16
ENDBRANCH   6  15
TORSDOF 5
ENDMDL
MODEL 5
REMARK VINA RESULT:      -6.0      2.238      2.732
REMARK  Name = 
REMARK  5 active torsions:
REMARK  status: ('A' for Active; 'I' for Inactive)
REMARK    1  A    between atoms: C_2  and  C_3
REMARK    2  A    between atoms: C_12  and  C_13
REMARK    3  A    between atoms: C_13  and  N_14
REMARK    4  A    between atoms: C_16  and  C_17
REMARK    5  A    between atoms: C_17  and  O_18
REMARK                            x       y       z     vdW  Elec       q    Type
REMARK                         _______ _______ _______ _____ _____    ______ ____
ROOT
ATOM      1  O   UNL     1       2.463   6.752  19.654  0.00  0.00    +0.000 OA
ATOM      2  C   UNL     1       2.863   5.638  19.315  0.00  0.00    +0.000 C 
ATOM      3  N   UNL     1       3.918   5.518  18.397  0.00  0.00    +0.000 N 
ATOM      4  C   UNL     1       4.520   6.736  17.847  0.00  0.00    +0.000 C 
ATOM      5  C   UNL     1       4.718   6.607  16.337  0.00  0.00    +0.000 C 
ATOM      6  C   UNL     1       5.475   5.324  15.937  0.00  0.00    +0.000 C 
ATOM      7  C   UNL     1       4.796   4.111  16.596  0.00  0.00    +0.000 C 
ATOM      8  C   UNL     1       4.658   4.293  18.110  0.00  0.00    +0.000 C 
ENDROOT
BRANCH   2   9
ATOM      9  C   UNL     1       2.275   4.429  19.875  0.00  0.00    +0.000 A 
ATOM     10  S   UNL     1       2.367   4.217  21.582  0.00  0.00    +0.000 S 
ATOM     11  C   UNL     1       1.570   2.709  21.509  0.00  0.00    +0.000 A 
ATOM     12  C   UNL     1       1.218   2.377  20.222  0.00  0.00    +0.000 A 
ATOM     13  C   UNL     1       1.554   3.403  19.292  0.00  0.00    +0.000 A 
ATOM     14 CL   UNL     1       1.064   3.279  17.654  0.00  0.00    +0.000 Cl
ENDBRANCH   2   9
BRANCH   6  15
ATOM     15  C   UNL     1       6.969   5.332  16.298  0.00  0.00    +0.000 C 
BRANCH  15  16
ATOM     16  N   UNL     1       7.364   6.395  17.192  0.00  0.00    +0.000 N 
ATOM     17  C   UNL     1       7.524   7.714  16.897  0.00  0.00    +0.000 A 
ATOM     18  C   UNL     1       8.130   8.230  18.021  0.00  0.00    +0.000 A 
ATOM     19  N   UNL     1       8.277   7.230  18.950  0.00  0.00    +0.000 NA
ATOM     20  N   UNL     1       7.801   6.111  18.428  0.00  0.00    +0.000 NA
BRANCH  18  21
ATOM     21  C   UNL     1       8.662   9.583  18.282  0.00  0.00    +0.000 C 
BRANCH  21  22
ATOM     22  O   UNL     1       9.336   9.640  19.539  0.00  0.00    +0.000 OA
ATOM     23  H   UNL     1      10.118   9.067  19.443  0.00  0.00    +0.000 HD
ENDBRANCH  21  22
ENDBRANCH  18  21
ENDBRANCH  15  16
ENDBRANCH   6  15
TORSDOF 5
ENDMDL
MODEL 6
REMARK VINA RESULT:      -6.0      5.076      6.665
REMARK  Name = 
REMARK  5 active torsions:
REMARK  status: ('A' for Active; 'I' for Inactive)
REMARK    1  A    between atoms: C_2  and  C_3
REMARK    2  A    between atoms: C_12  and  C_13
REMARK    3  A    between atoms: C_13  and  N_14
REMARK    4  A    between atoms: C_16  and  C_17
REMARK    5  A    between atoms: C_17  and  O_18
REMARK                            x       y       z     vdW  Elec       q    Type
REMARK                         _______ _______ _______ _____ _____    ______ ____
ROOT
ATOM      1  O   UNL     1       4.893   2.862  19.366  0.00  0.00    +0.000 OA
ATOM      2  C   UNL     1       4.833   3.960  18.811  0.00  0.00    +0.000 C 
ATOM      3  N   UNL     1       3.956   4.944  19.292  0.00  0.00    +0.000 N 
ATOM      4  C   UNL     1       3.113   4.637  20.450  0.00  0.00    +0.000 C 
ATOM      5  C   UNL     1       1.679   5.110  20.216  0.00  0.00    +0.000 C 
ATOM      6  C   UNL     1       1.596   6.588  19.782  0.00  0.00    +0.000 C 
ATOM      7  C   UNL     1       2.545   6.819  18.594  0.00  0.00    +0.000 C 
ATOM      8  C   UNL     1       3.969   6.353  18.907  0.00  0.00    +0.000 C 
ENDROOT
BRANCH   2   9
ATOM      9  C   UNL     1       5.684   4.269  17.671  0.00  0.00    +0.000 A 
ATOM     10  S   UNL     1       5.053   3.952  16.099  0.00  0.00    +0.000 S 
ATOM     11  C   UNL     1       6.486   4.485  15.339  0.00  0.00    +0.000 A 
ATOM     12  C   UNL     1       7.419   4.919  16.251  0.00  0.00    +0.000 A 
ATOM     13  C   UNL     1       6.928   4.867  17.588  0.00  0.00    +0.000 A 
ATOM     14 CL   UNL     1       7.859   5.510  18.875  0.00  0.00    +0.000 Cl
ENDBRANCH   2   9
BRANCH   6  15
ATOM     15  C   UNL     1       1.921   7.594  20.898  0.00  0.00    +0.000 C 
BRANCH  15  16
ATOM     16  N   UNL     1       1.203   8.844  20.806  0.00  0.00    +0.000 N 
ATOM     17  C   UNL     1       0.772   9.633  21.828  0.00  0.00    +0.000 A 
ATOM     18  C   UNL     1      -0.045  10.553  21.209  0.00  0.00    +0.000 A 
ATOM     19  N   UNL     1      -0.048  10.313  19.857  0.00  0.00    +0.000 NA
ATOM     20  N   UNL     1       0.724   9.263  19.625  0.00  0.00    +0.000 NA
BRANCH  18  21
ATOM     21  C   UNL     1      -0.900  11.610  21.787  0.00  0.00    +0.000 C 
BRANCH  21  22
ATOM     22  O   UNL     1      -0.697  11.727  23.195  0.00  0.00    +0.000 OA
ATOM     23  H   UNL     1       0.084  12.301  23.301  0.00  0.00    +0.000 HD
ENDBRANCH  21  22
ENDBRANCH  18  21
ENDBRANCH  15  16
ENDBRANCH   6  15
TORSDOF 5
ENDMDL
MODEL 7
REMARK VINA RESULT:      -5.9      6.281      8.775
REMARK  Name = 
REMARK  5 active torsions:
REMARK  status: ('A' for Active; 'I' for Inactive)
REMARK    1  A    between atoms: C_2  and  C_3
REMARK    2  A    between atoms: C_12  and  C_13
REMARK    3  A    between atoms: C_13  and  N_14
REMARK    4  A    between atoms: C_16  and  C_17
REMARK    5  A    between atoms: C_17  and  O_18
REMARK                            x       y       z     vdW  Elec       q    Type
REMARK                         _______ _______ _______ _____ _____    ______ ____
ROOT
ATOM      1  O   UNL     1       0.084  10.361  21.539  0.00  0.00    +0.000 OA
ATOM      2  C   UNL     1       0.469  10.475  20.375  0.00  0.00    +0.000 C 
ATOM      3  N   UNL     1       0.946   9.354  19.678  0.00  0.00    +0.000 N 
ATOM      4  C   UNL     1       0.986   8.059  20.362  0.00  0.00    +0.000 C 
ATOM      5  C   UNL     1       2.314   7.350  20.100  0.00  0.00    +0.000 C 
ATOM      6  C   UNL     1       2.659   7.253  18.600  0.00  0.00    +0.000 C 
ATOM      7  C   UNL     1       2.546   8.649  17.964  0.00  0.00    +0.000 C 
ATOM      8  C   UNL     1       1.182   9.288  18.238  0.00  0.00    +0.000 C 
ENDROOT
BRANCH   2   9
ATOM      9  C   UNL     1       0.413  11.760  19.692  0.00  0.00    +0.000 A 
ATOM     10  S   UNL     1       1.814  12.759  19.759  0.00  0.00    +0.000 S 
ATOM     11  C   UNL     1       1.066  13.993  18.847  0.00  0.00    +0.000 A 
ATOM     12  C   UNL     1      -0.213  13.651  18.476  0.00  0.00    +0.000 A 
ATOM     13  C   UNL     1      -0.561  12.334  18.895  0.00  0.00    +0.000 A 
ATOM     14 CL   UNL     1      -2.047  11.636  18.404  0.00  0.00    +0.000 Cl
ENDBRANCH   2   9
BRANCH   6  15
ATOM     15  C   UNL     1       1.786   6.262  17.812  0.00  0.00    +0.000 C 
BRANCH  15  16
ATOM     16  N   UNL     1       2.032   4.873  18.116  0.00  0.00    +0.000 N 
ATOM     17  C   UNL     1       3.122   4.336  18.731  0.00  0.00    +0.000 A 
ATOM     18  C   UNL     1       2.961   2.979  18.556  0.00  0.00    +0.000 A 
ATOM     19  N   UNL     1       1.784   2.749  17.888  0.00  0.00    +0.000 NA
ATOM     20  N   UNL     1       1.225   3.920  17.626  0.00  0.00    +0.000 NA
BRANCH  18  21
ATOM     21  C   UNL     1       3.863   1.860  18.898  0.00  0.00    +0.000 C 
BRANCH  21  22
ATOM     22  O   UNL     1       5.027   2.324  19.582  0.00  0.00    +0.000 OA
ATOM     23  H   UNL     1       5.755   1.753  19.278  0.00  0.00    +0.000 HD
ENDBRANCH  21  22
ENDBRANCH  18  21
ENDBRANCH  15  16
ENDBRANCH   6  15
TORSDOF 5
ENDMDL
MODEL 8
REMARK VINA RESULT:      -5.8      4.443      6.046
REMARK  Name = 
REMARK  5 active torsions:
REMARK  status: ('A' for Active; 'I' for Inactive)
REMARK    1  A    between atoms: C_2  and  C_3
REMARK    2  A    between atoms: C_12  and  C_13
REMARK    3  A    between atoms: C_13  and  N_14
REMARK    4  A    between atoms: C_16  and  C_17
REMARK    5  A    between atoms: C_17  and  O_18
REMARK                            x       y       z     vdW  Elec       q    Type
REMARK                         _______ _______ _______ _____ _____    ______ ____
ROOT
ATOM      1  O   UNL     1       1.818   6.131  20.865  0.00  0.00    +0.000 OA
ATOM      2  C   UNL     1       2.266   6.742  19.894  0.00  0.00    +0.000 C 
ATOM      3  N   UNL     1       3.235   6.145  19.072  0.00  0.00    +0.000 N 
ATOM      4  C   UNL     1       3.706   4.795  19.398  0.00  0.00    +0.000 C 
ATOM      5  C   UNL     1       5.228   4.713  19.292  0.00  0.00    +0.000 C 
ATOM      6  C   UNL     1       5.766   5.232  17.943  0.00  0.00    +0.000 C 
ATOM      7  C   UNL     1       5.183   6.630  17.671  0.00  0.00    +0.000 C 
ATOM      8  C   UNL     1       3.655   6.634  17.762  0.00  0.00    +0.000 C 
ENDROOT
BRANCH   2   9
ATOM      9  C   UNL     1       1.786   8.075  19.562  0.00  0.00    +0.000 A 
ATOM     10  S   UNL     1       1.902   8.578  17.919  0.00  0.00    +0.000 S 
ATOM     11  C   UNL     1       1.236  10.111  18.265  0.00  0.00    +0.000 A 
ATOM     12  C   UNL     1       0.908  10.238  19.595  0.00  0.00    +0.000 A 
ATOM     13  C   UNL     1       1.152   9.039  20.326  0.00  0.00    +0.000 A 
ATOM     14 CL   UNL     1       0.667   8.913  21.964  0.00  0.00    +0.000 Cl
ENDBRANCH   2   9
BRANCH   6  15
ATOM     15  C   UNL     1       5.468   4.314  16.747  0.00  0.00    +0.000 C 
BRANCH  15  16
ATOM     16  N   UNL     1       6.164   4.667  15.532  0.00  0.00    +0.000 N 
ATOM     17  C   UNL     1       5.912   4.223  14.270  0.00  0.00    +0.000 A 
ATOM     18  C   UNL     1       6.994   4.669  13.544  0.00  0.00    +0.000 A 
ATOM     19  N   UNL     1       7.825   5.384  14.370  0.00  0.00    +0.000 NA
ATOM     20  N   UNL     1       7.302   5.375  15.586  0.00  0.00    +0.000 NA
BRANCH  18  21
ATOM     21  C   UNL     1       7.366   4.420  12.136  0.00  0.00    +0.000 C 
BRANCH  21  22
ATOM     22  O   UNL     1       6.960   3.117  11.716  0.00  0.00    +0.000 OA
ATOM     23  H   UNL     1       6.746   2.633  12.535  0.00  0.00    +0.000 HD
ENDBRANCH  21  22
ENDBRANCH  18  21
ENDBRANCH  15  16
ENDBRANCH   6  15
TORSDOF 5
ENDMDL
MODEL 9
REMARK VINA RESULT:      -5.8      5.338      6.660
REMARK  Name = 
REMARK  5 active torsions:
REMARK  status: ('A' for Active; 'I' for Inactive)
REMARK    1  A    between atoms: C_2  and  C_3
REMARK    2  A    between atoms: C_12  and  C_13
REMARK    3  A    between atoms: C_13  and  N_14
REMARK    4  A    between atoms: C_16  and  C_17
REMARK    5  A    between atoms: C_17  and  O_18
REMARK                            x       y       z     vdW  Elec       q    Type
REMARK                         _______ _______ _______ _____ _____    ______ ____
ROOT
ATOM      1  O   UNL     1       0.731  10.169  18.334  0.00  0.00    +0.000 OA
ATOM      2  C   UNL     1       0.935   9.492  19.343  0.00  0.00    +0.000 C 
ATOM      3  N   UNL     1       1.739   8.344  19.269  0.00  0.00    +0.000 N 
ATOM      4  C   UNL     1       2.316   7.965  17.977  0.00  0.00    +0.000 C 
ATOM      5  C   UNL     1       2.156   6.465  17.732  0.00  0.00    +0.000 C 
ATOM      6  C   UNL     1       2.675   5.605  18.902  0.00  0.00    +0.000 C 
ATOM      7  C   UNL     1       2.048   6.107  20.215  0.00  0.00    +0.000 C 
ATOM      8  C   UNL     1       2.273   7.609  20.412  0.00  0.00    +0.000 C 
ENDROOT
BRANCH   2   9
ATOM      9  C   UNL     1       0.374   9.880  20.629  0.00  0.00    +0.000 A 
ATOM     10  S   UNL     1      -0.346   8.644  21.588  0.00  0.00    +0.000 S 
ATOM     11  C   UNL     1      -0.769   9.747  22.820  0.00  0.00    +0.000 A 
ATOM     12  C   UNL     1      -0.355  11.025  22.528  0.00  0.00    +0.000 A 
ATOM     13  C   UNL     1       0.372  11.088  21.303  0.00  0.00    +0.000 A 
ATOM     14 CL   UNL     1       1.123  12.549  20.819  0.00  0.00    +0.000 Cl
ENDBRANCH   2   9
BRANCH   6  15
ATOM     15  C   UNL     1       4.206   5.586  19.043  0.00  0.00    +0.000 C 
BRANCH  15  16
ATOM     16  N   UNL     1       4.924   5.647  17.792  0.00  0.00    +0.000 N 
ATOM     17  C   UNL     1       5.121   4.641  16.896  0.00  0.00    +0.000 A 
ATOM     18  C   UNL     1       6.052   5.159  16.023  0.00  0.00    +0.000 A 
ATOM     19  N   UNL     1       6.349   6.446  16.395  0.00  0.00    +0.000 NA
ATOM     20  N   UNL     1       5.648   6.732  17.481  0.00  0.00    +0.000 NA
BRANCH  18  21
ATOM     21  C   UNL     1       6.758   4.521  14.893  0.00  0.00    +0.000 C 
BRANCH  21  22
ATOM     22  O   UNL     1       7.741   5.395  14.337  0.00  0.00    +0.000 OA
ATOM     23  H   UNL     1       8.583   4.908  14.388  0.00  0.00    +0.000 HD
ENDBRANCH  21  22
ENDBRANCH  18  21
ENDBRANCH  15  16
ENDBRANCH   6  15
TORSDOF 5
ENDMDL
