MODEL 1
REMARK VINA RESULT:      -7.9      0.000      0.000
REMARK  Name = 
REMARK  7 active torsions:
REMARK  status: ('A' for Active; 'I' for Inactive)
REMARK    1  A    between atoms: C_1  and  S_2
REMARK    2  A    between atoms: S_2  and  C_5
REMARK    3  A    between atoms: N_13  and  C_14
REMARK    4  A    between atoms: C_14  and  C_15
REMARK    5  A    between atoms: C_23  and  C_24
REMARK    6  A    between atoms: C_24  and  C_25
REMARK    7  A    between atoms: C_25  and  O_27
REMARK                            x       y       z     vdW  Elec       q    Type
REMARK                         _______ _______ _______ _____ _____    ______ ____
ROOT
ATOM      1  C   UNL     1       6.129   5.649  16.663  0.00  0.00    +0.000 A 
ATOM      2  C   UNL     1       6.672   5.191  15.435  0.00  0.00    +0.000 A 
ATOM      3  C   UNL     1       6.121   4.135  14.732  0.00  0.00    +0.000 A 
ATOM      4  F   UNL     1       6.695   3.728  13.592  0.00  0.00    +0.000 F 
ATOM      5  C   UNL     1       5.016   3.469  15.213  0.00  0.00    +0.000 A 
ATOM      6  C   UNL     1       4.425   3.901  16.410  0.00  0.00    +0.000 A 
ATOM      7  C   UNL     1       3.370   3.367  17.155  0.00  0.00    +0.000 A 
ATOM      8  C   UNL     1       3.189   4.142  18.249  0.00  0.00    +0.000 A 
ATOM      9  N   UNL     1       4.025   5.231  18.202  0.00  0.00    +0.000 N 
ATOM     10  C   UNL     1       4.926   5.026  17.127  0.00  0.00    +0.000 A 
ATOM     11  C   UNL     1       2.157   3.600  19.188  0.00  0.00    +0.000 C 
ATOM     12  C   UNL     1       1.441   2.569  18.220  0.00  0.00    +0.000 C 
ATOM     13  C   UNL     1       2.484   2.188  17.123  0.00  0.00    +0.000 C 
ENDROOT
BRANCH   1  15
ATOM     14  C   UNL     1       7.777   6.240  18.908  0.00  0.00    +0.000 C 
ATOM     15  S   UNL     1       7.100   6.937  17.429  0.00  0.00    +0.000 S 
ATOM     16  O   UNL     1       6.207   7.968  17.913  0.00  0.00    +0.000 OA
ATOM     17  O   UNL     1       8.193   7.230  16.524  0.00  0.00    +0.000 OA
ENDBRANCH   1  15
BRANCH   9  18
ATOM     18  C   UNL     1       3.939   6.300  19.209  0.00  0.00    +0.000 C 
BRANCH  18  19
ATOM     19  C   UNL     1       2.874   7.356  19.008  0.00  0.00    +0.000 A 
ATOM     20  C   UNL     1       2.649   8.013  17.793  0.00  0.00    +0.000 A 
ATOM     21  C   UNL     1       1.708   9.050  17.713  0.00  0.00    +0.000 A 
ATOM     22  C   UNL     1       0.971   9.419  18.838  0.00  0.00    +0.000 A 
ATOM     23 CL   UNL     1      -0.087  10.775  18.773  0.00  0.00    +0.000 Cl
ATOM     24  C   UNL     1       1.099   8.703  20.020  0.00  0.00    +0.000 A 
ATOM     25  C   UNL     1       2.023   7.660  20.092  0.00  0.00    +0.000 A 
ENDBRANCH  18  19
ENDBRANCH   9  18
BRANCH  11  26
ATOM     26  C   UNL     1       2.825   2.889  20.371  0.00  0.00    +0.000 C 
BRANCH  26  27
ATOM     27  C   UNL     1       2.211   3.260  21.698  0.00  0.00    +0.000 C 
ATOM     28  O   UNL     1       1.571   2.510  22.417  0.00  0.00    +0.000 OA
BRANCH  27  29
ATOM     29  O   UNL     1       2.445   4.552  22.029  0.00  0.00    +0.000 OA
ATOM     30  H   UNL     1       2.547   5.147  21.261  0.00  0.00    +0.000 HD
ENDBRANCH  27  29
ENDBRANCH  26  27
ENDBRANCH  11  26
TORSDOF 6
ENDMDL
MODEL 2
REMARK VINA RESULT:      -7.0      0.853      1.015
REMARK  Name = 
REMARK  7 active torsions:
REMARK  status: ('A' for Active; 'I' for Inactive)
REMARK    1  A    between atoms: C_1  and  S_2
REMARK    2  A    between atoms: S_2  and  C_5
REMARK    3  A    between atoms: N_13  and  C_14
REMARK    4  A    between atoms: C_14  and  C_15
REMARK    5  A    between atoms: C_23  and  C_24
REMARK    6  A    between atoms: C_24  and  C_25
REMARK    7  A    between atoms: C_25  and  O_27
REMARK                            x       y       z     vdW  Elec       q    Type
REMARK                         _______ _______ _______ _____ _____    ______ ____
ROOT
ATOM      1  C   UNL     1       6.264   5.626  16.693  0.00  0.00    +0.000 A 
ATOM      2  C   UNL     1       6.817   5.117  15.490  0.00  0.00    +0.000 A 
ATOM      3  C   UNL     1       6.242   4.065  14.799  0.00  0.00    +0.000 A 
ATOM      4  F   UNL     1       6.826   3.609  13.682  0.00  0.00    +0.000 F 
ATOM      5  C   UNL     1       5.101   3.454  15.269  0.00  0.00    +0.000 A 
ATOM      6  C   UNL     1       4.499   3.939  16.441  0.00  0.00    +0.000 A 
ATOM      7  C   UNL     1       3.408   3.463  17.172  0.00  0.00    +0.000 A 
ATOM      8  C   UNL     1       3.232   4.272  18.244  0.00  0.00    +0.000 A 
ATOM      9  N   UNL     1       4.111   5.326  18.190  0.00  0.00    +0.000 N 
ATOM     10  C   UNL     1       5.028   5.060  17.143  0.00  0.00    +0.000 A 
ATOM     11  C   UNL     1       2.158   3.793  19.170  0.00  0.00    +0.000 C 
ATOM     12  C   UNL     1       1.425   2.767  18.210  0.00  0.00    +0.000 C 
ATOM     13  C   UNL     1       2.477   2.319  17.148  0.00  0.00    +0.000 C 
ENDROOT
BRANCH   1  15
ATOM     14  C   UNL     1       6.240   8.329  17.585  0.00  0.00    +0.000 C 
ATOM     15  S   UNL     1       7.267   6.893  17.451  0.00  0.00    +0.000 S 
ATOM     16  O   UNL     1       8.297   7.294  16.516  0.00  0.00    +0.000 OA
ATOM     17  O   UNL     1       7.581   6.433  18.789  0.00  0.00    +0.000 OA
ENDBRANCH   1  15
BRANCH   9  18
ATOM     18  C   UNL     1       4.043   6.423  19.170  0.00  0.00    +0.000 C 
BRANCH  18  19
ATOM     19  C   UNL     1       2.917   7.421  19.014  0.00  0.00    +0.000 A 
ATOM     20  C   UNL     1       2.632   8.092  17.819  0.00  0.00    +0.000 A 
ATOM     21  C   UNL     1       1.634   9.076  17.781  0.00  0.00    +0.000 A 
ATOM     22  C   UNL     1       0.900   9.378  18.928  0.00  0.00    +0.000 A 
ATOM     23 CL   UNL     1      -0.232  10.674  18.915  0.00  0.00    +0.000 Cl
ATOM     24  C   UNL     1       1.091   8.643  20.090  0.00  0.00    +0.000 A 
ATOM     25  C   UNL     1       2.073   7.653  20.120  0.00  0.00    +0.000 A 
ENDBRANCH  18  19
ENDBRANCH   9  18
BRANCH  11  26
ATOM     26  C   UNL     1       2.771   3.086  20.385  0.00  0.00    +0.000 C 
BRANCH  26  27
ATOM     27  C   UNL     1       1.734   2.644  21.388  0.00  0.00    +0.000 C 
ATOM     28  O   UNL     1       1.950   1.964  22.378  0.00  0.00    +0.000 OA
BRANCH  27  29
ATOM     29  O   UNL     1       0.495   3.088  21.074  0.00  0.00    +0.000 OA
ATOM     30  H   UNL     1       0.267   3.950  21.474  0.00  0.00    +0.000 HD
ENDBRANCH  27  29
ENDBRANCH  26  27
ENDBRANCH  11  26
TORSDOF 6
ENDMDL
MODEL 3
REMARK VINA RESULT:      -7.0      1.083      1.292
REMARK  Name = 
REMARK  7 active torsions:
REMARK  status: ('A' for Active; 'I' for Inactive)
REMARK    1  A    between atoms: C_1  and  S_2
REMARK    2  A    between atoms: S_2  and  C_5
REMARK    3  A    between atoms: N_13  and  C_14
REMARK    4  A    between atoms: C_14  and  C_15
REMARK    5  A    between atoms: C_23  and  C_24
REMARK    6  A    between atoms: C_24  and  C_25
REMARK    7  A    between atoms: C_25  and  O_27
REMARK                            x       y       z     vdW  Elec       q    Type
REMARK                         _______ _______ _______ _____ _____    ______ ____
ROOT
ATOM      1  C   UNL     1       6.076   5.634  16.639  0.00  0.00    +0.000 A 
ATOM      2  C   UNL     1       6.586   5.194  15.391  0.00  0.00    +0.000 A 
ATOM      3  C   UNL     1       6.023   4.141  14.693  0.00  0.00    +0.000 A 
ATOM      4  F   UNL     1       6.566   3.752  13.532  0.00  0.00    +0.000 F 
ATOM      5  C   UNL     1       4.938   3.460  15.199  0.00  0.00    +0.000 A 
ATOM      6  C   UNL     1       4.378   3.875  16.417  0.00  0.00    +0.000 A 
ATOM      7  C   UNL     1       3.351   3.324  17.186  0.00  0.00    +0.000 A 
ATOM      8  C   UNL     1       3.195   4.086  18.295  0.00  0.00    +0.000 A 
ATOM      9  N   UNL     1       4.021   5.182  18.235  0.00  0.00    +0.000 N 
ATOM     10  C   UNL     1       4.892   4.996  17.132  0.00  0.00    +0.000 A 
ATOM     11  C   UNL     1       2.196   3.526  19.257  0.00  0.00    +0.000 C 
ATOM     12  C   UNL     1       1.460   2.499  18.299  0.00  0.00    +0.000 C 
ATOM     13  C   UNL     1       2.473   2.138  17.168  0.00  0.00    +0.000 C 
ENDROOT
BRANCH   1  15
ATOM     14  C   UNL     1       7.715   6.240  18.887  0.00  0.00    +0.000 C 
ATOM     15  S   UNL     1       7.059   6.922  17.391  0.00  0.00    +0.000 S 
ATOM     16  O   UNL     1       6.176   7.973  17.850  0.00  0.00    +0.000 OA
ATOM     17  O   UNL     1       8.162   7.185  16.489  0.00  0.00    +0.000 OA
ENDBRANCH   1  15
BRANCH   9  18
ATOM     18  C   UNL     1       3.956   6.240  19.256  0.00  0.00    +0.000 C 
BRANCH  18  19
ATOM     19  C   UNL     1       2.897   7.307  19.080  0.00  0.00    +0.000 A 
ATOM     20  C   UNL     1       2.678   7.996  17.882  0.00  0.00    +0.000 A 
ATOM     21  C   UNL     1       1.744   9.040  17.828  0.00  0.00    +0.000 A 
ATOM     22  C   UNL     1       1.007   9.384  18.961  0.00  0.00    +0.000 A 
ATOM     23 CL   UNL     1      -0.042  10.748  18.930  0.00  0.00    +0.000 Cl
ATOM     24  C   UNL     1       1.129   8.637  20.125  0.00  0.00    +0.000 A 
ATOM     25  C   UNL     1       2.047   7.588  20.171  0.00  0.00    +0.000 A 
ENDBRANCH  18  19
ENDBRANCH   9  18
BRANCH  11  26
ATOM     26  C   UNL     1       2.904   2.807  20.412  0.00  0.00    +0.000 C 
BRANCH  26  27
ATOM     27  C   UNL     1       4.330   2.436  20.083  0.00  0.00    +0.000 C 
ATOM     28  O   UNL     1       5.299   3.166  20.209  0.00  0.00    +0.000 OA
BRANCH  27  29
ATOM     29  O   UNL     1       4.435   1.170  19.618  0.00  0.00    +0.000 OA
ATOM     30  H   UNL     1       4.061   1.041  18.725  0.00  0.00    +0.000 HD
ENDBRANCH  27  29
ENDBRANCH  26  27
ENDBRANCH  11  26
TORSDOF 6
ENDMDL
MODEL 4
REMARK VINA RESULT:      -7.0      0.697      1.255
REMARK  Name = 
REMARK  7 active torsions:
REMARK  status: ('A' for Active; 'I' for Inactive)
REMARK    1  A    between atoms: C_1  and  S_2
REMARK    2  A    between atoms: S_2  and  C_5
REMARK    3  A    between atoms: N_13  and  C_14
REMARK    4  A    between atoms: C_14  and  C_15
REMARK    5  A    between atoms: C_23  and  C_24
REMARK    6  A    between atoms: C_24  and  C_25
REMARK    7  A    between atoms: C_25  and  O_27
REMARK                            x       y       z     vdW  Elec       q    Type
REMARK                         _______ _______ _______ _____ _____    ______ ____
ROOT
ATOM      1  C   UNL     1       6.202   5.581  16.709  0.00  0.00    +0.000 A 
ATOM      2  C   UNL     1       6.732   5.121  15.476  0.00  0.00    +0.000 A 
ATOM      3  C   UNL     1       6.144   4.096  14.756  0.00  0.00    +0.000 A 
ATOM      4  F   UNL     1       6.706   3.685  13.612  0.00  0.00    +0.000 F 
ATOM      5  C   UNL     1       5.014   3.465  15.224  0.00  0.00    +0.000 A 
ATOM      6  C   UNL     1       4.435   3.902  16.426  0.00  0.00    +0.000 A 
ATOM      7  C   UNL     1       3.359   3.396  17.160  0.00  0.00    +0.000 A 
ATOM      8  C   UNL     1       3.202   4.162  18.265  0.00  0.00    +0.000 A 
ATOM      9  N   UNL     1       4.079   5.219  18.236  0.00  0.00    +0.000 N 
ATOM     10  C   UNL     1       4.975   4.996  17.161  0.00  0.00    +0.000 A 
ATOM     11  C   UNL     1       2.148   3.645  19.192  0.00  0.00    +0.000 C 
ATOM     12  C   UNL     1       1.398   2.655  18.208  0.00  0.00    +0.000 C 
ATOM     13  C   UNL     1       2.429   2.251  17.108  0.00  0.00    +0.000 C 
ENDROOT
BRANCH   1  15
ATOM     14  C   UNL     1       6.215   8.273  17.636  0.00  0.00    +0.000 C 
ATOM     15  S   UNL     1       7.218   6.821  17.496  0.00  0.00    +0.000 S 
ATOM     16  O   UNL     1       8.267   7.214  16.580  0.00  0.00    +0.000 OA
ATOM     17  O   UNL     1       7.506   6.338  18.832  0.00  0.00    +0.000 OA
ENDBRANCH   1  15
BRANCH   9  18
ATOM     18  C   UNL     1       4.029   6.276  19.258  0.00  0.00    +0.000 C 
BRANCH  18  19
ATOM     19  C   UNL     1       2.945   7.323  19.119  0.00  0.00    +0.000 A 
ATOM     20  C   UNL     1       2.088   7.700  20.160  0.00  0.00    +0.000 A 
ATOM     21  C   UNL     1       1.045   8.606  19.924  0.00  0.00    +0.000 A 
ATOM     22  C   UNL     1       0.867   9.159  18.656  0.00  0.00    +0.000 A 
ATOM     23 CL   UNL     1      -0.489  10.168  18.335  0.00  0.00    +0.000 Cl
ATOM     24  C   UNL     1       1.775   8.885  17.643  0.00  0.00    +0.000 A 
ATOM     25  C   UNL     1       2.823   7.996  17.885  0.00  0.00    +0.000 A 
ENDBRANCH  18  19
ENDBRANCH   9  18
BRANCH  11  26
ATOM     26  C   UNL     1       2.786   2.893  20.367  0.00  0.00    +0.000 C 
BRANCH  26  27
ATOM     27  C   UNL     1       2.193   3.279  21.700  0.00  0.00    +0.000 C 
ATOM     28  O   UNL     1       1.551   2.543  22.431  0.00  0.00    +0.000 OA
BRANCH  27  29
ATOM     29  O   UNL     1       2.449   4.569  22.019  0.00  0.00    +0.000 OA
ATOM     30  H   UNL     1       1.954   4.894  22.796  0.00  0.00    +0.000 HD
ENDBRANCH  27  29
ENDBRANCH  26  27
ENDBRANCH  11  26
TORSDOF 6
ENDMDL
MODEL 5
REMARK VINA RESULT:      -6.9      2.715      5.578
REMARK  Name = 
REMARK  7 active torsions:
REMARK  status: ('A' for Active; 'I' for Inactive)
REMARK    1  A    between atoms: C_1  and  S_2
REMARK    2  A    between atoms: S_2  and  C_5
REMARK    3  A    between atoms: N_13  and  C_14
REMARK    4  A    between atoms: C_14  and  C_15
REMARK    5  A    between atoms: C_23  and  C_24
REMARK    6  A    between atoms: C_24  and  C_25
REMARK    7  A    between atoms: C_25  and  O_27
REMARK                            x       y       z     vdW  Elec       q    Type
REMARK                         _______ _______ _______ _____ _____    ______ ____
ROOT
ATOM      1  C   UNL     1       2.852   3.570  19.347  0.00  0.00    +0.000 A 
ATOM      2  C   UNL     1       3.276   2.530  20.213  0.00  0.00    +0.000 A 
ATOM      3  C   UNL     1       4.610   2.310  20.505  0.00  0.00    +0.000 A 
ATOM      4  F   UNL     1       4.953   1.294  21.308  0.00  0.00    +0.000 F 
ATOM      5  C   UNL     1       5.593   3.095  19.944  0.00  0.00    +0.000 A 
ATOM      6  C   UNL     1       5.222   4.155  19.102  0.00  0.00    +0.000 A 
ATOM      7  C   UNL     1       5.999   5.037  18.347  0.00  0.00    +0.000 A 
ATOM      8  C   UNL     1       5.167   5.872  17.681  0.00  0.00    +0.000 A 
ATOM      9  N   UNL     1       3.865   5.633  18.049  0.00  0.00    +0.000 N 
ATOM     10  C   UNL     1       3.856   4.451  18.831  0.00  0.00    +0.000 A 
ATOM     11  C   UNL     1       5.884   6.792  16.745  0.00  0.00    +0.000 C 
ATOM     12  C   UNL     1       7.357   6.640  17.307  0.00  0.00    +0.000 C 
ATOM     13  C   UNL     1       7.422   5.254  18.022  0.00  0.00    +0.000 C 
ENDROOT
BRANCH   1  15
ATOM     14  C   UNL     1       0.596   1.859  19.049  0.00  0.00    +0.000 C 
ATOM     15  S   UNL     1       1.093   3.558  19.037  0.00  0.00    +0.000 S 
ATOM     16  O   UNL     1       0.859   3.975  17.671  0.00  0.00    +0.000 OA
ATOM     17  O   UNL     1       0.466   4.222  20.161  0.00  0.00    +0.000 OA
ENDBRANCH   1  15
BRANCH   9  18
ATOM     18  C   UNL     1       2.770   6.490  17.567  0.00  0.00    +0.000 C 
BRANCH  18  19
ATOM     19  C   UNL     1       2.209   7.508  18.537  0.00  0.00    +0.000 A 
ATOM     20  C   UNL     1       2.099   7.291  19.915  0.00  0.00    +0.000 A 
ATOM     21  C   UNL     1       1.477   8.245  20.734  0.00  0.00    +0.000 A 
ATOM     22  C   UNL     1       0.986   9.429  20.185  0.00  0.00    +0.000 A 
ATOM     23 CL   UNL     1       0.109  10.539  21.165  0.00  0.00    +0.000 Cl
ATOM     24  C   UNL     1       1.189   9.711  18.840  0.00  0.00    +0.000 A 
ATOM     25  C   UNL     1       1.823   8.768  18.032  0.00  0.00    +0.000 A 
ENDBRANCH  18  19
ENDBRANCH   9  18
BRANCH  11  26
ATOM     26  C   UNL     1       5.778   6.282  15.302  0.00  0.00    +0.000 C 
BRANCH  26  27
ATOM     27  C   UNL     1       6.680   5.102  15.032  0.00  0.00    +0.000 C 
ATOM     28  O   UNL     1       6.391   3.932  15.217  0.00  0.00    +0.000 OA
BRANCH  27  29
ATOM     29  O   UNL     1       7.886   5.480  14.546  0.00  0.00    +0.000 OA
ATOM     30  H   UNL     1       8.287   4.837  13.931  0.00  0.00    +0.000 HD
ENDBRANCH  27  29
ENDBRANCH  26  27
ENDBRANCH  11  26
TORSDOF 6
ENDMDL
MODEL 6
REMARK VINA RESULT:      -6.6      6.742      9.602
REMARK  Name = 
REMARK  7 active torsions:
REMARK  status: ('A' for Active; 'I' for Inactive)
REMARK    1  A    between atoms: C_1  and  S_2
REMARK    2  A    between atoms: S_2  and  C_5
REMARK    3  A    between atoms: N_13  and  C_14
REMARK    4  A    between atoms: C_14  and  C_15
REMARK    5  A    between atoms: C_23  and  C_24
REMARK    6  A    between atoms: C_24  and  C_25
REMARK    7  A    between atoms: C_25  and  O_27
REMARK                            x       y       z     vdW  Elec       q    Type
REMARK                         _______ _______ _______ _____ _____    ______ ____
ROOT
ATOM      1  C   UNL     1      -0.827  10.543  18.377  0.00  0.00    +0.000 A 
ATOM      2  C   UNL     1      -1.473  10.006  17.234  0.00  0.00    +0.000 A 
ATOM      3  C   UNL     1      -2.815  10.222  16.974  0.00  0.00    +0.000 A 
ATOM      4  F   UNL     1      -3.377   9.665  15.893  0.00  0.00    +0.000 F 
ATOM      5  C   UNL     1      -3.589  10.967  17.836  0.00  0.00    +0.000 A 
ATOM      6  C   UNL     1      -2.990  11.543  18.967  0.00  0.00    +0.000 A 
ATOM      7  C   UNL     1      -3.545  12.259  20.031  0.00  0.00    +0.000 A 
ATOM      8  C   UNL     1      -2.548  12.585  20.887  0.00  0.00    +0.000 A 
ATOM      9  N   UNL     1      -1.336  12.193  20.374  0.00  0.00    +0.000 N 
ATOM     10  C   UNL     1      -1.598  11.395  19.232  0.00  0.00    +0.000 A 
ATOM     11  C   UNL     1      -3.040  13.257  22.131  0.00  0.00    +0.000 C 
ATOM     12  C   UNL     1      -4.494  13.663  21.650  0.00  0.00    +0.000 C 
ATOM     13  C   UNL     1      -4.879  12.674  20.505  0.00  0.00    +0.000 C 
ENDROOT
BRANCH   1  15
ATOM     14  C   UNL     1       1.028   9.364  20.186  0.00  0.00    +0.000 C 
ATOM     15  S   UNL     1       0.868  10.010  18.546  0.00  0.00    +0.000 S 
ATOM     16  O   UNL     1       1.725  11.177  18.552  0.00  0.00    +0.000 OA
ATOM     17  O   UNL     1       1.060   8.922  17.609  0.00  0.00    +0.000 OA
ENDBRANCH   1  15
BRANCH   9  18
ATOM     18  C   UNL     1      -0.076  12.542  21.049  0.00  0.00    +0.000 C 
BRANCH  18  19
ATOM     19  C   UNL     1       0.759  13.642  20.430  0.00  0.00    +0.000 A 
ATOM     20  C   UNL     1       0.257  14.585  19.525  0.00  0.00    +0.000 A 
ATOM     21  C   UNL     1       1.117  15.512  18.920  0.00  0.00    +0.000 A 
ATOM     22  C   UNL     1       2.476  15.519  19.234  0.00  0.00    +0.000 A 
ATOM     23 CL   UNL     1       3.552  16.568  18.395  0.00  0.00    +0.000 Cl
ATOM     24  C   UNL     1       2.970  14.668  20.213  0.00  0.00    +0.000 A 
ATOM     25  C   UNL     1       2.108  13.758  20.826  0.00  0.00    +0.000 A 
ENDBRANCH  18  19
ENDBRANCH   9  18
BRANCH  11  26
ATOM     26  C   UNL     1      -3.092  12.261  23.297  0.00  0.00    +0.000 C 
BRANCH  26  27
ATOM     27  C   UNL     1      -4.121  12.632  24.336  0.00  0.00    +0.000 C 
ATOM     28  O   UNL     1      -5.143  12.009  24.575  0.00  0.00    +0.000 OA
BRANCH  27  29
ATOM     29  O   UNL     1      -3.791  13.762  25.003  0.00  0.00    +0.000 OA
ATOM     30  H   UNL     1      -3.240  14.382  24.489  0.00  0.00    +0.000 HD
ENDBRANCH  27  29
ENDBRANCH  26  27
ENDBRANCH  11  26
TORSDOF 6
ENDMDL
MODEL 7
REMARK VINA RESULT:      -6.6      4.042      6.895
REMARK  Name = 
REMARK  7 active torsions:
REMARK  status: ('A' for Active; 'I' for Inactive)
REMARK    1  A    between atoms: C_1  and  S_2
REMARK    2  A    between atoms: S_2  and  C_5
REMARK    3  A    between atoms: N_13  and  C_14
REMARK    4  A    between atoms: C_14  and  C_15
REMARK    5  A    between atoms: C_23  and  C_24
REMARK    6  A    between atoms: C_24  and  C_25
REMARK    7  A    between atoms: C_25  and  O_27
REMARK                            x       y       z     vdW  Elec       q    Type
REMARK                         _______ _______ _______ _____ _____    ______ ____
ROOT
ATOM      1  C   UNL     1       0.829   9.499  20.472  0.00  0.00    +0.000 A 
ATOM      2  C   UNL     1       0.604  10.784  19.916  0.00  0.00    +0.000 A 
ATOM      3  C   UNL     1       1.139  11.167  18.699  0.00  0.00    +0.000 A 
ATOM      4  F   UNL     1       0.915  12.405  18.238  0.00  0.00    +0.000 F 
ATOM      5  C   UNL     1       1.933  10.305  17.976  0.00  0.00    +0.000 A 
ATOM      6  C   UNL     1       2.163   9.011  18.470  0.00  0.00    +0.000 A 
ATOM      7  C   UNL     1       2.981   7.983  17.995  0.00  0.00    +0.000 A 
ATOM      8  C   UNL     1       2.873   6.931  18.840  0.00  0.00    +0.000 A 
ATOM      9  N   UNL     1       1.933   7.195  19.805  0.00  0.00    +0.000 N 
ATOM     10  C   UNL     1       1.577   8.561  19.688  0.00  0.00    +0.000 A 
ATOM     11  C   UNL     1       3.797   5.805  18.496  0.00  0.00    +0.000 C 
ATOM     12  C   UNL     1       4.171   6.219  17.013  0.00  0.00    +0.000 C 
ATOM     13  C   UNL     1       3.958   7.761  16.911  0.00  0.00    +0.000 C 
ENDROOT
BRANCH   1  15
ATOM     14  C   UNL     1      -0.745  10.798  22.456  0.00  0.00    +0.000 C 
ATOM     15  S   UNL     1       0.138   9.304  22.106  0.00  0.00    +0.000 S 
ATOM     16  O   UNL     1       1.216   9.307  23.071  0.00  0.00    +0.000 OA
ATOM     17  O   UNL     1      -0.820   8.219  22.028  0.00  0.00    +0.000 OA
ENDBRANCH   1  15
BRANCH   9  18
ATOM     18  C   UNL     1       1.529   6.163  20.775  0.00  0.00    +0.000 C 
BRANCH  18  19
ATOM     19  C   UNL     1       1.856   4.726  20.433  0.00  0.00    +0.000 A 
ATOM     20  C   UNL     1       2.646   3.896  21.236  0.00  0.00    +0.000 A 
ATOM     21  C   UNL     1       2.985   2.606  20.802  0.00  0.00    +0.000 A 
ATOM     22  C   UNL     1       2.517   2.131  19.577  0.00  0.00    +0.000 A 
ATOM     23 CL   UNL     1       3.038   0.602  18.986  0.00  0.00    +0.000 Cl
ATOM     24  C   UNL     1       1.640   2.898  18.822  0.00  0.00    +0.000 A 
ATOM     25  C   UNL     1       1.290   4.173  19.265  0.00  0.00    +0.000 A 
ENDBRANCH  18  19
ENDBRANCH   9  18
BRANCH  11  26
ATOM     26  C   UNL     1       5.029   5.821  19.411  0.00  0.00    +0.000 C 
BRANCH  26  27
ATOM     27  C   UNL     1       6.089   4.837  18.981  0.00  0.00    +0.000 C 
ATOM     28  O   UNL     1       7.254   5.110  18.741  0.00  0.00    +0.000 OA
BRANCH  27  29
ATOM     29  O   UNL     1       5.607   3.576  18.881  0.00  0.00    +0.000 OA
ATOM     30  H   UNL     1       4.814   3.408  19.426  0.00  0.00    +0.000 HD
ENDBRANCH  27  29
ENDBRANCH  26  27
ENDBRANCH  11  26
TORSDOF 6
ENDMDL
MODEL 8
REMARK VINA RESULT:      -6.5      6.377      9.500
REMARK  Name = 
REMARK  7 active torsions:
REMARK  status: ('A' for Active; 'I' for Inactive)
REMARK    1  A    between atoms: C_1  and  S_2
REMARK    2  A    between atoms: S_2  and  C_5
REMARK    3  A    between atoms: N_13  and  C_14
REMARK    4  A    between atoms: C_14  and  C_15
REMARK    5  A    between atoms: C_23  and  C_24
REMARK    6  A    between atoms: C_24  and  C_25
REMARK    7  A    between atoms: C_25  and  O_27
REMARK                            x       y       z     vdW  Elec       q    Type
REMARK                         _______ _______ _______ _____ _____    ______ ____
ROOT
ATOM      1  C   UNL     1      -0.522  10.556  18.470  0.00  0.00    +0.000 A 
ATOM      2  C   UNL     1      -1.079   9.987  17.296  0.00  0.00    +0.000 A 
ATOM      3  C   UNL     1      -2.405  10.166  16.945  0.00  0.00    +0.000 A 
ATOM      4  F   UNL     1      -2.881   9.580  15.838  0.00  0.00    +0.000 F 
ATOM      5  C   UNL     1      -3.251  10.903  17.742  0.00  0.00    +0.000 A 
ATOM      6  C   UNL     1      -2.742  11.510  18.901  0.00  0.00    +0.000 A 
ATOM      7  C   UNL     1      -3.383  12.227  19.915  0.00  0.00    +0.000 A 
ATOM      8  C   UNL     1      -2.453  12.590  20.830  0.00  0.00    +0.000 A 
ATOM      9  N   UNL     1      -1.201  12.221  20.403  0.00  0.00    +0.000 N 
ATOM     10  C   UNL     1      -1.368  11.401  19.260  0.00  0.00    +0.000 A 
ATOM     11  C   UNL     1      -3.042  13.267  22.028  0.00  0.00    +0.000 C 
ATOM     12  C   UNL     1      -4.471  13.630  21.446  0.00  0.00    +0.000 C 
ATOM     13  C   UNL     1      -4.755  12.616  20.294  0.00  0.00    +0.000 C 
ENDROOT
BRANCH   1  15
ATOM     14  C   UNL     1       1.467   8.660  17.728  0.00  0.00    +0.000 C 
ATOM     15  S   UNL     1       1.170  10.068  18.758  0.00  0.00    +0.000 S 
ATOM     16  O   UNL     1       1.281   9.540  20.102  0.00  0.00    +0.000 OA
ATOM     17  O   UNL     1       2.004  11.157  18.290  0.00  0.00    +0.000 OA
ENDBRANCH   1  15
BRANCH   9  18
ATOM     18  C   UNL     1       0.003  12.611  21.154  0.00  0.00    +0.000 C 
BRANCH  18  19
ATOM     19  C   UNL     1       0.982  13.534  20.461  0.00  0.00    +0.000 A 
ATOM     20  C   UNL     1       2.358  13.544  20.718  0.00  0.00    +0.000 A 
ATOM     21  C   UNL     1       3.185  14.496  20.106  0.00  0.00    +0.000 A 
ATOM     22  C   UNL     1       2.647  15.427  19.218  0.00  0.00    +0.000 A 
ATOM     23 CL   UNL     1       3.637  16.676  18.569  0.00  0.00    +0.000 Cl
ATOM     24  C   UNL     1       1.306  15.359  18.864  0.00  0.00    +0.000 A 
ATOM     25  C   UNL     1       0.489  14.399  19.461  0.00  0.00    +0.000 A 
ENDBRANCH  18  19
ENDBRANCH   9  18
BRANCH  11  26
ATOM     26  C   UNL     1      -3.147  12.287  23.203  0.00  0.00    +0.000 C 
BRANCH  26  27
ATOM     27  C   UNL     1      -3.961  12.834  24.349  0.00  0.00    +0.000 C 
ATOM     28  O   UNL     1      -3.838  13.944  24.840  0.00  0.00    +0.000 OA
BRANCH  27  29
ATOM     29  O   UNL     1      -4.876  11.943  24.799  0.00  0.00    +0.000 OA
ATOM     30  H   UNL     1      -4.548  11.025  24.847  0.00  0.00    +0.000 HD
ENDBRANCH  27  29
ENDBRANCH  26  27
ENDBRANCH  11  26
TORSDOF 6
ENDMDL
MODEL 9
REMARK VINA RESULT:      -6.5      6.666      9.792
REMARK  Name = 
REMARK  7 active torsions:
REMARK  status: ('A' for Active; 'I' for Inactive)
REMARK    1  A    between atoms: C_1  and  S_2
REMARK    2  A    between atoms: S_2  and  C_5
REMARK    3  A    between atoms: N_13  and  C_14
REMARK    4  A    between atoms: C_14  and  C_15
REMARK    5  A    between atoms: C_23  and  C_24
REMARK    6  A    between atoms: C_24  and  C_25
REMARK    7  A    between atoms: C_25  and  O_27
REMARK                            x       y       z     vdW  Elec       q    Type
REMARK                         _______ _______ _______ _____ _____    ______ ____
ROOT
ATOM      1  C   UNL     1      -0.775  10.734  18.476  0.00  0.00    +0.000 A 
ATOM      2  C   UNL     1      -1.251  10.041  17.334  0.00  0.00    +0.000 A 
ATOM      3  C   UNL     1      -2.576  10.089  16.939  0.00  0.00    +0.000 A 
ATOM      4  F   UNL     1      -2.973   9.389  15.868  0.00  0.00    +0.000 F 
ATOM      5  C   UNL     1      -3.500  10.812  17.660  0.00  0.00    +0.000 A 
ATOM      6  C   UNL     1      -3.074  11.539  18.783  0.00  0.00    +0.000 A 
ATOM      7  C   UNL     1      -3.798  12.273  19.725  0.00  0.00    +0.000 A 
ATOM      8  C   UNL     1      -2.926  12.773  20.632  0.00  0.00    +0.000 A 
ATOM      9  N   UNL     1      -1.637  12.475  20.264  0.00  0.00    +0.000 N 
ATOM     10  C   UNL     1      -1.706  11.564  19.180  0.00  0.00    +0.000 A 
ATOM     11  C   UNL     1      -3.600  13.486  21.762  0.00  0.00    +0.000 C 
ATOM     12  C   UNL     1      -5.035  13.692  21.121  0.00  0.00    +0.000 C 
ATOM     13  C   UNL     1      -5.206  12.579  20.041  0.00  0.00    +0.000 C 
ENDROOT
BRANCH   1  15
ATOM     14  C   UNL     1       1.397   8.999  17.864  0.00  0.00    +0.000 C 
ATOM     15  S   UNL     1       0.941  10.404  18.840  0.00  0.00    +0.000 S 
ATOM     16  O   UNL     1       1.044   9.924  20.201  0.00  0.00    +0.000 OA
ATOM     17  O   UNL     1       1.695  11.548  18.369  0.00  0.00    +0.000 OA
ENDBRANCH   1  15
BRANCH   9  18
ATOM     18  C   UNL     1      -0.489  13.012  21.012  0.00  0.00    +0.000 C 
BRANCH  18  19
ATOM     19  C   UNL     1       0.375  14.037  20.311  0.00  0.00    +0.000 A 
ATOM     20  C   UNL     1      -0.117  14.977  19.399  0.00  0.00    +0.000 A 
ATOM     21  C   UNL     1       0.763  15.829  18.716  0.00  0.00    +0.000 A 
ATOM     22  C   UNL     1       2.135  15.763  18.960  0.00  0.00    +0.000 A 
ATOM     23 CL   UNL     1       3.226  16.716  18.029  0.00  0.00    +0.000 Cl
ATOM     24  C   UNL     1       2.628  14.917  19.944  0.00  0.00    +0.000 A 
ATOM     25  C   UNL     1       1.748  14.084  20.633  0.00  0.00    +0.000 A 
ENDBRANCH  18  19
ENDBRANCH   9  18
BRANCH  11  26
ATOM     26  C   UNL     1      -3.664  12.588  23.004  0.00  0.00    +0.000 C 
BRANCH  26  27
ATOM     27  C   UNL     1      -4.060  13.340  24.250  0.00  0.00    +0.000 C 
ATOM     28  O   UNL     1      -3.842  14.522  24.464  0.00  0.00    +0.000 OA
BRANCH  27  29
ATOM     29  O   UNL     1      -4.705  12.552  25.142  0.00  0.00    +0.000 OA
ATOM     30  H   UNL     1      -4.875  12.980  26.003  0.00  0.00    +0.000 HD
ENDBRANCH  27  29
ENDBRANCH  26  27
ENDBRANCH  11  26
TORSDOF 6
ENDMDL
