MODEL 1
REMARK VINA RESULT:      -6.4      0.000      0.000
REMARK  Name = 
REMARK  15 active torsions:
REMARK  status: ('A' for Active; 'I' for Inactive)
REMARK    1  A    between atoms: C_2  and  C_3
REMARK    2  A    between atoms: C_2  and  C_23
REMARK    3  A    between atoms: C_3  and  C_4
REMARK    4  A    between atoms: C_4  and  N_5
REMARK    5  A    between atoms: N_5  and  C_6
REMARK    6  A    between atoms: C_6  and  C_7
REMARK    7  A    between atoms: C_7  and  S_8
REMARK    8  A    between atoms: S_8  and  S_9
REMARK    9  A    between atoms: S_9  and  C_10
REMARK   10  A    between atoms: C_10  and  C_11
REMARK   11  A    between atoms: C_11  and  N_12
REMARK   12  A    between atoms: N_12  and  C_13
REMARK   13  A    between atoms: C_13  and  C_14
REMARK   14  A    between atoms: C_14  and  C_15
REMARK   15  A    between atoms: C_15  and  C_17
REMARK                            x       y       z     vdW  Elec       q    Type
REMARK                         _______ _______ _______ _____ _____    ______ ____
ROOT
ATOM      1  S   UNL     1       1.537   2.522  20.286  0.00  0.00    +0.000 S 
ENDROOT
BRANCH   1   2
ATOM      2  C   UNL     1       1.153   4.298  20.255  0.00  0.00    +0.000 C 
BRANCH   2   3
ATOM      3  C   UNL     1       2.192   5.107  21.040  0.00  0.00    +0.000 C 
BRANCH   3   4
ATOM      4  N   UNL     1       3.034   5.952  20.172  0.00  0.00    +0.000 NA
ATOM      5  H   UNL     1       3.810   6.310  20.736  0.00  0.00    +0.000 HD
BRANCH   4   6
ATOM      6  C   UNL     1       2.265   7.081  19.634  0.00  0.00    +0.000 C 
BRANCH   6   7
ATOM      7  C   UNL     1       1.470   7.776  20.726  0.00  0.00    +0.000 C 
BRANCH   7   9
ATOM      8  O   UNL     1       1.278   9.576  19.130  0.00  0.00    +0.000 OA
ATOM      9  C   UNL     1       1.016   9.143  20.248  0.00  0.00    +0.000 C 
BRANCH   9  10
ATOM     10  C   UNL     1       0.213   9.981  21.174  0.00  0.00    +0.000 A 
ATOM     11  C   UNL     1      -0.600  10.997  20.655  0.00  0.00    +0.000 A 
ATOM     12  C   UNL     1      -1.356  11.776  21.527  0.00  0.00    +0.000 A 
ATOM     13  C   UNL     1      -1.273  11.517  22.882  0.00  0.00    +0.000 A 
ATOM     14  N   UNL     1      -0.498  10.546  23.417  0.00  0.00    +0.000 NA
ATOM     15  C   UNL     1       0.227   9.802  22.547  0.00  0.00    +0.000 A 
ENDBRANCH   9  10
ENDBRANCH   7   9
ENDBRANCH   6   7
ENDBRANCH   4   6
ENDBRANCH   3   4
ENDBRANCH   2   3
ENDBRANCH   1   2
BRANCH   1  16
ATOM     16  S   UNL     1       3.513   2.560  20.881  0.00  0.00    +0.000 S 
BRANCH  16  17
ATOM     17  C   UNL     1       4.397   2.998  19.338  0.00  0.00    +0.000 C 
BRANCH  17  18
ATOM     18  C   UNL     1       3.637   2.580  18.078  0.00  0.00    +0.000 C 
BRANCH  18  19
ATOM     19  N   UNL     1       4.531   2.493  16.908  0.00  0.00    +0.000 NA
ATOM     20  H   UNL     1       4.063   1.960  16.174  0.00  0.00    +0.000 HD
BRANCH  19  21
ATOM     21  C   UNL     1       4.812   3.849  16.416  0.00  0.00    +0.000 C 
BRANCH  21  22
ATOM     22  C   UNL     1       5.783   3.818  15.237  0.00  0.00    +0.000 C 
BRANCH  22  23
ATOM     23  C   UNL     1       6.756   4.979  15.327  0.00  0.00    +0.000 C 
ATOM     24  O   UNL     1       7.185   5.556  14.328  0.00  0.00    +0.000 OA
BRANCH  23  25
ATOM     25  C   UNL     1       7.227   5.423  16.662  0.00  0.00    +0.000 A 
ATOM     26  C   UNL     1       7.237   6.758  17.075  0.00  0.00    +0.000 A 
ATOM     27  C   UNL     1       7.666   7.068  18.366  0.00  0.00    +0.000 A 
ATOM     28  C   UNL     1       8.076   6.038  19.197  0.00  0.00    +0.000 A 
ATOM     29  N   UNL     1       8.091   4.740  18.824  0.00  0.00    +0.000 NA
ATOM     30  C   UNL     1       7.667   4.462  17.567  0.00  0.00    +0.000 A 
ENDBRANCH  23  25
ENDBRANCH  22  23
ENDBRANCH  21  22
ENDBRANCH  19  21
ENDBRANCH  18  19
ENDBRANCH  17  18
ENDBRANCH  16  17
ENDBRANCH   1  16
TORSDOF 15
ENDMDL
MODEL 2
REMARK VINA RESULT:      -6.1      2.044      2.674
REMARK  Name = 
REMARK  15 active torsions:
REMARK  status: ('A' for Active; 'I' for Inactive)
REMARK    1  A    between atoms: C_2  and  C_3
REMARK    2  A    between atoms: C_2  and  C_23
REMARK    3  A    between atoms: C_3  and  C_4
REMARK    4  A    between atoms: C_4  and  N_5
REMARK    5  A    between atoms: N_5  and  C_6
REMARK    6  A    between atoms: C_6  and  C_7
REMARK    7  A    between atoms: C_7  and  S_8
REMARK    8  A    between atoms: S_8  and  S_9
REMARK    9  A    between atoms: S_9  and  C_10
REMARK   10  A    between atoms: C_10  and  C_11
REMARK   11  A    between atoms: C_11  and  N_12
REMARK   12  A    between atoms: N_12  and  C_13
REMARK   13  A    between atoms: C_13  and  C_14
REMARK   14  A    between atoms: C_14  and  C_15
REMARK   15  A    between atoms: C_15  and  C_17
REMARK                            x       y       z     vdW  Elec       q    Type
REMARK                         _______ _______ _______ _____ _____    ______ ____
ROOT
ATOM      1  S   UNL     1       1.533   3.353  20.803  0.00  0.00    +0.000 S 
ENDROOT
BRANCH   1   2
ATOM      2  C   UNL     1       2.239   4.968  21.249  0.00  0.00    +0.000 C 
BRANCH   2   3
ATOM      3  C   UNL     1       1.377   6.119  20.721  0.00  0.00    +0.000 C 
BRANCH   3   4
ATOM      4  N   UNL     1       2.085   7.414  20.727  0.00  0.00    +0.000 NA
ATOM      5  H   UNL     1       2.664   7.453  21.570  0.00  0.00    +0.000 HD
BRANCH   4   6
ATOM      6  C   UNL     1       1.133   8.531  20.742  0.00  0.00    +0.000 C 
BRANCH   6   7
ATOM      7  C   UNL     1       1.098   9.208  22.102  0.00  0.00    +0.000 C 
BRANCH   7   9
ATOM      8  O   UNL     1      -0.735  10.477  23.025  0.00  0.00    +0.000 OA
ATOM      9  C   UNL     1       0.061  10.316  22.105  0.00  0.00    +0.000 C 
BRANCH   9  10
ATOM     10  C   UNL     1       0.021  11.246  20.948  0.00  0.00    +0.000 A 
ATOM     11  C   UNL     1      -1.043  11.173  20.041  0.00  0.00    +0.000 A 
ATOM     12  C   UNL     1      -1.078  12.051  18.961  0.00  0.00    +0.000 A 
ATOM     13  C   UNL     1      -0.052  12.967  18.823  0.00  0.00    +0.000 A 
ATOM     14  N   UNL     1       0.991  13.063  19.679  0.00  0.00    +0.000 NA
ATOM     15  C   UNL     1       1.001  12.197  20.721  0.00  0.00    +0.000 A 
ENDBRANCH   9  10
ENDBRANCH   7   9
ENDBRANCH   6   7
ENDBRANCH   4   6
ENDBRANCH   3   4
ENDBRANCH   2   3
ENDBRANCH   1   2
BRANCH   1  16
ATOM     16  S   UNL     1       3.146   2.114  21.149  0.00  0.00    +0.000 S 
BRANCH  16  17
ATOM     17  C   UNL     1       4.121   2.269  19.606  0.00  0.00    +0.000 C 
BRANCH  17  18
ATOM     18  C   UNL     1       3.493   1.523  18.427  0.00  0.00    +0.000 C 
BRANCH  18  19
ATOM     19  N   UNL     1       2.850   2.451  17.478  0.00  0.00    +0.000 NA
ATOM     20  H   UNL     1       1.909   2.665  17.812  0.00  0.00    +0.000 HD
BRANCH  19  21
ATOM     21  C   UNL     1       3.633   3.693  17.416  0.00  0.00    +0.000 C 
BRANCH  21  22
ATOM     22  C   UNL     1       2.739   4.919  17.599  0.00  0.00    +0.000 C 
BRANCH  22  23
ATOM     23  C   UNL     1       3.586   6.158  17.823  0.00  0.00    +0.000 C 
ATOM     24  O   UNL     1       3.112   7.294  17.784  0.00  0.00    +0.000 OA
BRANCH  23  25
ATOM     25  C   UNL     1       5.040   6.002  18.075  0.00  0.00    +0.000 A 
ATOM     26  C   UNL     1       6.028   6.366  17.158  0.00  0.00    +0.000 A 
ATOM     27  C   UNL     1       7.371   6.213  17.507  0.00  0.00    +0.000 A 
ATOM     28  C   UNL     1       7.679   5.696  18.755  0.00  0.00    +0.000 A 
ATOM     29  N   UNL     1       6.748   5.323  19.658  0.00  0.00    +0.000 NA
ATOM     30  C   UNL     1       5.451   5.484  19.300  0.00  0.00    +0.000 A 
ENDBRANCH  23  25
ENDBRANCH  22  23
ENDBRANCH  21  22
ENDBRANCH  19  21
ENDBRANCH  18  19
ENDBRANCH  17  18
ENDBRANCH  16  17
ENDBRANCH   1  16
TORSDOF 15
ENDMDL
MODEL 3
REMARK VINA RESULT:      -6.1      1.565      7.770
REMARK  Name = 
REMARK  15 active torsions:
REMARK  status: ('A' for Active; 'I' for Inactive)
REMARK    1  A    between atoms: C_2  and  C_3
REMARK    2  A    between atoms: C_2  and  C_23
REMARK    3  A    between atoms: C_3  and  C_4
REMARK    4  A    between atoms: C_4  and  N_5
REMARK    5  A    between atoms: N_5  and  C_6
REMARK    6  A    between atoms: C_6  and  C_7
REMARK    7  A    between atoms: C_7  and  S_8
REMARK    8  A    between atoms: S_8  and  S_9
REMARK    9  A    between atoms: S_9  and  C_10
REMARK   10  A    between atoms: C_10  and  C_11
REMARK   11  A    between atoms: C_11  and  N_12
REMARK   12  A    between atoms: N_12  and  C_13
REMARK   13  A    between atoms: C_13  and  C_14
REMARK   14  A    between atoms: C_14  and  C_15
REMARK   15  A    between atoms: C_15  and  C_17
REMARK                            x       y       z     vdW  Elec       q    Type
REMARK                         _______ _______ _______ _____ _____    ______ ____
ROOT
ATOM      1  S   UNL     1       2.759   2.467  21.243  0.00  0.00    +0.000 S 
ENDROOT
BRANCH   1   2
ATOM      2  C   UNL     1       4.033   3.070  20.095  0.00  0.00    +0.000 C 
BRANCH   2   3
ATOM      3  C   UNL     1       4.548   1.945  19.192  0.00  0.00    +0.000 C 
BRANCH   3   4
ATOM      4  N   UNL     1       4.353   2.229  17.757  0.00  0.00    +0.000 NA
ATOM      5  H   UNL     1       5.261   2.484  17.359  0.00  0.00    +0.000 HD
BRANCH   4   6
ATOM      6  C   UNL     1       3.412   3.339  17.566  0.00  0.00    +0.000 C 
BRANCH   6   7
ATOM      7  C   UNL     1       3.954   4.358  16.576  0.00  0.00    +0.000 C 
BRANCH   7   9
ATOM      8  O   UNL     1       5.946   3.346  15.665  0.00  0.00    +0.000 OA
ATOM      9  C   UNL     1       5.453   4.181  16.417  0.00  0.00    +0.000 C 
BRANCH   9  10
ATOM     10  C   UNL     1       6.352   5.067  17.198  0.00  0.00    +0.000 A 
ATOM     11  C   UNL     1       6.528   6.398  16.796  0.00  0.00    +0.000 A 
ATOM     12  C   UNL     1       7.368   7.226  17.534  0.00  0.00    +0.000 A 
ATOM     13  C   UNL     1       8.004   6.700  18.644  0.00  0.00    +0.000 A 
ATOM     14  N   UNL     1       7.858   5.420  19.059  0.00  0.00    +0.000 NA
ATOM     15  C   UNL     1       7.035   4.635  18.322  0.00  0.00    +0.000 A 
ENDBRANCH   9  10
ENDBRANCH   7   9
ENDBRANCH   6   7
ENDBRANCH   4   6
ENDBRANCH   3   4
ENDBRANCH   2   3
ENDBRANCH   1   2
BRANCH   1  16
ATOM     16  S   UNL     1       1.137   3.598  20.654  0.00  0.00    +0.000 S 
BRANCH  16  17
ATOM     17  C   UNL     1       1.747   5.315  20.839  0.00  0.00    +0.000 C 
BRANCH  17  18
ATOM     18  C   UNL     1       1.870   6.050  19.503  0.00  0.00    +0.000 C 
BRANCH  18  19
ATOM     19  N   UNL     1       2.870   7.132  19.569  0.00  0.00    +0.000 NA
ATOM     20  H   UNL     1       3.773   6.732  19.825  0.00  0.00    +0.000 HD
BRANCH  19  21
ATOM     21  C   UNL     1       2.981   7.765  18.247  0.00  0.00    +0.000 C 
BRANCH  21  22
ATOM     22  C   UNL     1       1.655   8.399  17.826  0.00  0.00    +0.000 C 
BRANCH  22  23
ATOM     23  C   UNL     1       1.664   9.886  18.129  0.00  0.00    +0.000 C 
ATOM     24  O   UNL     1       2.452  10.662  17.589  0.00  0.00    +0.000 OA
BRANCH  23  25
ATOM     25  C   UNL     1       0.706  10.424  19.127  0.00  0.00    +0.000 A 
ATOM     26  C   UNL     1       0.903  10.349  20.508  0.00  0.00    +0.000 A 
ATOM     27  C   UNL     1      -0.041  10.919  21.363  0.00  0.00    +0.000 A 
ATOM     28  C   UNL     1      -1.151  11.537  20.810  0.00  0.00    +0.000 A 
ATOM     29  N   UNL     1      -1.378  11.615  19.481  0.00  0.00    +0.000 NA
ATOM     30  C   UNL     1      -0.446  11.058  18.671  0.00  0.00    +0.000 A 
ENDBRANCH  23  25
ENDBRANCH  22  23
ENDBRANCH  21  22
ENDBRANCH  19  21
ENDBRANCH  18  19
ENDBRANCH  17  18
ENDBRANCH  16  17
ENDBRANCH   1  16
TORSDOF 15
ENDMDL
MODEL 4
REMARK VINA RESULT:      -6.0      3.288      5.619
REMARK  Name = 
REMARK  15 active torsions:
REMARK  status: ('A' for Active; 'I' for Inactive)
REMARK    1  A    between atoms: C_2  and  C_3
REMARK    2  A    between atoms: C_2  and  C_23
REMARK    3  A    between atoms: C_3  and  C_4
REMARK    4  A    between atoms: C_4  and  N_5
REMARK    5  A    between atoms: N_5  and  C_6
REMARK    6  A    between atoms: C_6  and  C_7
REMARK    7  A    between atoms: C_7  and  S_8
REMARK    8  A    between atoms: S_8  and  S_9
REMARK    9  A    between atoms: S_9  and  C_10
REMARK   10  A    between atoms: C_10  and  C_11
REMARK   11  A    between atoms: C_11  and  N_12
REMARK   12  A    between atoms: N_12  and  C_13
REMARK   13  A    between atoms: C_13  and  C_14
REMARK   14  A    between atoms: C_14  and  C_15
REMARK   15  A    between atoms: C_15  and  C_17
REMARK                            x       y       z     vdW  Elec       q    Type
REMARK                         _______ _______ _______ _____ _____    ______ ____
ROOT
ATOM      1  S   UNL     1       1.057  10.434  19.984  0.00  0.00    +0.000 S 
ENDROOT
BRANCH   1   2
ATOM      2  C   UNL     1      -0.150   9.379  20.841  0.00  0.00    +0.000 C 
BRANCH   2   3
ATOM      3  C   UNL     1      -0.051   9.540  22.361  0.00  0.00    +0.000 C 
BRANCH   3   4
ATOM      4  N   UNL     1      -0.199  10.942  22.799  0.00  0.00    +0.000 NA
ATOM      5  H   UNL     1       0.443  11.098  23.581  0.00  0.00    +0.000 HD
BRANCH   4   6
ATOM      6  C   UNL     1      -1.573  11.210  23.240  0.00  0.00    +0.000 C 
BRANCH   6   7
ATOM      7  C   UNL     1      -2.012  12.614  22.855  0.00  0.00    +0.000 C 
BRANCH   7   9
ATOM      8  O   UNL     1      -0.625  13.372  21.031  0.00  0.00    +0.000 OA
ATOM      9  C   UNL     1      -1.688  12.878  21.396  0.00  0.00    +0.000 C 
BRANCH   9  10
ATOM     10  C   UNL     1      -2.699  12.510  20.374  0.00  0.00    +0.000 A 
ATOM     11  C   UNL     1      -4.053  12.777  20.615  0.00  0.00    +0.000 A 
ATOM     12  C   UNL     1      -4.996  12.435  19.651  0.00  0.00    +0.000 A 
ATOM     13  C   UNL     1      -4.559  11.838  18.483  0.00  0.00    +0.000 A 
ATOM     14  N   UNL     1      -3.261  11.564  18.218  0.00  0.00    +0.000 NA
ATOM     15  C   UNL     1      -2.363  11.907  19.173  0.00  0.00    +0.000 A 
ENDBRANCH   9  10
ENDBRANCH   7   9
ENDBRANCH   6   7
ENDBRANCH   4   6
ENDBRANCH   3   4
ENDBRANCH   2   3
ENDBRANCH   1   2
BRANCH   1  16
ATOM     16  S   UNL     1       1.264   9.418  18.200  0.00  0.00    +0.000 S 
BRANCH  16  17
ATOM     17  C   UNL     1       2.317   7.992  18.660  0.00  0.00    +0.000 C 
BRANCH  17  18
ATOM     18  C   UNL     1       3.286   7.584  17.549  0.00  0.00    +0.000 C 
BRANCH  18  19
ATOM     19  N   UNL     1       4.195   6.509  17.989  0.00  0.00    +0.000 NA
ATOM     20  H   UNL     1       3.672   5.853  18.571  0.00  0.00    +0.000 HD
BRANCH  19  21
ATOM     21  C   UNL     1       4.710   5.802  16.809  0.00  0.00    +0.000 C 
BRANCH  21  22
ATOM     22  C   UNL     1       4.780   4.295  17.054  0.00  0.00    +0.000 C 
BRANCH  22  23
ATOM     23  C   UNL     1       4.553   3.992  18.524  0.00  0.00    +0.000 C 
ATOM     24  O   UNL     1       5.471   3.992  19.344  0.00  0.00    +0.000 OA
BRANCH  23  25
ATOM     25  C   UNL     1       3.183   3.663  18.990  0.00  0.00    +0.000 A 
ATOM     26  C   UNL     1       2.295   2.858  18.273  0.00  0.00    +0.000 A 
ATOM     27  C   UNL     1       1.040   2.578  18.816  0.00  0.00    +0.000 A 
ATOM     28  C   UNL     1       0.714   3.115  20.051  0.00  0.00    +0.000 A 
ATOM     29  N   UNL     1       1.545   3.907  20.762  0.00  0.00    +0.000 NA
ATOM     30  C   UNL     1       2.758   4.163  20.218  0.00  0.00    +0.000 A 
ENDBRANCH  23  25
ENDBRANCH  22  23
ENDBRANCH  21  22
ENDBRANCH  19  21
ENDBRANCH  18  19
ENDBRANCH  17  18
ENDBRANCH  16  17
ENDBRANCH   1  16
TORSDOF 15
ENDMDL
MODEL 5
REMARK VINA RESULT:      -6.0      3.469      9.368
REMARK  Name = 
REMARK  15 active torsions:
REMARK  status: ('A' for Active; 'I' for Inactive)
REMARK    1  A    between atoms: C_2  and  C_3
REMARK    2  A    between atoms: C_2  and  C_23
REMARK    3  A    between atoms: C_3  and  C_4
REMARK    4  A    between atoms: C_4  and  N_5
REMARK    5  A    between atoms: N_5  and  C_6
REMARK    6  A    between atoms: C_6  and  C_7
REMARK    7  A    between atoms: C_7  and  S_8
REMARK    8  A    between atoms: S_8  and  S_9
REMARK    9  A    between atoms: S_9  and  C_10
REMARK   10  A    between atoms: C_10  and  C_11
REMARK   11  A    between atoms: C_11  and  N_12
REMARK   12  A    between atoms: N_12  and  C_13
REMARK   13  A    between atoms: C_13  and  C_14
REMARK   14  A    between atoms: C_14  and  C_15
REMARK   15  A    between atoms: C_15  and  C_17
REMARK                            x       y       z     vdW  Elec       q    Type
REMARK                         _______ _______ _______ _____ _____    ______ ____
ROOT
ATOM      1  S   UNL     1       2.886   6.714  18.898  0.00  0.00    +0.000 S 
ENDROOT
BRANCH   1   2
ATOM      2  C   UNL     1       3.745   7.246  17.387  0.00  0.00    +0.000 C 
BRANCH   2   3
ATOM      3  C   UNL     1       5.265   7.130  17.539  0.00  0.00    +0.000 C 
BRANCH   3   4
ATOM      4  N   UNL     1       5.932   6.690  16.298  0.00  0.00    +0.000 NA
ATOM      5  H   UNL     1       5.211   6.352  15.655  0.00  0.00    +0.000 HD
BRANCH   4   6
ATOM      6  C   UNL     1       6.885   5.608  16.571  0.00  0.00    +0.000 C 
BRANCH   6   7
ATOM      7  C   UNL     1       6.266   4.537  17.454  0.00  0.00    +0.000 C 
BRANCH   7   9
ATOM      8  O   UNL     1       4.939   3.879  15.550  0.00  0.00    +0.000 OA
ATOM      9  C   UNL     1       5.051   3.938  16.770  0.00  0.00    +0.000 C 
BRANCH   9  10
ATOM     10  C   UNL     1       3.963   3.392  17.621  0.00  0.00    +0.000 A 
ATOM     11  C   UNL     1       4.256   2.954  18.918  0.00  0.00    +0.000 A 
ATOM     12  C   UNL     1       3.231   2.449  19.713  0.00  0.00    +0.000 A 
ATOM     13  C   UNL     1       1.954   2.395  19.187  0.00  0.00    +0.000 A 
ATOM     14  N   UNL     1       1.637   2.807  17.938  0.00  0.00    +0.000 NA
ATOM     15  C   UNL     1       2.652   3.295  17.185  0.00  0.00    +0.000 A 
ENDBRANCH   9  10
ENDBRANCH   7   9
ENDBRANCH   6   7
ENDBRANCH   4   6
ENDBRANCH   3   4
ENDBRANCH   2   3
ENDBRANCH   1   2
BRANCH   1  16
ATOM     16  S   UNL     1       1.825   8.421  19.365  0.00  0.00    +0.000 S 
BRANCH  16  17
ATOM     17  C   UNL     1       1.849   9.361  17.794  0.00  0.00    +0.000 C 
BRANCH  17  18
ATOM     18  C   UNL     1       2.016  10.867  18.003  0.00  0.00    +0.000 C 
BRANCH  18  19
ATOM     19  N   UNL     1       1.355  11.320  19.241  0.00  0.00    +0.000 NA
ATOM     20  H   UNL     1       2.069  11.511  19.945  0.00  0.00    +0.000 HD
BRANCH  19  21
ATOM     21  C   UNL     1       0.609  12.555  18.964  0.00  0.00    +0.000 C 
BRANCH  21  22
ATOM     22  C   UNL     1      -0.827  12.459  19.475  0.00  0.00    +0.000 C 
BRANCH  22  23
ATOM     23  C   UNL     1      -1.400  11.085  19.176  0.00  0.00    +0.000 C 
ATOM     24  O   UNL     1      -1.195  10.114  19.904  0.00  0.00    +0.000 OA
BRANCH  23  25
ATOM     25  C   UNL     1      -2.219  10.896  17.952  0.00  0.00    +0.000 A 
ATOM     26  C   UNL     1      -1.879  10.015  16.923  0.00  0.00    +0.000 A 
ATOM     27  C   UNL     1      -2.736   9.883  15.829  0.00  0.00    +0.000 A 
ATOM     28  C   UNL     1      -3.897  10.639  15.799  0.00  0.00    +0.000 A 
ATOM     29  N   UNL     1      -4.247  11.508  16.771  0.00  0.00    +0.000 NA
ATOM     30  C   UNL     1      -3.402  11.617  17.824  0.00  0.00    +0.000 A 
ENDBRANCH  23  25
ENDBRANCH  22  23
ENDBRANCH  21  22
ENDBRANCH  19  21
ENDBRANCH  18  19
ENDBRANCH  17  18
ENDBRANCH  16  17
ENDBRANCH   1  16
TORSDOF 15
ENDMDL
MODEL 6
REMARK VINA RESULT:      -6.0      7.366     10.387
REMARK  Name = 
REMARK  15 active torsions:
REMARK  status: ('A' for Active; 'I' for Inactive)
REMARK    1  A    between atoms: C_2  and  C_3
REMARK    2  A    between atoms: C_2  and  C_23
REMARK    3  A    between atoms: C_3  and  C_4
REMARK    4  A    between atoms: C_4  and  N_5
REMARK    5  A    between atoms: N_5  and  C_6
REMARK    6  A    between atoms: C_6  and  C_7
REMARK    7  A    between atoms: C_7  and  S_8
REMARK    8  A    between atoms: S_8  and  S_9
REMARK    9  A    between atoms: S_9  and  C_10
REMARK   10  A    between atoms: C_10  and  C_11
REMARK   11  A    between atoms: C_11  and  N_12
REMARK   12  A    between atoms: N_12  and  C_13
REMARK   13  A    between atoms: C_13  and  C_14
REMARK   14  A    between atoms: C_14  and  C_15
REMARK   15  A    between atoms: C_15  and  C_17
REMARK                            x       y       z     vdW  Elec       q    Type
REMARK                         _______ _______ _______ _____ _____    ______ ____
ROOT
ATOM      1  S   UNL     1       9.381  10.556  19.203  0.00  0.00    +0.000 S 
ENDROOT
BRANCH   1   2
ATOM      2  C   UNL     1       8.377   9.636  17.998  0.00  0.00    +0.000 C 
BRANCH   2   3
ATOM      3  C   UNL     1       8.295   8.149  18.361  0.00  0.00    +0.000 C 
BRANCH   3   4
ATOM      4  N   UNL     1       7.420   7.386  17.451  0.00  0.00    +0.000 NA
ATOM      5  H   UNL     1       6.466   7.739  17.561  0.00  0.00    +0.000 HD
BRANCH   4   6
ATOM      6  C   UNL     1       7.448   5.954  17.776  0.00  0.00    +0.000 C 
BRANCH   6   7
ATOM      7  C   UNL     1       6.989   5.112  16.597  0.00  0.00    +0.000 C 
BRANCH   7   9
ATOM      8  O   UNL     1       5.498   6.292  15.111  0.00  0.00    +0.000 OA
ATOM      9  C   UNL     1       5.634   5.593  16.111  0.00  0.00    +0.000 C 
BRANCH   9  10
ATOM     10  C   UNL     1       4.428   5.187  16.875  0.00  0.00    +0.000 A 
ATOM     11  C   UNL     1       3.709   6.151  17.592  0.00  0.00    +0.000 A 
ATOM     12  C   UNL     1       2.576   5.766  18.302  0.00  0.00    +0.000 A 
ATOM     13  C   UNL     1       2.201   4.436  18.275  0.00  0.00    +0.000 A 
ATOM     14  N   UNL     1       2.873   3.479  17.595  0.00  0.00    +0.000 NA
ATOM     15  C   UNL     1       3.972   3.880  16.912  0.00  0.00    +0.000 A 
ENDBRANCH   9  10
ENDBRANCH   7   9
ENDBRANCH   6   7
ENDBRANCH   4   6
ENDBRANCH   3   4
ENDBRANCH   2   3
ENDBRANCH   1   2
BRANCH   1  16
ATOM     16  S   UNL     1      10.650  11.588  17.944  0.00  0.00    +0.000 S 
BRANCH  16  17
ATOM     17  C   UNL     1      11.805  12.405  19.108  0.00  0.00    +0.000 C 
BRANCH  17  18
ATOM     18  C   UNL     1      11.189  13.621  19.802  0.00  0.00    +0.000 C 
BRANCH  18  19
ATOM     19  N   UNL     1      11.912  14.862  19.464  0.00  0.00    +0.000 NA
ATOM     20  H   UNL     1      12.739  14.934  20.058  0.00  0.00    +0.000 HD
BRANCH  19  21
ATOM     21  C   UNL     1      12.332  14.805  18.057  0.00  0.00    +0.000 C 
BRANCH  21  22
ATOM     22  C   UNL     1      11.259  15.385  17.137  0.00  0.00    +0.000 C 
BRANCH  22  23
ATOM     23  C   UNL     1      10.631  16.613  17.771  0.00  0.00    +0.000 C 
ATOM     24  O   UNL     1      11.288  17.610  18.065  0.00  0.00    +0.000 OA
BRANCH  23  25
ATOM     25  C   UNL     1       9.177  16.606  18.070  0.00  0.00    +0.000 A 
ATOM     26  C   UNL     1       8.365  15.477  17.938  0.00  0.00    +0.000 A 
ATOM     27  C   UNL     1       7.015  15.565  18.280  0.00  0.00    +0.000 A 
ATOM     28  C   UNL     1       6.521  16.777  18.733  0.00  0.00    +0.000 A 
ATOM     29  N   UNL     1       7.276  17.890  18.859  0.00  0.00    +0.000 NA
ATOM     30  C   UNL     1       8.584  17.780  18.525  0.00  0.00    +0.000 A 
ENDBRANCH  23  25
ENDBRANCH  22  23
ENDBRANCH  21  22
ENDBRANCH  19  21
ENDBRANCH  18  19
ENDBRANCH  17  18
ENDBRANCH  16  17
ENDBRANCH   1  16
TORSDOF 15
ENDMDL
MODEL 7
REMARK VINA RESULT:      -6.0      3.798      4.961
REMARK  Name = 
REMARK  15 active torsions:
REMARK  status: ('A' for Active; 'I' for Inactive)
REMARK    1  A    between atoms: C_2  and  C_3
REMARK    2  A    between atoms: C_2  and  C_23
REMARK    3  A    between atoms: C_3  and  C_4
REMARK    4  A    between atoms: C_4  and  N_5
REMARK    5  A    between atoms: N_5  and  C_6
REMARK    6  A    between atoms: C_6  and  C_7
REMARK    7  A    between atoms: C_7  and  S_8
REMARK    8  A    between atoms: S_8  and  S_9
REMARK    9  A    between atoms: S_9  and  C_10
REMARK   10  A    between atoms: C_10  and  C_11
REMARK   11  A    between atoms: C_11  and  N_12
REMARK   12  A    between atoms: N_12  and  C_13
REMARK   13  A    between atoms: C_13  and  C_14
REMARK   14  A    between atoms: C_14  and  C_15
REMARK   15  A    between atoms: C_15  and  C_17
REMARK                            x       y       z     vdW  Elec       q    Type
REMARK                         _______ _______ _______ _____ _____    ______ ____
ROOT
ATOM      1  S   UNL     1       1.130   8.684  21.514  0.00  0.00    +0.000 S 
ENDROOT
BRANCH   1   2
ATOM      2  C   UNL     1       0.198   9.878  20.510  0.00  0.00    +0.000 C 
BRANCH   2   3
ATOM      3  C   UNL     1       0.788  10.002  19.101  0.00  0.00    +0.000 C 
BRANCH   3   4
ATOM      4  N   UNL     1      -0.227   9.850  18.040  0.00  0.00    +0.000 NA
ATOM      5  H   UNL     1       0.082  10.392  17.228  0.00  0.00    +0.000 HD
BRANCH   4   6
ATOM      6  C   UNL     1      -1.532  10.351  18.489  0.00  0.00    +0.000 C 
BRANCH   6   7
ATOM      7  C   UNL     1      -1.950  11.582  17.702  0.00  0.00    +0.000 C 
BRANCH   7   9
ATOM      8  O   UNL     1      -3.630  11.222  16.008  0.00  0.00    +0.000 OA
ATOM      9  C   UNL     1      -3.370  11.415  17.191  0.00  0.00    +0.000 C 
BRANCH   9  10
ATOM     10  C   UNL     1      -4.482  11.478  18.172  0.00  0.00    +0.000 A 
ATOM     11  C   UNL     1      -5.723  10.918  17.845  0.00  0.00    +0.000 A 
ATOM     12  C   UNL     1      -6.761  10.975  18.770  0.00  0.00    +0.000 A 
ATOM     13  C   UNL     1      -6.527  11.589  19.986  0.00  0.00    +0.000 A 
ATOM     14  N   UNL     1      -5.342  12.142  20.334  0.00  0.00    +0.000 NA
ATOM     15  C   UNL     1      -4.349  12.073  19.416  0.00  0.00    +0.000 A 
ENDBRANCH   9  10
ENDBRANCH   7   9
ENDBRANCH   6   7
ENDBRANCH   4   6
ENDBRANCH   3   4
ENDBRANCH   2   3
ENDBRANCH   1   2
BRANCH   1  16
ATOM     16  S   UNL     1       1.958   7.499  20.041  0.00  0.00    +0.000 S 
BRANCH  16  17
ATOM     17  C   UNL     1       1.572   5.803  20.615  0.00  0.00    +0.000 C 
BRANCH  17  18
ATOM     18  C   UNL     1       2.749   4.838  20.457  0.00  0.00    +0.000 C 
BRANCH  18  19
ATOM     19  N   UNL     1       2.340   3.587  19.793  0.00  0.00    +0.000 NA
ATOM     20  H   UNL     1       2.025   3.803  18.847  0.00  0.00    +0.000 HD
BRANCH  19  21
ATOM     21  C   UNL     1       3.496   2.682  19.721  0.00  0.00    +0.000 C 
BRANCH  21  22
ATOM     22  C   UNL     1       3.677   2.130  18.307  0.00  0.00    +0.000 C 
BRANCH  22  23
ATOM     23  C   UNL     1       3.359   3.202  17.280  0.00  0.00    +0.000 C 
ATOM     24  O   UNL     1       2.246   3.310  16.766  0.00  0.00    +0.000 OA
BRANCH  23  25
ATOM     25  C   UNL     1       4.430   4.141  16.863  0.00  0.00    +0.000 A 
ATOM     26  C   UNL     1       4.348   5.527  17.019  0.00  0.00    +0.000 A 
ATOM     27  C   UNL     1       5.427   6.321  16.627  0.00  0.00    +0.000 A 
ATOM     28  C   UNL     1       6.544   5.705  16.086  0.00  0.00    +0.000 A 
ATOM     29  N   UNL     1       6.649   4.371  15.909  0.00  0.00    +0.000 NA
ATOM     30  C   UNL     1       5.591   3.620  16.300  0.00  0.00    +0.000 A 
ENDBRANCH  23  25
ENDBRANCH  22  23
ENDBRANCH  21  22
ENDBRANCH  19  21
ENDBRANCH  18  19
ENDBRANCH  17  18
ENDBRANCH  16  17
ENDBRANCH   1  16
TORSDOF 15
ENDMDL
MODEL 8
REMARK VINA RESULT:      -6.0      3.089      4.723
REMARK  Name = 
REMARK  15 active torsions:
REMARK  status: ('A' for Active; 'I' for Inactive)
REMARK    1  A    between atoms: C_2  and  C_3
REMARK    2  A    between atoms: C_2  and  C_23
REMARK    3  A    between atoms: C_3  and  C_4
REMARK    4  A    between atoms: C_4  and  N_5
REMARK    5  A    between atoms: N_5  and  C_6
REMARK    6  A    between atoms: C_6  and  C_7
REMARK    7  A    between atoms: C_7  and  S_8
REMARK    8  A    between atoms: S_8  and  S_9
REMARK    9  A    between atoms: S_9  and  C_10
REMARK   10  A    between atoms: C_10  and  C_11
REMARK   11  A    between atoms: C_11  and  N_12
REMARK   12  A    between atoms: N_12  and  C_13
REMARK   13  A    between atoms: C_13  and  C_14
REMARK   14  A    between atoms: C_14  and  C_15
REMARK   15  A    between atoms: C_15  and  C_17
REMARK                            x       y       z     vdW  Elec       q    Type
REMARK                         _______ _______ _______ _____ _____    ______ ____
ROOT
ATOM      1  S   UNL     1       1.023   8.398  20.077  0.00  0.00    +0.000 S 
ENDROOT
BRANCH   1   2
ATOM      2  C   UNL     1       1.446   8.968  21.750  0.00  0.00    +0.000 C 
BRANCH   2   3
ATOM      3  C   UNL     1       0.209   9.011  22.653  0.00  0.00    +0.000 C 
BRANCH   3   4
ATOM      4  N   UNL     1       0.002  10.331  23.278  0.00  0.00    +0.000 NA
ATOM      5  H   UNL     1       0.049  10.211  24.293  0.00  0.00    +0.000 HD
BRANCH   4   6
ATOM      6  C   UNL     1      -1.310  10.882  22.916  0.00  0.00    +0.000 C 
BRANCH   6   7
ATOM      7  C   UNL     1      -1.323  12.397  23.035  0.00  0.00    +0.000 C 
BRANCH   7   9
ATOM      8  O   UNL     1      -2.421  13.539  21.215  0.00  0.00    +0.000 OA
ATOM      9  C   UNL     1      -2.520  12.966  22.295  0.00  0.00    +0.000 C 
BRANCH   9  10
ATOM     10  C   UNL     1      -3.864  12.808  22.906  0.00  0.00    +0.000 A 
ATOM     11  C   UNL     1      -5.006  13.062  22.135  0.00  0.00    +0.000 A 
ATOM     12  C   UNL     1      -6.264  12.907  22.711  0.00  0.00    +0.000 A 
ATOM     13  C   UNL     1      -6.339  12.508  24.033  0.00  0.00    +0.000 A 
ATOM     14  N   UNL     1      -5.258  12.257  24.806  0.00  0.00    +0.000 NA
ATOM     15  C   UNL     1      -4.046  12.415  24.221  0.00  0.00    +0.000 A 
ENDBRANCH   9  10
ENDBRANCH   7   9
ENDBRANCH   6   7
ENDBRANCH   4   6
ENDBRANCH   3   4
ENDBRANCH   2   3
ENDBRANCH   1   2
BRANCH   1  16
ATOM     16  S   UNL     1       2.352   6.835  19.851  0.00  0.00    +0.000 S 
BRANCH  16  17
ATOM     17  C   UNL     1       1.695   5.570  21.002  0.00  0.00    +0.000 C 
BRANCH  17  18
ATOM     18  C   UNL     1       1.176   4.323  20.283  0.00  0.00    +0.000 C 
BRANCH  18  19
ATOM     19  N   UNL     1       2.224   3.293  20.158  0.00  0.00    +0.000 NA
ATOM     20  H   UNL     1       2.338   2.828  21.059  0.00  0.00    +0.000 HD
BRANCH  19  21
ATOM     21  C   UNL     1       1.807   2.304  19.154  0.00  0.00    +0.000 C 
BRANCH  21  22
ATOM     22  C   UNL     1       2.848   2.174  18.042  0.00  0.00    +0.000 C 
BRANCH  22  23
ATOM     23  C   UNL     1       3.241   3.548  17.529  0.00  0.00    +0.000 C 
ATOM     24  O   UNL     1       2.408   4.373  17.156  0.00  0.00    +0.000 OA
BRANCH  23  25
ATOM     25  C   UNL     1       4.680   3.903  17.451  0.00  0.00    +0.000 A 
ATOM     26  C   UNL     1       5.384   4.021  16.250  0.00  0.00    +0.000 A 
ATOM     27  C   UNL     1       6.728   4.397  16.283  0.00  0.00    +0.000 A 
ATOM     28  C   UNL     1       7.323   4.635  17.512  0.00  0.00    +0.000 A 
ATOM     29  N   UNL     1       6.674   4.517  18.690  0.00  0.00    +0.000 NA
ATOM     30  C   UNL     1       5.369   4.154  18.634  0.00  0.00    +0.000 A 
ENDBRANCH  23  25
ENDBRANCH  22  23
ENDBRANCH  21  22
ENDBRANCH  19  21
ENDBRANCH  18  19
ENDBRANCH  17  18
ENDBRANCH  16  17
ENDBRANCH   1  16
TORSDOF 15
ENDMDL
MODEL 9
REMARK VINA RESULT:      -5.9      4.110     10.425
REMARK  Name = 
REMARK  15 active torsions:
REMARK  status: ('A' for Active; 'I' for Inactive)
REMARK    1  A    between atoms: C_2  and  C_3
REMARK    2  A    between atoms: C_2  and  C_23
REMARK    3  A    between atoms: C_3  and  C_4
REMARK    4  A    between atoms: C_4  and  N_5
REMARK    5  A    between atoms: N_5  and  C_6
REMARK    6  A    between atoms: C_6  and  C_7
REMARK    7  A    between atoms: C_7  and  S_8
REMARK    8  A    between atoms: S_8  and  S_9
REMARK    9  A    between atoms: S_9  and  C_10
REMARK   10  A    between atoms: C_10  and  C_11
REMARK   11  A    between atoms: C_11  and  N_12
REMARK   12  A    between atoms: N_12  and  C_13
REMARK   13  A    between atoms: C_13  and  C_14
REMARK   14  A    between atoms: C_14  and  C_15
REMARK   15  A    between atoms: C_15  and  C_17
REMARK                            x       y       z     vdW  Elec       q    Type
REMARK                         _______ _______ _______ _____ _____    ______ ____
ROOT
ATOM      1  S   UNL     1       2.782   7.095  19.257  0.00  0.00    +0.000 S 
ENDROOT
BRANCH   1   2
ATOM      2  C   UNL     1       1.761   5.651  18.835  0.00  0.00    +0.000 C 
BRANCH   2   3
ATOM      3  C   UNL     1       1.270   4.928  20.094  0.00  0.00    +0.000 C 
BRANCH   3   4
ATOM      4  N   UNL     1       2.317   4.805  21.127  0.00  0.00    +0.000 NA
ATOM      5  H   UNL     1       3.195   5.148  20.729  0.00  0.00    +0.000 HD
BRANCH   4   6
ATOM      6  C   UNL     1       2.485   3.405  21.537  0.00  0.00    +0.000 C 
BRANCH   6   7
ATOM      7  C   UNL     1       2.740   2.506  20.339  0.00  0.00    +0.000 C 
BRANCH   7   9
ATOM      8  O   UNL     1       5.058   1.860  20.522  0.00  0.00    +0.000 OA
ATOM      9  C   UNL     1       4.209   2.547  19.961  0.00  0.00    +0.000 C 
BRANCH   9  10
ATOM     10  C   UNL     1       4.626   3.448  18.858  0.00  0.00    +0.000 A 
ATOM     11  C   UNL     1       4.117   3.243  17.569  0.00  0.00    +0.000 A 
ATOM     12  C   UNL     1       4.507   4.094  16.540  0.00  0.00    +0.000 A 
ATOM     13  C   UNL     1       5.392   5.116  16.829  0.00  0.00    +0.000 A 
ATOM     14  N   UNL     1       5.905   5.341  18.061  0.00  0.00    +0.000 NA
ATOM     15  C   UNL     1       5.509   4.499  19.045  0.00  0.00    +0.000 A 
ENDBRANCH   9  10
ENDBRANCH   7   9
ENDBRANCH   6   7
ENDBRANCH   4   6
ENDBRANCH   3   4
ENDBRANCH   2   3
ENDBRANCH   1   2
BRANCH   1  16
ATOM     16  S   UNL     1       1.930   8.539  18.054  0.00  0.00    +0.000 S 
BRANCH  16  17
ATOM     17  C   UNL     1       0.872   9.472  19.222  0.00  0.00    +0.000 C 
BRANCH  17  18
ATOM     18  C   UNL     1       0.008  10.528  18.529  0.00  0.00    +0.000 C 
BRANCH  18  19
ATOM     19  N   UNL     1      -0.822   9.936  17.463  0.00  0.00    +0.000 NA
ATOM     20  H   UNL     1      -1.219   9.059  17.803  0.00  0.00    +0.000 HD
BRANCH  19  21
ATOM     21  C   UNL     1      -1.913  10.864  17.133  0.00  0.00    +0.000 C 
BRANCH  21  22
ATOM     22  C   UNL     1      -2.823  11.097  18.338  0.00  0.00    +0.000 C 
BRANCH  22  23
ATOM     23  C   UNL     1      -4.210  11.505  17.877  0.00  0.00    +0.000 C 
ATOM     24  O   UNL     1      -4.455  11.794  16.706  0.00  0.00    +0.000 OA
BRANCH  23  25
ATOM     25  C   UNL     1      -5.307  11.582  18.874  0.00  0.00    +0.000 A 
ATOM     26  C   UNL     1      -6.349  10.654  18.951  0.00  0.00    +0.000 A 
ATOM     27  C   UNL     1      -7.314  10.795  19.950  0.00  0.00    +0.000 A 
ATOM     28  C   UNL     1      -7.209  11.860  20.830  0.00  0.00    +0.000 A 
ATOM     29  N   UNL     1      -6.223  12.780  20.774  0.00  0.00    +0.000 NA
ATOM     30  C   UNL     1      -5.296  12.622  19.799  0.00  0.00    +0.000 A 
ENDBRANCH  23  25
ENDBRANCH  22  23
ENDBRANCH  21  22
ENDBRANCH  19  21
ENDBRANCH  18  19
ENDBRANCH  17  18
ENDBRANCH  16  17
ENDBRANCH   1  16
TORSDOF 15
ENDMDL
