MODEL 1
REMARK VINA RESULT:      -8.0      0.000      0.000
REMARK  Name = 
REMARK  2 active torsions:
REMARK  status: ('A' for Active; 'I' for Inactive)
REMARK    1  A    between atoms: C_9  and  C_10
REMARK    2  A    between atoms: C_15  and  C_16
REMARK                            x       y       z     vdW  Elec       q    Type
REMARK                         _______ _______ _______ _____ _____    ______ ____
ROOT
ATOM      1  C   UNL     1      -0.443  11.137  18.142  0.00  0.00    +0.000 A 
ATOM      2  N   UNL     1      -0.913  12.422  18.101  0.00  0.00    +0.000 NA
ATOM      3  C   UNL     1      -0.138  13.388  18.637  0.00  0.00    +0.000 A 
ATOM      4  C   UNL     1       1.070  13.110  19.232  0.00  0.00    +0.000 A 
ATOM      5  N   UNL     1       1.565  11.858  19.299  0.00  0.00    +0.000 NA
ATOM      6  C   UNL     1       0.815  10.863  18.737  0.00  0.00    +0.000 A 
ENDROOT
BRANCH   1  15
ATOM      7  C   UNL     1      -7.912  13.816  20.170  0.00  0.00    +0.000 A 
ATOM      8  C   UNL     1      -7.505  12.781  21.012  0.00  0.00    +0.000 A 
ATOM      9  C   UNL     1      -6.580  11.840  20.562  0.00  0.00    +0.000 A 
ATOM     10  C   UNL     1      -6.046  11.903  19.288  0.00  0.00    +0.000 A 
ATOM     11  N   UNL     1      -5.150  10.988  18.928  0.00  0.00    +0.000 NA
ATOM     12  C   UNL     1      -4.598  11.087  17.712  0.00  0.00    +0.000 A 
ATOM     13  N   UNL     1      -3.564  10.193  17.390  0.00  0.00    +0.000 N 
ATOM     14  C   UNL     1      -2.684   9.615  18.368  0.00  0.00    +0.000 C 
ATOM     15  C   UNL     1      -1.471  10.082  17.536  0.00  0.00    +0.000 C 
ATOM     16  C   UNL     1      -2.512  10.565  16.512  0.00  0.00    +0.000 C 
ATOM     17  N   UNL     1      -4.942  12.028  16.811  0.00  0.00    +0.000 NA
ATOM     18  C   UNL     1      -5.856  12.936  17.196  0.00  0.00    +0.000 A 
ATOM     19  C   UNL     1      -6.450  12.943  18.447  0.00  0.00    +0.000 A 
ATOM     20  C   UNL     1      -7.389  13.900  18.882  0.00  0.00    +0.000 A 
ENDBRANCH   1  15
BRANCH   6  21
ATOM     21  C   UNL     1       1.456   9.528  18.794  0.00  0.00    +0.000 A 
ATOM     22  C   UNL     1       2.237   9.034  17.733  0.00  0.00    +0.000 A 
ATOM     23  C   UNL     1       2.813   7.745  17.755  0.00  0.00    +0.000 A 
ATOM     24  C   UNL     1       2.637   6.928  18.886  0.00  0.00    +0.000 A 
ATOM     25  C   UNL     1       3.027   5.614  19.261  0.00  0.00    +0.000 A 
ATOM     26  C   UNL     1       2.536   5.364  20.526  0.00  0.00    +0.000 A 
ATOM     27  N   UNL     1       1.849   6.473  20.930  0.00  0.00    +0.000 N 
ATOM     28  C   UNL     1       1.870   7.420  19.934  0.00  0.00    +0.000 A 
ATOM     29  C   UNL     1       1.243   8.666  19.874  0.00  0.00    +0.000 A 
ATOM     30  H   UNL     1       1.393   6.596  21.826  0.00  0.00    +0.000 HD
ENDBRANCH   6  21
TORSDOF 2
ENDMDL
MODEL 2
REMARK VINA RESULT:      -7.7      0.743      1.228
REMARK  Name = 
REMARK  2 active torsions:
REMARK  status: ('A' for Active; 'I' for Inactive)
REMARK    1  A    between atoms: C_9  and  C_10
REMARK    2  A    between atoms: C_15  and  C_16
REMARK                            x       y       z     vdW  Elec       q    Type
REMARK                         _______ _______ _______ _____ _____    ______ ____
ROOT
ATOM      1  C   UNL     1      -0.462  11.185  18.181  0.00  0.00    +0.000 A 
ATOM      2  N   UNL     1      -0.800  12.489  17.932  0.00  0.00    +0.000 NA
ATOM      3  C   UNL     1      -0.017  13.450  18.466  0.00  0.00    +0.000 A 
ATOM      4  C   UNL     1       1.068  13.153  19.256  0.00  0.00    +0.000 A 
ATOM      5  N   UNL     1       1.431  11.883  19.529  0.00  0.00    +0.000 NA
ATOM      6  C   UNL     1       0.673  10.889  18.977  0.00  0.00    +0.000 A 
ENDROOT
BRANCH   1  15
ATOM      7  C   UNL     1      -7.916  13.773  20.379  0.00  0.00    +0.000 A 
ATOM      8  C   UNL     1      -7.497  12.712  21.182  0.00  0.00    +0.000 A 
ATOM      9  C   UNL     1      -6.575  11.790  20.691  0.00  0.00    +0.000 A 
ATOM     10  C   UNL     1      -6.054  11.896  19.413  0.00  0.00    +0.000 A 
ATOM     11  N   UNL     1      -5.161  10.997  19.013  0.00  0.00    +0.000 NA
ATOM     12  C   UNL     1      -4.622  11.137  17.795  0.00  0.00    +0.000 A 
ATOM     13  N   UNL     1      -3.589  10.257  17.433  0.00  0.00    +0.000 N 
ATOM     14  C   UNL     1      -2.697   9.650  18.381  0.00  0.00    +0.000 C 
ATOM     15  C   UNL     1      -1.494  10.148  17.552  0.00  0.00    +0.000 C 
ATOM     16  C   UNL     1      -2.549  10.661  16.556  0.00  0.00    +0.000 C 
ATOM     17  N   UNL     1      -4.979  12.107  16.930  0.00  0.00    +0.000 NA
ATOM     18  C   UNL     1      -5.891  12.999  17.355  0.00  0.00    +0.000 A 
ATOM     19  C   UNL     1      -6.471  12.962  18.612  0.00  0.00    +0.000 A 
ATOM     20  C   UNL     1      -7.407  13.902  19.089  0.00  0.00    +0.000 A 
ENDBRANCH   1  15
BRANCH   6  21
ATOM     21  C   UNL     1       1.172   9.525  19.272  0.00  0.00    +0.000 A 
ATOM     22  C   UNL     1       0.990   8.924  20.530  0.00  0.00    +0.000 A 
ATOM     23  C   UNL     1       1.502   7.645  20.839  0.00  0.00    +0.000 A 
ATOM     24  C   UNL     1       2.191   6.920  19.850  0.00  0.00    +0.000 A 
ATOM     25  C   UNL     1       2.846   5.660  19.785  0.00  0.00    +0.000 A 
ATOM     26  C   UNL     1       3.351   5.502  18.511  0.00  0.00    +0.000 A 
ATOM     27  N   UNL     1       3.038   6.626  17.800  0.00  0.00    +0.000 N 
ATOM     28  C   UNL     1       2.364   7.512  18.607  0.00  0.00    +0.000 A 
ATOM     29  C   UNL     1       1.920   8.807  18.332  0.00  0.00    +0.000 A 
ATOM     30  H   UNL     1       3.258   6.794  16.826  0.00  0.00    +0.000 HD
ENDBRANCH   6  21
TORSDOF 2
ENDMDL
MODEL 3
REMARK VINA RESULT:      -7.4      2.457      8.827
REMARK  Name = 
REMARK  2 active torsions:
REMARK  status: ('A' for Active; 'I' for Inactive)
REMARK    1  A    between atoms: C_9  and  C_10
REMARK    2  A    between atoms: C_15  and  C_16
REMARK                            x       y       z     vdW  Elec       q    Type
REMARK                         _______ _______ _______ _____ _____    ______ ____
ROOT
ATOM      1  C   UNL     1      -2.768  12.107  19.034  0.00  0.00    +0.000 A 
ATOM      2  N   UNL     1      -2.558  11.356  17.908  0.00  0.00    +0.000 NA
ATOM      3  C   UNL     1      -3.635  10.791  17.323  0.00  0.00    +0.000 A 
ATOM      4  C   UNL     1      -4.903  10.930  17.838  0.00  0.00    +0.000 A 
ATOM      5  N   UNL     1      -5.151  11.656  18.947  0.00  0.00    +0.000 NA
ATOM      6  C   UNL     1      -4.082  12.263  19.544  0.00  0.00    +0.000 A 
ENDROOT
BRANCH   1  15
ATOM      7  C   UNL     1       2.457   5.802  19.187  0.00  0.00    +0.000 A 
ATOM      8  C   UNL     1       1.899   6.020  20.446  0.00  0.00    +0.000 A 
ATOM      9  C   UNL     1       1.442   7.290  20.794  0.00  0.00    +0.000 A 
ATOM     10  C   UNL     1       1.527   8.356  19.917  0.00  0.00    +0.000 A 
ATOM     11  N   UNL     1       1.052   9.537  20.301  0.00  0.00    +0.000 NA
ATOM     12  C   UNL     1       1.088  10.550  19.426  0.00  0.00    +0.000 A 
ATOM     13  N   UNL     1       0.471  11.755  19.797  0.00  0.00    +0.000 N 
ATOM     14  C   UNL     1      -0.641  11.829  20.703  0.00  0.00    +0.000 C 
ATOM     15  C   UNL     1      -1.418  12.667  19.666  0.00  0.00    +0.000 C 
ATOM     16  C   UNL     1      -0.127  12.606  18.831  0.00  0.00    +0.000 C 
ATOM     17  N   UNL     1       1.634  10.454  18.197  0.00  0.00    +0.000 NA
ATOM     18  C   UNL     1       2.116   9.251  17.835  0.00  0.00    +0.000 A 
ATOM     19  C   UNL     1       2.082   8.134  18.653  0.00  0.00    +0.000 A 
ATOM     20  C   UNL     1       2.554   6.858  18.285  0.00  0.00    +0.000 A 
ENDBRANCH   1  15
BRANCH   6  21
ATOM     21  C   UNL     1      -4.445  13.093  20.717  0.00  0.00    +0.000 A 
ATOM     22  C   UNL     1      -4.154  12.686  22.032  0.00  0.00    +0.000 A 
ATOM     23  C   UNL     1      -4.536  13.443  23.160  0.00  0.00    +0.000 A 
ATOM     24  C   UNL     1      -5.204  14.668  22.976  0.00  0.00    +0.000 A 
ATOM     25  C   UNL     1      -5.749  15.666  23.829  0.00  0.00    +0.000 A 
ATOM     26  C   UNL     1      -6.297  16.655  23.039  0.00  0.00    +0.000 A 
ATOM     27  N   UNL     1      -6.117  16.289  21.735  0.00  0.00    +0.000 N 
ATOM     28  C   UNL     1      -5.486  15.069  21.678  0.00  0.00    +0.000 A 
ATOM     29  C   UNL     1      -5.171  14.280  20.571  0.00  0.00    +0.000 A 
ATOM     30  H   UNL     1      -6.397  16.827  20.923  0.00  0.00    +0.000 HD
ENDBRANCH   6  21
TORSDOF 2
ENDMDL
MODEL 4
REMARK VINA RESULT:      -7.4      2.142      8.808
REMARK  Name = 
REMARK  2 active torsions:
REMARK  status: ('A' for Active; 'I' for Inactive)
REMARK    1  A    between atoms: C_9  and  C_10
REMARK    2  A    between atoms: C_15  and  C_16
REMARK                            x       y       z     vdW  Elec       q    Type
REMARK                         _______ _______ _______ _____ _____    ______ ____
ROOT
ATOM      1  C   UNL     1      -3.365  12.121  19.103  0.00  0.00    +0.000 A 
ATOM      2  N   UNL     1      -2.952  11.374  18.032  0.00  0.00    +0.000 NA
ATOM      3  C   UNL     1      -3.901  10.751  17.302  0.00  0.00    +0.000 A 
ATOM      4  C   UNL     1      -5.237  10.830  17.620  0.00  0.00    +0.000 A 
ATOM      5  N   UNL     1      -5.683  11.550  18.669  0.00  0.00    +0.000 NA
ATOM      6  C   UNL     1      -4.747  12.215  19.409  0.00  0.00    +0.000 A 
ENDROOT
BRANCH   1  15
ATOM      7  C   UNL     1       2.570   6.477  19.098  0.00  0.00    +0.000 A 
ATOM      8  C   UNL     1       1.884   6.481  20.311  0.00  0.00    +0.000 A 
ATOM      9  C   UNL     1       1.245   7.641  20.746  0.00  0.00    +0.000 A 
ATOM     10  C   UNL     1       1.271   8.805  20.000  0.00  0.00    +0.000 A 
ATOM     11  N   UNL     1       0.622   9.871  20.459  0.00  0.00    +0.000 NA
ATOM     12  C   UNL     1       0.607  10.977  19.705  0.00  0.00    +0.000 A 
ATOM     13  N   UNL     1      -0.184  12.053  20.140  0.00  0.00    +0.000 N 
ATOM     14  C   UNL     1      -1.370  11.893  20.935  0.00  0.00    +0.000 C 
ATOM     15  C   UNL     1      -2.153  12.753  19.921  0.00  0.00    +0.000 C 
ATOM     16  C   UNL     1      -0.799  12.938  19.216  0.00  0.00    +0.000 C 
ATOM     17  N   UNL     1       1.264  11.089  18.533  0.00  0.00    +0.000 NA
ATOM     18  C   UNL     1       1.920  10.001  18.094  0.00  0.00    +0.000 A 
ATOM     19  C   UNL     1       1.955   8.799  18.781  0.00  0.00    +0.000 A 
ATOM     20  C   UNL     1       2.612   7.637  18.328  0.00  0.00    +0.000 A 
ENDBRANCH   1  15
BRANCH   6  21
ATOM     21  C   UNL     1      -5.321  13.033  20.503  0.00  0.00    +0.000 A 
ATOM     22  C   UNL     1      -5.062  14.411  20.614  0.00  0.00    +0.000 A 
ATOM     23  C   UNL     1      -5.564  15.191  21.677  0.00  0.00    +0.000 A 
ATOM     24  C   UNL     1      -6.383  14.590  22.650  0.00  0.00    +0.000 A 
ATOM     25  C   UNL     1      -7.036  15.021  23.837  0.00  0.00    +0.000 A 
ATOM     26  C   UNL     1      -7.703  13.941  24.378  0.00  0.00    +0.000 A 
ATOM     27  N   UNL     1      -7.469  12.864  23.571  0.00  0.00    +0.000 N 
ATOM     28  C   UNL     1      -6.641  13.231  22.536  0.00  0.00    +0.000 A 
ATOM     29  C   UNL     1      -6.081  12.450  21.523  0.00  0.00    +0.000 A 
ATOM     30  H   UNL     1      -7.844  11.932  23.700  0.00  0.00    +0.000 HD
ENDBRANCH   6  21
TORSDOF 2
ENDMDL
MODEL 5
REMARK VINA RESULT:      -7.4      4.136      6.896
REMARK  Name = 
REMARK  2 active torsions:
REMARK  status: ('A' for Active; 'I' for Inactive)
REMARK    1  A    between atoms: C_9  and  C_10
REMARK    2  A    between atoms: C_15  and  C_16
REMARK                            x       y       z     vdW  Elec       q    Type
REMARK                         _______ _______ _______ _____ _____    ______ ____
ROOT
ATOM      1  C   UNL     1       2.142  15.869  19.250  0.00  0.00    +0.000 A 
ATOM      2  N   UNL     1       0.924  16.391  18.904  0.00  0.00    +0.000 NA
ATOM      3  C   UNL     1       0.891  17.278  17.887  0.00  0.00    +0.000 A 
ATOM      4  C   UNL     1       2.030  17.677  17.228  0.00  0.00    +0.000 A 
ATOM      5  N   UNL     1       3.248  17.191  17.542  0.00  0.00    +0.000 NA
ATOM      6  C   UNL     1       3.308  16.269  18.548  0.00  0.00    +0.000 A 
ENDROOT
BRANCH   1  15
ATOM      7  C   UNL     1      -3.279  10.072  17.229  0.00  0.00    +0.000 A 
ATOM      8  C   UNL     1      -3.853  11.023  18.072  0.00  0.00    +0.000 A 
ATOM      9  C   UNL     1      -3.051  11.751  18.949  0.00  0.00    +0.000 A 
ATOM     10  C   UNL     1      -1.683  11.556  19.010  0.00  0.00    +0.000 A 
ATOM     11  N   UNL     1      -0.971  12.299  19.852  0.00  0.00    +0.000 NA
ATOM     12  C   UNL     1       0.359  12.142  19.867  0.00  0.00    +0.000 A 
ATOM     13  N   UNL     1       1.110  13.019  20.666  0.00  0.00    +0.000 N 
ATOM     14  C   UNL     1       0.694  14.356  20.983  0.00  0.00    +0.000 C 
ATOM     15  C   UNL     1       2.061  14.885  20.500  0.00  0.00    +0.000 C 
ATOM     16  C   UNL     1       2.427  13.404  20.303  0.00  0.00    +0.000 C 
ATOM     17  N   UNL     1       1.010  11.231  19.117  0.00  0.00    +0.000 NA
ATOM     18  C   UNL     1       0.267  10.486  18.280  0.00  0.00    +0.000 A 
ATOM     19  C   UNL     1      -1.108  10.606  18.162  0.00  0.00    +0.000 A 
ATOM     20  C   UNL     1      -1.904   9.857  17.272  0.00  0.00    +0.000 A 
ENDBRANCH   1  15
BRANCH   6  21
ATOM     21  C   UNL     1       4.670  15.737  18.790  0.00  0.00    +0.000 A 
ATOM     22  C   UNL     1       5.395  16.054  19.953  0.00  0.00    +0.000 A 
ATOM     23  C   UNL     1       6.710  15.593  20.174  0.00  0.00    +0.000 A 
ATOM     24  C   UNL     1       7.319  14.758  19.220  0.00  0.00    +0.000 A 
ATOM     25  C   UNL     1       8.587  14.132  19.079  0.00  0.00    +0.000 A 
ATOM     26  C   UNL     1       8.589  13.425  17.894  0.00  0.00    +0.000 A 
ATOM     27  N   UNL     1       7.372  13.608  17.302  0.00  0.00    +0.000 N 
ATOM     28  C   UNL     1       6.600  14.442  18.075  0.00  0.00    +0.000 A 
ATOM     29  C   UNL     1       5.328  14.961  17.830  0.00  0.00    +0.000 A 
ATOM     30  H   UNL     1       7.068  13.195  16.428  0.00  0.00    +0.000 HD
ENDBRANCH   6  21
TORSDOF 2
ENDMDL
MODEL 6
REMARK VINA RESULT:      -7.4      2.903      8.468
REMARK  Name = 
REMARK  2 active torsions:
REMARK  status: ('A' for Active; 'I' for Inactive)
REMARK    1  A    between atoms: C_9  and  C_10
REMARK    2  A    between atoms: C_15  and  C_16
REMARK                            x       y       z     vdW  Elec       q    Type
REMARK                         _______ _______ _______ _____ _____    ______ ____
ROOT
ATOM      1  C   UNL     1      -0.499  10.415  18.614  0.00  0.00    +0.000 A 
ATOM      2  N   UNL     1      -0.699   9.724  17.449  0.00  0.00    +0.000 NA
ATOM      3  C   UNL     1      -1.956   9.673  16.961  0.00  0.00    +0.000 A 
ATOM      4  C   UNL     1      -3.015  10.264  17.608  0.00  0.00    +0.000 A 
ATOM      5  N   UNL     1      -2.861  10.948  18.760  0.00  0.00    +0.000 NA
ATOM      6  C   UNL     1      -1.594  11.041  19.262  0.00  0.00    +0.000 A 
ENDROOT
BRANCH   1  15
ATOM      7  C   UNL     1       1.324   2.462  19.325  0.00  0.00    +0.000 A 
ATOM      8  C   UNL     1       1.038   3.023  20.569  0.00  0.00    +0.000 A 
ATOM      9  C   UNL     1       1.235   4.387  20.779  0.00  0.00    +0.000 A 
ATOM     10  C   UNL     1       1.711   5.213  19.776  0.00  0.00    +0.000 A 
ATOM     11  N   UNL     1       1.854   6.509  20.033  0.00  0.00    +0.000 NA
ATOM     12  C   UNL     1       2.264   7.310  19.041  0.00  0.00    +0.000 A 
ATOM     13  N   UNL     1       2.290   8.693  19.288  0.00  0.00    +0.000 N 
ATOM     14  C   UNL     1       1.417   9.348  20.221  0.00  0.00    +0.000 C 
ATOM     15  C   UNL     1       1.010  10.350  19.121  0.00  0.00    +0.000 C 
ATOM     16  C   UNL     1       2.055   9.632  18.250  0.00  0.00    +0.000 C 
ATOM     17  N   UNL     1       2.596   6.866  17.813  0.00  0.00    +0.000 NA
ATOM     18  C   UNL     1       2.451   5.549  17.581  0.00  0.00    +0.000 A 
ATOM     19  C   UNL     1       1.992   4.650  18.528  0.00  0.00    +0.000 A 
ATOM     20  C   UNL     1       1.805   3.271  18.299  0.00  0.00    +0.000 A 
ENDBRANCH   1  15
BRANCH   6  21
ATOM     21  C   UNL     1      -1.498  11.861  20.493  0.00  0.00    +0.000 A 
ATOM     22  C   UNL     1      -1.210  11.289  21.745  0.00  0.00    +0.000 A 
ATOM     23  C   UNL     1      -1.163  12.051  22.932  0.00  0.00    +0.000 A 
ATOM     24  C   UNL     1      -1.376  13.441  22.870  0.00  0.00    +0.000 A 
ATOM     25  C   UNL     1      -1.429  14.504  23.812  0.00  0.00    +0.000 A 
ATOM     26  C   UNL     1      -1.686  15.673  23.127  0.00  0.00    +0.000 A 
ATOM     27  N   UNL     1      -1.806  15.359  21.803  0.00  0.00    +0.000 N 
ATOM     28  C   UNL     1      -1.655  14.004  21.632  0.00  0.00    +0.000 A 
ATOM     29  C   UNL     1      -1.773  13.233  20.474  0.00  0.00    +0.000 A 
ATOM     30  H   UNL     1      -1.975  16.015  21.050  0.00  0.00    +0.000 HD
ENDBRANCH   6  21
TORSDOF 2
ENDMDL
MODEL 7
REMARK VINA RESULT:      -7.2      1.990      2.789
REMARK  Name = 
REMARK  2 active torsions:
REMARK  status: ('A' for Active; 'I' for Inactive)
REMARK    1  A    between atoms: C_9  and  C_10
REMARK    2  A    between atoms: C_15  and  C_16
REMARK                            x       y       z     vdW  Elec       q    Type
REMARK                         _______ _______ _______ _____ _____    ______ ____
ROOT
ATOM      1  C   UNL     1      -0.134  10.203  20.813  0.00  0.00    +0.000 A 
ATOM      2  N   UNL     1      -0.806  10.806  21.843  0.00  0.00    +0.000 NA
ATOM      3  C   UNL     1      -0.595  10.332  23.089  0.00  0.00    +0.000 A 
ATOM      4  C   UNL     1       0.240   9.267  23.334  0.00  0.00    +0.000 A 
ATOM      5  N   UNL     1       0.915   8.643  22.348  0.00  0.00    +0.000 NA
ATOM      6  C   UNL     1       0.743   9.121  21.079  0.00  0.00    +0.000 A 
ENDROOT
BRANCH   1  15
ATOM      7  C   UNL     1      -7.916  12.688  21.393  0.00  0.00    +0.000 A 
ATOM      8  C   UNL     1      -7.830  11.462  20.735  0.00  0.00    +0.000 A 
ATOM      9  C   UNL     1      -6.662  11.116  20.057  0.00  0.00    +0.000 A 
ATOM     10  C   UNL     1      -5.570  11.965  20.017  0.00  0.00    +0.000 A 
ATOM     11  N   UNL     1      -4.477  11.567  19.373  0.00  0.00    +0.000 NA
ATOM     12  C   UNL     1      -3.406  12.371  19.384  0.00  0.00    +0.000 A 
ATOM     13  N   UNL     1      -2.220  11.886  18.810  0.00  0.00    +0.000 N 
ATOM     14  C   UNL     1      -1.881  10.491  18.751  0.00  0.00    +0.000 C 
ATOM     15  C   UNL     1      -0.512  10.808  19.389  0.00  0.00    +0.000 C 
ATOM     16  C   UNL     1      -0.948  12.280  19.300  0.00  0.00    +0.000 C 
ATOM     17  N   UNL     1      -3.395  13.588  19.963  0.00  0.00    +0.000 NA
ATOM     18  C   UNL     1      -4.515  13.972  20.601  0.00  0.00    +0.000 A 
ATOM     19  C   UNL     1      -5.656  13.191  20.682  0.00  0.00    +0.000 A 
ATOM     20  C   UNL     1      -6.831  13.560  21.367  0.00  0.00    +0.000 A 
ENDBRANCH   1  15
BRANCH   6  21
ATOM     21  C   UNL     1       1.567   8.424  20.062  0.00  0.00    +0.000 A 
ATOM     22  C   UNL     1       1.808   8.982  18.794  0.00  0.00    +0.000 A 
ATOM     23  C   UNL     1       2.550   8.309  17.800  0.00  0.00    +0.000 A 
ATOM     24  C   UNL     1       3.103   7.048  18.087  0.00  0.00    +0.000 A 
ATOM     25  C   UNL     1       3.864   6.085  17.369  0.00  0.00    +0.000 A 
ATOM     26  C   UNL     1       4.108   5.017  18.208  0.00  0.00    +0.000 A 
ATOM     27  N   UNL     1       3.512   5.288  19.407  0.00  0.00    +0.000 N 
ATOM     28  C   UNL     1       2.868   6.501  19.341  0.00  0.00    +0.000 A 
ATOM     29  C   UNL     1       2.071   7.140  20.292  0.00  0.00    +0.000 A 
ATOM     30  H   UNL     1       3.536   4.698  20.229  0.00  0.00    +0.000 HD
ENDBRANCH   6  21
TORSDOF 2
ENDMDL
MODEL 8
REMARK VINA RESULT:      -7.2      3.971      7.024
REMARK  Name = 
REMARK  2 active torsions:
REMARK  status: ('A' for Active; 'I' for Inactive)
REMARK    1  A    between atoms: C_9  and  C_10
REMARK    2  A    between atoms: C_15  and  C_16
REMARK                            x       y       z     vdW  Elec       q    Type
REMARK                         _______ _______ _______ _____ _____    ______ ____
ROOT
ATOM      1  C   UNL     1       0.975  16.659  18.968  0.00  0.00    +0.000 A 
ATOM      2  N   UNL     1      -0.244  17.086  18.514  0.00  0.00    +0.000 NA
ATOM      3  C   UNL     1      -0.263  17.853  17.404  0.00  0.00    +0.000 A 
ATOM      4  C   UNL     1       0.890  18.227  16.754  0.00  0.00    +0.000 A 
ATOM      5  N   UNL     1       2.109  17.833  17.173  0.00  0.00    +0.000 NA
ATOM      6  C   UNL     1       2.157  17.030  18.278  0.00  0.00    +0.000 A 
ENDROOT
BRANCH   1  15
ATOM      7  C   UNL     1      -3.146   9.839  17.073  0.00  0.00    +0.000 A 
ATOM      8  C   UNL     1      -3.973  10.764  17.710  0.00  0.00    +0.000 A 
ATOM      9  C   UNL     1      -3.424  11.708  18.576  0.00  0.00    +0.000 A 
ATOM     10  C   UNL     1      -2.065  11.757  18.827  0.00  0.00    +0.000 A 
ATOM     11  N   UNL     1      -1.602  12.696  19.646  0.00  0.00    +0.000 NA
ATOM     12  C   UNL     1      -0.279  12.771  19.841  0.00  0.00    +0.000 A 
ATOM     13  N   UNL     1       0.208  13.843  20.606  0.00  0.00    +0.000 N 
ATOM     14  C   UNL     1      -0.450  15.117  20.694  0.00  0.00    +0.000 C 
ATOM     15  C   UNL     1       0.873  15.815  20.316  0.00  0.00    +0.000 C 
ATOM     16  C   UNL     1       1.488  14.406  20.357  0.00  0.00    +0.000 C 
ATOM     17  N   UNL     1       0.604  11.908  19.300  0.00  0.00    +0.000 NA
ATOM     18  C   UNL     1       0.110  10.962  18.482  0.00  0.00    +0.000 A 
ATOM     19  C   UNL     1      -1.236  10.833  18.184  0.00  0.00    +0.000 A 
ATOM     20  C   UNL     1      -1.774   9.867  17.309  0.00  0.00    +0.000 A 
ENDBRANCH   1  15
BRANCH   6  21
ATOM     21  C   UNL     1       3.525  16.588  18.636  0.00  0.00    +0.000 A 
ATOM     22  C   UNL     1       4.222  17.141  19.725  0.00  0.00    +0.000 A 
ATOM     23  C   UNL     1       5.543  16.764  20.048  0.00  0.00    +0.000 A 
ATOM     24  C   UNL     1       6.186  15.774  19.282  0.00  0.00    +0.000 A 
ATOM     25  C   UNL     1       7.470  15.164  19.282  0.00  0.00    +0.000 A 
ATOM     26  C   UNL     1       7.507  14.241  18.257  0.00  0.00    +0.000 A 
ATOM     27  N   UNL     1       6.297  14.277  17.625  0.00  0.00    +0.000 N 
ATOM     28  C   UNL     1       5.494  15.226  18.212  0.00  0.00    +0.000 A 
ATOM     29  C   UNL     1       4.216  15.657  17.853  0.00  0.00    +0.000 A 
ATOM     30  H   UNL     1       6.018  13.695  16.844  0.00  0.00    +0.000 HD
ENDBRANCH   6  21
TORSDOF 2
ENDMDL
MODEL 9
REMARK VINA RESULT:      -7.2      2.337      8.508
REMARK  Name = 
REMARK  2 active torsions:
REMARK  status: ('A' for Active; 'I' for Inactive)
REMARK    1  A    between atoms: C_9  and  C_10
REMARK    2  A    between atoms: C_15  and  C_16
REMARK                            x       y       z     vdW  Elec       q    Type
REMARK                         _______ _______ _______ _____ _____    ______ ____
ROOT
ATOM      1  C   UNL     1      -2.598  11.896  18.527  0.00  0.00    +0.000 A 
ATOM      2  N   UNL     1      -2.302  11.296  17.332  0.00  0.00    +0.000 NA
ATOM      3  C   UNL     1      -3.322  10.749  16.638  0.00  0.00    +0.000 A 
ATOM      4  C   UNL     1      -4.614  10.759  17.109  0.00  0.00    +0.000 A 
ATOM      5  N   UNL     1      -4.946  11.334  18.282  0.00  0.00    +0.000 NA
ATOM      6  C   UNL     1      -3.937  11.922  18.993  0.00  0.00    +0.000 A 
ENDROOT
BRANCH   1  15
ATOM      7  C   UNL     1       2.507   5.531  19.246  0.00  0.00    +0.000 A 
ATOM      8  C   UNL     1       1.833   5.771  20.444  0.00  0.00    +0.000 A 
ATOM      9  C   UNL     1       1.362   7.050  20.733  0.00  0.00    +0.000 A 
ATOM     10  C   UNL     1       1.544   8.105  19.856  0.00  0.00    +0.000 A 
ATOM     11  N   UNL     1       1.050   9.295  20.181  0.00  0.00    +0.000 NA
ATOM     12  C   UNL     1       1.183  10.298  19.303  0.00  0.00    +0.000 A 
ATOM     13  N   UNL     1       0.549  11.515  19.601  0.00  0.00    +0.000 N 
ATOM     14  C   UNL     1      -0.644  11.613  20.396  0.00  0.00    +0.000 C 
ATOM     15  C   UNL     1      -1.306  12.447  19.280  0.00  0.00    +0.000 C 
ATOM     16  C   UNL     1       0.057  12.362  18.573  0.00  0.00    +0.000 C 
ATOM     17  N   UNL     1       1.843  10.181  18.134  0.00  0.00    +0.000 NA
ATOM     18  C   UNL     1       2.341   8.969  17.832  0.00  0.00    +0.000 A 
ATOM     19  C   UNL     1       2.215   7.862  18.654  0.00  0.00    +0.000 A 
ATOM     20  C   UNL     1       2.704   6.576  18.347  0.00  0.00    +0.000 A 
ENDBRANCH   1  15
BRANCH   6  21
ATOM     21  C   UNL     1      -4.392  12.586  20.237  0.00  0.00    +0.000 A 
ATOM     22  C   UNL     1      -5.615  12.257  20.849  0.00  0.00    +0.000 A 
ATOM     23  C   UNL     1      -6.082  12.915  22.007  0.00  0.00    +0.000 A 
ATOM     24  C   UNL     1      -5.290  13.914  22.601  0.00  0.00    +0.000 A 
ATOM     25  C   UNL     1      -5.420  14.785  23.717  0.00  0.00    +0.000 A 
ATOM     26  C   UNL     1      -4.284  15.564  23.791  0.00  0.00    +0.000 A 
ATOM     27  N   UNL     1      -3.472  15.209  22.751  0.00  0.00    +0.000 N 
ATOM     28  C   UNL     1      -4.081  14.233  21.999  0.00  0.00    +0.000 A 
ATOM     29  C   UNL     1      -3.660  13.630  20.812  0.00  0.00    +0.000 A 
ATOM     30  H   UNL     1      -2.556  15.594  22.555  0.00  0.00    +0.000 HD
ENDBRANCH   6  21
TORSDOF 2
ENDMDL
