MODEL 1
REMARK VINA RESULT:      -8.6      0.000      0.000
REMARK  Name = 
REMARK  9 active torsions:
REMARK  status: ('A' for Active; 'I' for Inactive)
REMARK    1  A    between atoms: C_1  and  O_2
REMARK    2  A    between atoms: O_2  and  C_3
REMARK    3  A    between atoms: C_8  and  C_9
REMARK    4  A    between atoms: C_9  and  N_10
REMARK    5  A    between atoms: C_11  and  C_13
REMARK    6  A    between atoms: C_13  and  C_14
REMARK    7  A    between atoms: C_14  and  C_15
REMARK    8  A    between atoms: C_15  and  N_16
REMARK    9  A    between atoms: C_24  and  C_25
REMARK                            x       y       z     vdW  Elec       q    Type
REMARK                         _______ _______ _______ _____ _____    ______ ____
ROOT
ATOM      1  C   UNL     1       7.917   6.228  18.861  0.00  0.00    +0.000 C 
ENDROOT
BRANCH   1   3
ATOM      2  N   UNL     1       8.654   8.596  18.713  0.00  0.00    +0.000 N 
ATOM      3  C   UNL     1       7.952   7.586  18.112  0.00  0.00    +0.000 C 
ATOM      4  O   UNL     1       7.267   7.767  17.080  0.00  0.00    +0.000 OA
ATOM      5  H   UNL     1       9.356   8.294  19.379  0.00  0.00    +0.000 HD
BRANCH   2   6
ATOM      6  C   UNL     1       8.594  10.012  18.310  0.00  0.00    +0.000 C 
BRANCH   6  12
ATOM      7  C   UNL     1      10.013  11.238  20.065  0.00  0.00    +0.000 A 
ATOM      8  C   UNL     1      11.074  12.099  20.403  0.00  0.00    +0.000 A 
ATOM      9  C   UNL     1      11.949  12.578  19.430  0.00  0.00    +0.000 A 
ATOM     10  C   UNL     1      11.777  12.189  18.115  0.00  0.00    +0.000 A 
ATOM     11  C   UNL     1      10.722  11.343  17.772  0.00  0.00    +0.000 A 
ATOM     12  C   UNL     1       9.782  10.880  18.714  0.00  0.00    +0.000 A 
BRANCH   7  14
ATOM     13  C   UNL     1       8.641  11.692  21.950  0.00  0.00    +0.000 C 
ATOM     14  O   UNL     1       9.147  10.738  21.011  0.00  0.00    +0.000 OA
ENDBRANCH   7  14
ENDBRANCH   6  12
ENDBRANCH   2   6
ENDBRANCH   1   3
BRANCH   1  15
ATOM     15  C   UNL     1       6.611   5.429  19.169  0.00  0.00    +0.000 C 
BRANCH  15  16
ATOM     16  C   UNL     1       5.599   4.560  18.261  0.00  0.00    +0.000 C 
BRANCH  16  17
ATOM     17  N   UNL     1       4.150   4.808  18.122  0.00  0.00    +0.000 N 
ATOM     18  C   UNL     1       3.424   3.627  18.205  0.00  0.00    +0.000 C 
ATOM     19  O   UNL     1       3.638   2.673  17.472  0.00  0.00    +0.000 OA
ATOM     20  C   UNL     1       2.425   3.596  19.350  0.00  0.00    +0.000 C 
ATOM     21  O   UNL     1       2.741   4.494  20.416  0.00  0.00    +0.000 OA
ATOM     22  C   UNL     1       2.797   5.761  19.885  0.00  0.00    +0.000 A 
ATOM     23  C   UNL     1       2.003   6.730  20.491  0.00  0.00    +0.000 A 
ATOM     24  C   UNL     1       1.734   7.906  19.810  0.00  0.00    +0.000 A 
ATOM     25  C   UNL     1       2.259   8.126  18.527  0.00  0.00    +0.000 A 
ATOM     26  C   UNL     1       1.715   9.332  17.779  0.00  0.00    +0.000 C 
ATOM     27  C   UNL     1       3.180   7.167  17.979  0.00  0.00    +0.000 A 
ATOM     28  C   UNL     1       3.499   5.973  18.693  0.00  0.00    +0.000 A 
ENDBRANCH  16  17
ENDBRANCH  15  16
ENDBRANCH   1  15
TORSDOF 7
ENDMDL
MODEL 2
REMARK VINA RESULT:      -8.0      1.367      1.652
REMARK  Name = 
REMARK  9 active torsions:
REMARK  status: ('A' for Active; 'I' for Inactive)
REMARK    1  A    between atoms: C_1  and  O_2
REMARK    2  A    between atoms: O_2  and  C_3
REMARK    3  A    between atoms: C_8  and  C_9
REMARK    4  A    between atoms: C_9  and  N_10
REMARK    5  A    between atoms: C_11  and  C_13
REMARK    6  A    between atoms: C_13  and  C_14
REMARK    7  A    between atoms: C_14  and  C_15
REMARK    8  A    between atoms: C_15  and  N_16
REMARK    9  A    between atoms: C_24  and  C_25
REMARK                            x       y       z     vdW  Elec       q    Type
REMARK                         _______ _______ _______ _____ _____    ______ ____
ROOT
ATOM      1  C   UNL     1       7.745   6.065  18.388  0.00  0.00    +0.000 C 
ENDROOT
BRANCH   1   3
ATOM      2  N   UNL     1       8.306   8.472  18.141  0.00  0.00    +0.000 N 
ATOM      3  C   UNL     1       7.579   7.420  17.653  0.00  0.00    +0.000 C 
ATOM      4  O   UNL     1       6.726   7.557  16.747  0.00  0.00    +0.000 OA
ATOM      5  H   UNL     1       9.123   8.215  18.683  0.00  0.00    +0.000 HD
BRANCH   2   6
ATOM      6  C   UNL     1       8.098   9.881  17.763  0.00  0.00    +0.000 C 
BRANCH   6  12
ATOM      7  C   UNL     1       8.978  12.272  18.084  0.00  0.00    +0.000 A 
ATOM      8  C   UNL     1       9.861  13.184  18.692  0.00  0.00    +0.000 A 
ATOM      9  C   UNL     1      10.728  12.779  19.706  0.00  0.00    +0.000 A 
ATOM     10  C   UNL     1      10.707  11.464  20.128  0.00  0.00    +0.000 A 
ATOM     11  C   UNL     1       9.840  10.553  19.523  0.00  0.00    +0.000 A 
ATOM     12  C   UNL     1       8.988  10.906  18.458  0.00  0.00    +0.000 A 
BRANCH   7  14
ATOM     13  C   UNL     1       7.136  13.640  17.468  0.00  0.00    +0.000 C 
ATOM     14  O   UNL     1       8.101  12.652  17.093  0.00  0.00    +0.000 OA
ENDBRANCH   7  14
ENDBRANCH   6  12
ENDBRANCH   2   6
ENDBRANCH   1   3
BRANCH   1  15
ATOM     15  C   UNL     1       6.585   5.307  19.108  0.00  0.00    +0.000 C 
BRANCH  15  16
ATOM     16  C   UNL     1       5.465   4.257  18.610  0.00  0.00    +0.000 C 
BRANCH  16  17
ATOM     17  N   UNL     1       4.040   4.572  18.383  0.00  0.00    +0.000 N 
ATOM     18  C   UNL     1       3.251   3.433  18.464  0.00  0.00    +0.000 C 
ATOM     19  O   UNL     1       3.454   2.444  17.775  0.00  0.00    +0.000 OA
ATOM     20  C   UNL     1       2.192   3.491  19.553  0.00  0.00    +0.000 C 
ATOM     21  O   UNL     1       2.496   4.409  20.606  0.00  0.00    +0.000 OA
ATOM     22  C   UNL     1       2.646   5.652  20.038  0.00  0.00    +0.000 A 
ATOM     23  C   UNL     1       1.873   6.680  20.568  0.00  0.00    +0.000 A 
ATOM     24  C   UNL     1       1.702   7.844  19.836  0.00  0.00    +0.000 A 
ATOM     25  C   UNL     1       2.305   7.993  18.578  0.00  0.00    +0.000 A 
ATOM     26  C   UNL     1       1.866   9.198  17.763  0.00  0.00    +0.000 C 
ATOM     27  C   UNL     1       3.203   6.970  18.113  0.00  0.00    +0.000 A 
ATOM     28  C   UNL     1       3.421   5.787  18.880  0.00  0.00    +0.000 A 
ENDBRANCH  16  17
ENDBRANCH  15  16
ENDBRANCH   1  15
TORSDOF 7
ENDMDL
MODEL 3
REMARK VINA RESULT:      -7.9      4.940      8.316
REMARK  Name = 
REMARK  9 active torsions:
REMARK  status: ('A' for Active; 'I' for Inactive)
REMARK    1  A    between atoms: C_1  and  O_2
REMARK    2  A    between atoms: O_2  and  C_3
REMARK    3  A    between atoms: C_8  and  C_9
REMARK    4  A    between atoms: C_9  and  N_10
REMARK    5  A    between atoms: C_11  and  C_13
REMARK    6  A    between atoms: C_13  and  C_14
REMARK    7  A    between atoms: C_14  and  C_15
REMARK    8  A    between atoms: C_15  and  N_16
REMARK    9  A    between atoms: C_24  and  C_25
REMARK                            x       y       z     vdW  Elec       q    Type
REMARK                         _______ _______ _______ _____ _____    ______ ____
ROOT
ATOM      1  C   UNL     1       2.173   7.572  18.557  0.00  0.00    +0.000 C 
ENDROOT
BRANCH   1   3
ATOM      2  N   UNL     1       0.882   9.585  19.229  0.00  0.00    +0.000 N 
ATOM      3  C   UNL     1       1.791   9.060  18.350  0.00  0.00    +0.000 C 
ATOM      4  O   UNL     1       2.205   9.696  17.354  0.00  0.00    +0.000 OA
ATOM      5  H   UNL     1       0.807   9.095  20.113  0.00  0.00    +0.000 HD
BRANCH   2   6
ATOM      6  C   UNL     1       0.195  10.877  19.053  0.00  0.00    +0.000 C 
BRANCH   6  12
ATOM      7  C   UNL     1      -2.219  11.729  18.858  0.00  0.00    +0.000 A 
ATOM      8  C   UNL     1      -3.525  11.610  18.347  0.00  0.00    +0.000 A 
ATOM      9  C   UNL     1      -3.843  10.636  17.403  0.00  0.00    +0.000 A 
ATOM     10  C   UNL     1      -2.854   9.782  16.953  0.00  0.00    +0.000 A 
ATOM     11  C   UNL     1      -1.559   9.888  17.462  0.00  0.00    +0.000 A 
ATOM     12  C   UNL     1      -1.208  10.821  18.458  0.00  0.00    +0.000 A 
BRANCH   7  14
ATOM     13  C   UNL     1      -2.543  12.606  21.041  0.00  0.00    +0.000 C 
ATOM     14  O   UNL     1      -1.877  12.694  19.777  0.00  0.00    +0.000 OA
ENDBRANCH   7  14
ENDBRANCH   6  12
ENDBRANCH   2   6
ENDBRANCH   1   3
BRANCH   1  15
ATOM     15  C   UNL     1       2.098   6.828  19.927  0.00  0.00    +0.000 C 
BRANCH  15  16
ATOM     16  C   UNL     1       2.043   5.270  20.345  0.00  0.00    +0.000 C 
BRANCH  16  17
ATOM     17  N   UNL     1       2.914   4.208  19.801  0.00  0.00    +0.000 N 
ATOM     18  C   UNL     1       2.252   2.989  19.745  0.00  0.00    +0.000 C 
ATOM     19  O   UNL     1       1.734   2.479  20.728  0.00  0.00    +0.000 OA
ATOM     20  C   UNL     1       2.141   2.410  18.345  0.00  0.00    +0.000 C 
ATOM     21  O   UNL     1       2.242   3.387  17.306  0.00  0.00    +0.000 OA
ATOM     22  C   UNL     1       3.454   4.018  17.451  0.00  0.00    +0.000 A 
ATOM     23  C   UNL     1       4.286   4.042  16.336  0.00  0.00    +0.000 A 
ATOM     24  C   UNL     1       5.631   4.330  16.501  0.00  0.00    +0.000 A 
ATOM     25  C   UNL     1       6.153   4.602  17.775  0.00  0.00    +0.000 A 
ATOM     26  C   UNL     1       7.668   4.670  17.877  0.00  0.00    +0.000 C 
ATOM     27  C   UNL     1       5.250   4.698  18.890  0.00  0.00    +0.000 A 
ATOM     28  C   UNL     1       3.855   4.448  18.722  0.00  0.00    +0.000 A 
ENDBRANCH  16  17
ENDBRANCH  15  16
ENDBRANCH   1  15
TORSDOF 7
ENDMDL
MODEL 4
REMARK VINA RESULT:      -7.8      1.601      2.416
REMARK  Name = 
REMARK  9 active torsions:
REMARK  status: ('A' for Active; 'I' for Inactive)
REMARK    1  A    between atoms: C_1  and  O_2
REMARK    2  A    between atoms: O_2  and  C_3
REMARK    3  A    between atoms: C_8  and  C_9
REMARK    4  A    between atoms: C_9  and  N_10
REMARK    5  A    between atoms: C_11  and  C_13
REMARK    6  A    between atoms: C_13  and  C_14
REMARK    7  A    between atoms: C_14  and  C_15
REMARK    8  A    between atoms: C_15  and  N_16
REMARK    9  A    between atoms: C_24  and  C_25
REMARK                            x       y       z     vdW  Elec       q    Type
REMARK                         _______ _______ _______ _____ _____    ______ ____
ROOT
ATOM      1  C   UNL     1       7.914   6.478  18.870  0.00  0.00    +0.000 C 
ENDROOT
BRANCH   1   3
ATOM      2  N   UNL     1       8.719   8.825  18.754  0.00  0.00    +0.000 N 
ATOM      3  C   UNL     1       8.150   7.785  18.070  0.00  0.00    +0.000 C 
ATOM      4  O   UNL     1       7.721   7.907  16.900  0.00  0.00    +0.000 OA
ATOM      5  H   UNL     1       9.244   8.561  19.579  0.00  0.00    +0.000 HD
BRANCH   2   6
ATOM      6  C   UNL     1       8.785  10.214  18.265  0.00  0.00    +0.000 C 
BRANCH   6  12
ATOM      7  C   UNL     1      10.009  12.414  18.767  0.00  0.00    +0.000 A 
ATOM      8  C   UNL     1      10.594  13.314  19.678  0.00  0.00    +0.000 A 
ATOM      9  C   UNL     1      10.505  13.104  21.053  0.00  0.00    +0.000 A 
ATOM     10  C   UNL     1       9.819  12.002  21.526  0.00  0.00    +0.000 A 
ATOM     11  C   UNL     1       9.245  11.101  20.628  0.00  0.00    +0.000 A 
ATOM     12  C   UNL     1       9.359  11.244  19.231  0.00  0.00    +0.000 A 
BRANCH   7  14
ATOM     13  C   UNL     1      11.116  13.472  16.951  0.00  0.00    +0.000 C 
ATOM     14  O   UNL     1      10.069  12.609  17.406  0.00  0.00    +0.000 OA
ENDBRANCH   7  14
ENDBRANCH   6  12
ENDBRANCH   2   6
ENDBRANCH   1   3
BRANCH   1  15
ATOM     15  C   UNL     1       7.344   5.162  18.253  0.00  0.00    +0.000 C 
BRANCH  15  16
ATOM     16  C   UNL     1       6.018   4.285  18.535  0.00  0.00    +0.000 C 
BRANCH  16  17
ATOM     17  N   UNL     1       4.642   4.676  18.168  0.00  0.00    +0.000 N 
ATOM     18  C   UNL     1       4.235   4.053  16.995  0.00  0.00    +0.000 C 
ATOM     19  O   UNL     1       4.863   4.146  15.951  0.00  0.00    +0.000 OA
ATOM     20  C   UNL     1       3.010   3.169  17.160  0.00  0.00    +0.000 C 
ATOM     21  O   UNL     1       2.802   2.713  18.498  0.00  0.00    +0.000 OA
ATOM     22  C   UNL     1       2.681   3.824  19.298  0.00  0.00    +0.000 A 
ATOM     23  C   UNL     1       1.542   3.904  20.094  0.00  0.00    +0.000 A 
ATOM     24  C   UNL     1       1.180   5.126  20.637  0.00  0.00    +0.000 A 
ATOM     25  C   UNL     1       1.953   6.272  20.398  0.00  0.00    +0.000 A 
ATOM     26  C   UNL     1       1.345   7.593  20.838  0.00  0.00    +0.000 C 
ATOM     27  C   UNL     1       3.193   6.137  19.681  0.00  0.00    +0.000 A 
ATOM     28  C   UNL     1       3.598   4.873  19.156  0.00  0.00    +0.000 A 
ENDBRANCH  16  17
ENDBRANCH  15  16
ENDBRANCH   1  15
TORSDOF 7
ENDMDL
MODEL 5
REMARK VINA RESULT:      -7.7      5.018      9.216
REMARK  Name = 
REMARK  9 active torsions:
REMARK  status: ('A' for Active; 'I' for Inactive)
REMARK    1  A    between atoms: C_1  and  O_2
REMARK    2  A    between atoms: O_2  and  C_3
REMARK    3  A    between atoms: C_8  and  C_9
REMARK    4  A    between atoms: C_9  and  N_10
REMARK    5  A    between atoms: C_11  and  C_13
REMARK    6  A    between atoms: C_13  and  C_14
REMARK    7  A    between atoms: C_14  and  C_15
REMARK    8  A    between atoms: C_15  and  N_16
REMARK    9  A    between atoms: C_24  and  C_25
REMARK                            x       y       z     vdW  Elec       q    Type
REMARK                         _______ _______ _______ _____ _____    ______ ____
ROOT
ATOM      1  C   UNL     1       1.424   8.547  17.755  0.00  0.00    +0.000 C 
ENDROOT
BRANCH   1   3
ATOM      2  N   UNL     1      -0.224  10.403  17.649  0.00  0.00    +0.000 N 
ATOM      3  C   UNL     1       0.525   9.595  18.461  0.00  0.00    +0.000 C 
ATOM      4  O   UNL     1       0.590   9.764  19.700  0.00  0.00    +0.000 OA
ATOM      5  H   UNL     1      -0.400  10.035  16.721  0.00  0.00    +0.000 HD
BRANCH   2   6
ATOM      6  C   UNL     1      -0.930  11.617  18.096  0.00  0.00    +0.000 C 
BRANCH   6  12
ATOM      7  C   UNL     1      -3.137  11.138  16.876  0.00  0.00    +0.000 A 
ATOM      8  C   UNL     1      -4.543  11.176  16.821  0.00  0.00    +0.000 A 
ATOM      9  C   UNL     1      -5.295  11.592  17.919  0.00  0.00    +0.000 A 
ATOM     10  C   UNL     1      -4.646  11.959  19.082  0.00  0.00    +0.000 A 
ATOM     11  C   UNL     1      -3.253  11.934  19.140  0.00  0.00    +0.000 A 
ATOM     12  C   UNL     1      -2.453  11.573  18.037  0.00  0.00    +0.000 A 
BRANCH   7  14
ATOM     13  C   UNL     1      -3.108  10.260  14.669  0.00  0.00    +0.000 C 
ATOM     14  O   UNL     1      -2.375  10.714  15.811  0.00  0.00    +0.000 OA
ENDBRANCH   7  14
ENDBRANCH   6  12
ENDBRANCH   2   6
ENDBRANCH   1   3
BRANCH   1  15
ATOM     15  C   UNL     1       2.919   8.284  18.119  0.00  0.00    +0.000 C 
BRANCH  15  16
ATOM     16  C   UNL     1       4.104   7.443  17.416  0.00  0.00    +0.000 C 
BRANCH  16  17
ATOM     17  N   UNL     1       4.048   6.006  17.081  0.00  0.00    +0.000 N 
ATOM     18  C   UNL     1       5.122   5.629  16.286  0.00  0.00    +0.000 C 
ATOM     19  O   UNL     1       5.375   6.176  15.223  0.00  0.00    +0.000 OA
ATOM     20  C   UNL     1       6.004   4.559  16.908  0.00  0.00    +0.000 C 
ATOM     21  O   UNL     1       5.919   4.496  18.333  0.00  0.00    +0.000 OA
ATOM     22  C   UNL     1       4.604   4.258  18.657  0.00  0.00    +0.000 A 
ATOM     23  C   UNL     1       4.349   3.167  19.482  0.00  0.00    +0.000 A 
ATOM     24  C   UNL     1       3.061   2.660  19.555  0.00  0.00    +0.000 A 
ATOM     25  C   UNL     1       2.021   3.242  18.813  0.00  0.00    +0.000 A 
ATOM     26  C   UNL     1       0.711   2.472  18.781  0.00  0.00    +0.000 C 
ATOM     27  C   UNL     1       2.285   4.445  18.072  0.00  0.00    +0.000 A 
ATOM     28  C   UNL     1       3.598   5.001  18.027  0.00  0.00    +0.000 A 
ENDBRANCH  16  17
ENDBRANCH  15  16
ENDBRANCH   1  15
TORSDOF 7
ENDMDL
MODEL 6
REMARK VINA RESULT:      -7.7      5.112      8.507
REMARK  Name = 
REMARK  9 active torsions:
REMARK  status: ('A' for Active; 'I' for Inactive)
REMARK    1  A    between atoms: C_1  and  O_2
REMARK    2  A    between atoms: O_2  and  C_3
REMARK    3  A    between atoms: C_8  and  C_9
REMARK    4  A    between atoms: C_9  and  N_10
REMARK    5  A    between atoms: C_11  and  C_13
REMARK    6  A    between atoms: C_13  and  C_14
REMARK    7  A    between atoms: C_14  and  C_15
REMARK    8  A    between atoms: C_15  and  N_16
REMARK    9  A    between atoms: C_24  and  C_25
REMARK                            x       y       z     vdW  Elec       q    Type
REMARK                         _______ _______ _______ _____ _____    ______ ____
ROOT
ATOM      1  C   UNL     1       1.440   8.064  21.096  0.00  0.00    +0.000 C 
ENDROOT
BRANCH   1   3
ATOM      2  N   UNL     1       0.759   9.591  19.258  0.00  0.00    +0.000 N 
ATOM      3  C   UNL     1       0.565   9.229  20.565  0.00  0.00    +0.000 C 
ATOM      4  O   UNL     1      -0.180   9.874  21.336  0.00  0.00    +0.000 OA
ATOM      5  H   UNL     1       1.173   8.876  18.671  0.00  0.00    +0.000 HD
BRANCH   2   6
ATOM      6  C   UNL     1       0.232  10.822  18.643  0.00  0.00    +0.000 C 
BRANCH   6  12
ATOM      7  C   UNL     1      -2.189  11.667  18.785  0.00  0.00    +0.000 A 
ATOM      8  C   UNL     1      -3.546  11.569  18.427  0.00  0.00    +0.000 A 
ATOM      9  C   UNL     1      -3.974  10.648  17.472  0.00  0.00    +0.000 A 
ATOM     10  C   UNL     1      -3.045   9.829  16.860  0.00  0.00    +0.000 A 
ATOM     11  C   UNL     1      -1.699   9.914  17.217  0.00  0.00    +0.000 A 
ATOM     12  C   UNL     1      -1.232  10.790  18.216  0.00  0.00    +0.000 A 
BRANCH   7  14
ATOM     13  C   UNL     1      -2.446  12.593  20.957  0.00  0.00    +0.000 C 
ATOM     14  O   UNL     1      -1.740  12.580  19.712  0.00  0.00    +0.000 OA
ENDBRANCH   7  14
ENDBRANCH   6  12
ENDBRANCH   2   6
ENDBRANCH   1   3
BRANCH   1  15
ATOM     15  C   UNL     1       1.792   6.784  20.274  0.00  0.00    +0.000 C 
BRANCH  15  16
ATOM     16  C   UNL     1       1.756   5.205  20.605  0.00  0.00    +0.000 C 
BRANCH  16  17
ATOM     17  N   UNL     1       2.666   4.192  20.033  0.00  0.00    +0.000 N 
ATOM     18  C   UNL     1       2.051   2.949  19.948  0.00  0.00    +0.000 C 
ATOM     19  O   UNL     1       1.556   2.396  20.919  0.00  0.00    +0.000 OA
ATOM     20  C   UNL     1       1.959   2.401  18.535  0.00  0.00    +0.000 C 
ATOM     21  O   UNL     1       2.020   3.406  17.520  0.00  0.00    +0.000 OA
ATOM     22  C   UNL     1       3.207   4.080  17.679  0.00  0.00    +0.000 A 
ATOM     23  C   UNL     1       4.035   4.164  16.563  0.00  0.00    +0.000 A 
ATOM     24  C   UNL     1       5.369   4.499  16.734  0.00  0.00    +0.000 A 
ATOM     25  C   UNL     1       5.883   4.760  18.013  0.00  0.00    +0.000 A 
ATOM     26  C   UNL     1       7.394   4.884  18.115  0.00  0.00    +0.000 C 
ATOM     27  C   UNL     1       4.979   4.794  19.132  0.00  0.00    +0.000 A 
ATOM     28  C   UNL     1       3.594   4.494  18.959  0.00  0.00    +0.000 A 
ENDBRANCH  16  17
ENDBRANCH  15  16
ENDBRANCH   1  15
TORSDOF 7
ENDMDL
MODEL 7
REMARK VINA RESULT:      -7.6      4.238      7.509
REMARK  Name = 
REMARK  9 active torsions:
REMARK  status: ('A' for Active; 'I' for Inactive)
REMARK    1  A    between atoms: C_1  and  O_2
REMARK    2  A    between atoms: O_2  and  C_3
REMARK    3  A    between atoms: C_8  and  C_9
REMARK    4  A    between atoms: C_9  and  N_10
REMARK    5  A    between atoms: C_11  and  C_13
REMARK    6  A    between atoms: C_13  and  C_14
REMARK    7  A    between atoms: C_14  and  C_15
REMARK    8  A    between atoms: C_15  and  N_16
REMARK    9  A    between atoms: C_24  and  C_25
REMARK                            x       y       z     vdW  Elec       q    Type
REMARK                         _______ _______ _______ _____ _____    ______ ____
ROOT
ATOM      1  C   UNL     1       2.130   7.494  19.500  0.00  0.00    +0.000 C 
ENDROOT
BRANCH   1   3
ATOM      2  N   UNL     1       3.423   5.392  19.783  0.00  0.00    +0.000 N 
ATOM      3  C   UNL     1       2.469   6.048  19.053  0.00  0.00    +0.000 C 
ATOM      4  O   UNL     1       1.980   5.570  18.005  0.00  0.00    +0.000 OA
ATOM      5  H   UNL     1       3.564   5.746  20.723  0.00  0.00    +0.000 HD
BRANCH   2   6
ATOM      6  C   UNL     1       4.072   4.133  19.375  0.00  0.00    +0.000 C 
BRANCH   6  12
ATOM      7  C   UNL     1       6.334   4.817  18.371  0.00  0.00    +0.000 A 
ATOM      8  C   UNL     1       7.196   4.956  17.267  0.00  0.00    +0.000 A 
ATOM      9  C   UNL     1       6.837   4.473  16.010  0.00  0.00    +0.000 A 
ATOM     10  C   UNL     1       5.622   3.836  15.852  0.00  0.00    +0.000 A 
ATOM     11  C   UNL     1       4.759   3.703  16.940  0.00  0.00    +0.000 A 
ATOM     12  C   UNL     1       5.056   4.226  18.214  0.00  0.00    +0.000 A 
BRANCH   7  14
ATOM     13  C   UNL     1       8.031   5.695  19.782  0.00  0.00    +0.000 C 
ATOM     14  O   UNL     1       6.673   5.271  19.626  0.00  0.00    +0.000 OA
ENDBRANCH   7  14
ENDBRANCH   6  12
ENDBRANCH   2   6
ENDBRANCH   1   3
BRANCH   1  15
ATOM     15  C   UNL     1       1.652   7.880  20.935  0.00  0.00    +0.000 C 
BRANCH  15  16
ATOM     16  C   UNL     1       1.189   9.268  21.617  0.00  0.00    +0.000 C 
BRANCH  16  17
ATOM     17  N   UNL     1      -0.078   9.975  21.341  0.00  0.00    +0.000 N 
ATOM     18  C   UNL     1      -0.506  10.698  22.446  0.00  0.00    +0.000 C 
ATOM     19  O   UNL     1      -0.683  10.180  23.539  0.00  0.00    +0.000 OA
ATOM     20  C   UNL     1      -0.629  12.191  22.197  0.00  0.00    +0.000 C 
ATOM     21  O   UNL     1       0.174  12.665  21.114  0.00  0.00    +0.000 OA
ATOM     22  C   UNL     1      -0.207  11.975  19.987  0.00  0.00    +0.000 A 
ATOM     23  C   UNL     1      -0.572  12.734  18.880  0.00  0.00    +0.000 A 
ATOM     24  C   UNL     1      -1.294  12.138  17.858  0.00  0.00    +0.000 A 
ATOM     25  C   UNL     1      -1.649  10.783  17.930  0.00  0.00    +0.000 A 
ATOM     26  C   UNL     1      -2.634  10.293  16.882  0.00  0.00    +0.000 C 
ATOM     27  C   UNL     1      -1.149   9.990  19.022  0.00  0.00    +0.000 A 
ATOM     28  C   UNL     1      -0.366  10.585  20.055  0.00  0.00    +0.000 A 
ENDBRANCH  16  17
ENDBRANCH  15  16
ENDBRANCH   1  15
TORSDOF 7
ENDMDL
MODEL 8
REMARK VINA RESULT:      -7.6      2.533      9.227
REMARK  Name = 
REMARK  9 active torsions:
REMARK  status: ('A' for Active; 'I' for Inactive)
REMARK    1  A    between atoms: C_1  and  O_2
REMARK    2  A    between atoms: O_2  and  C_3
REMARK    3  A    between atoms: C_8  and  C_9
REMARK    4  A    between atoms: C_9  and  N_10
REMARK    5  A    between atoms: C_11  and  C_13
REMARK    6  A    between atoms: C_13  and  C_14
REMARK    7  A    between atoms: C_14  and  C_15
REMARK    8  A    between atoms: C_15  and  N_16
REMARK    9  A    between atoms: C_24  and  C_25
REMARK                            x       y       z     vdW  Elec       q    Type
REMARK                         _______ _______ _______ _____ _____    ______ ____
ROOT
ATOM      1  C   UNL     1       8.545   8.595  18.592  0.00  0.00    +0.000 C 
ENDROOT
BRANCH   1   3
ATOM      2  N   UNL     1       7.784   6.231  18.644  0.00  0.00    +0.000 N 
ATOM      3  C   UNL     1       7.816   7.398  17.929  0.00  0.00    +0.000 C 
ATOM      4  O   UNL     1       7.397   7.476  16.752  0.00  0.00    +0.000 OA
ATOM      5  H   UNL     1       7.914   6.336  19.644  0.00  0.00    +0.000 HD
BRANCH   2   6
ATOM      6  C   UNL     1       7.381   4.924  18.096  0.00  0.00    +0.000 C 
BRANCH   6  12
ATOM      7  C   UNL     1       5.251   4.100  16.924  0.00  0.00    +0.000 A 
ATOM      8  C   UNL     1       3.856   3.909  16.902  0.00  0.00    +0.000 A 
ATOM      9  C   UNL     1       3.075   4.190  18.022  0.00  0.00    +0.000 A 
ATOM     10  C   UNL     1       3.684   4.649  19.174  0.00  0.00    +0.000 A 
ATOM     11  C   UNL     1       5.065   4.850  19.198  0.00  0.00    +0.000 A 
ATOM     12  C   UNL     1       5.884   4.633  18.073  0.00  0.00    +0.000 A 
BRANCH   7  14
ATOM     13  C   UNL     1       5.644   4.419  14.603  0.00  0.00    +0.000 C 
ATOM     14  O   UNL     1       6.045   3.814  15.836  0.00  0.00    +0.000 OA
ENDBRANCH   7  14
ENDBRANCH   6  12
ENDBRANCH   2   6
ENDBRANCH   1   3
BRANCH   1  15
ATOM     15  C   UNL     1       8.494  10.061  18.057  0.00  0.00    +0.000 C 
BRANCH  15  16
ATOM     16  C   UNL     1       9.386  11.378  18.332  0.00  0.00    +0.000 C 
BRANCH  16  17
ATOM     17  N   UNL     1      10.083  11.688  19.597  0.00  0.00    +0.000 N 
ATOM     18  C   UNL     1      11.395  12.082  19.368  0.00  0.00    +0.000 C 
ATOM     19  O   UNL     1      12.189  11.389  18.748  0.00  0.00    +0.000 OA
ATOM     20  C   UNL     1      11.713  13.483  19.861  0.00  0.00    +0.000 C 
ATOM     21  O   UNL     1      10.566  14.327  19.984  0.00  0.00    +0.000 OA
ATOM     22  C   UNL     1       9.697  13.716  20.856  0.00  0.00    +0.000 A 
ATOM     23  C   UNL     1       9.264  14.469  21.943  0.00  0.00    +0.000 A 
ATOM     24  C   UNL     1       8.694  13.826  23.029  0.00  0.00    +0.000 A 
ATOM     25  C   UNL     1       8.544  12.430  23.036  0.00  0.00    +0.000 A 
ATOM     26  C   UNL     1       8.129  11.809  24.359  0.00  0.00    +0.000 C 
ATOM     27  C   UNL     1       8.879  11.690  21.849  0.00  0.00    +0.000 A 
ATOM     28  C   UNL     1       9.425  12.350  20.708  0.00  0.00    +0.000 A 
ENDBRANCH  16  17
ENDBRANCH  15  16
ENDBRANCH   1  15
TORSDOF 7
ENDMDL
MODEL 9
REMARK VINA RESULT:      -7.5      1.560      1.896
REMARK  Name = 
REMARK  9 active torsions:
REMARK  status: ('A' for Active; 'I' for Inactive)
REMARK    1  A    between atoms: C_1  and  O_2
REMARK    2  A    between atoms: O_2  and  C_3
REMARK    3  A    between atoms: C_8  and  C_9
REMARK    4  A    between atoms: C_9  and  N_10
REMARK    5  A    between atoms: C_11  and  C_13
REMARK    6  A    between atoms: C_13  and  C_14
REMARK    7  A    between atoms: C_14  and  C_15
REMARK    8  A    between atoms: C_15  and  N_16
REMARK    9  A    between atoms: C_24  and  C_25
REMARK                            x       y       z     vdW  Elec       q    Type
REMARK                         _______ _______ _______ _____ _____    ______ ____
ROOT
ATOM      1  C   UNL     1       7.523   7.270  16.754  0.00  0.00    +0.000 C 
ENDROOT
BRANCH   1   3
ATOM      2  N   UNL     1       8.243   9.269  18.042  0.00  0.00    +0.000 N 
ATOM      3  C   UNL     1       8.049   7.914  18.063  0.00  0.00    +0.000 C 
ATOM      4  O   UNL     1       8.392   7.202  19.035  0.00  0.00    +0.000 OA
ATOM      5  H   UNL     1       7.716   9.767  17.335  0.00  0.00    +0.000 HD
BRANCH   2   6
ATOM      6  C   UNL     1       8.974  10.026  19.074  0.00  0.00    +0.000 C 
BRANCH   6  12
ATOM      7  C   UNL     1       9.398  12.180  17.743  0.00  0.00    +0.000 A 
ATOM      8  C   UNL     1      10.275  13.158  17.236  0.00  0.00    +0.000 A 
ATOM      9  C   UNL     1      11.626  13.159  17.578  0.00  0.00    +0.000 A 
ATOM     10  C   UNL     1      12.106  12.192  18.440  0.00  0.00    +0.000 A 
ATOM     11  C   UNL     1      11.244  11.214  18.938  0.00  0.00    +0.000 A 
ATOM     12  C   UNL     1       9.885  11.142  18.574  0.00  0.00    +0.000 A 
BRANCH   7  14
ATOM     13  C   UNL     1       7.399  13.438  17.490  0.00  0.00    +0.000 C 
ATOM     14  O   UNL     1       8.057  12.168  17.432  0.00  0.00    +0.000 OA
ENDBRANCH   7  14
ENDBRANCH   6  12
ENDBRANCH   2   6
ENDBRANCH   1   3
BRANCH   1  15
ATOM     15  C   UNL     1       6.275   6.336  16.675  0.00  0.00    +0.000 C 
BRANCH  15  16
ATOM     16  C   UNL     1       5.295   5.692  17.784  0.00  0.00    +0.000 C 
BRANCH  16  17
ATOM     17  N   UNL     1       3.823   5.814  17.797  0.00  0.00    +0.000 N 
ATOM     18  C   UNL     1       3.212   4.568  17.823  0.00  0.00    +0.000 C 
ATOM     19  O   UNL     1       3.436   3.710  16.982  0.00  0.00    +0.000 OA
ATOM     20  C   UNL     1       2.334   4.336  19.041  0.00  0.00    +0.000 C 
ATOM     21  O   UNL     1       2.672   5.157  20.161  0.00  0.00    +0.000 OA
ATOM     22  C   UNL     1       2.569   6.467  19.758  0.00  0.00    +0.000 A 
ATOM     23  C   UNL     1       1.757   7.298  20.525  0.00  0.00    +0.000 A 
ATOM     24  C   UNL     1       1.324   8.501  19.992  0.00  0.00    +0.000 A 
ATOM     25  C   UNL     1       1.704   8.888  18.698  0.00  0.00    +0.000 A 
ATOM     26  C   UNL     1       0.990  10.101  18.125  0.00  0.00    +0.000 C 
ATOM     27  C   UNL     1       2.647   8.074  17.978  0.00  0.00    +0.000 A 
ATOM     28  C   UNL     1       3.133   6.855  18.537  0.00  0.00    +0.000 A 
ENDBRANCH  16  17
ENDBRANCH  15  16
ENDBRANCH   1  15
TORSDOF 7
ENDMDL
