MODEL 1
REMARK VINA RESULT:      -8.3      0.000      0.000
REMARK  Name = 
REMARK  9 active torsions:
REMARK  status: ('A' for Active; 'I' for Inactive)
REMARK    1  A    between atoms: C_1  and  O_2
REMARK    2  A    between atoms: O_2  and  C_3
REMARK    3  A    between atoms: C_6  and  N_7
REMARK    4  A    between atoms: C_8  and  C_10
REMARK    5  A    between atoms: C_10  and  N_11
REMARK    6  A    between atoms: C_14  and  S_15
REMARK    7  A    between atoms: S_15  and  C_16
REMARK    8  A    between atoms: C_29  and  O_30
REMARK    9  A    between atoms: O_30  and  C_31
REMARK                            x       y       z     vdW  Elec       q    Type
REMARK                         _______ _______ _______ _____ _____    ______ ____
ROOT
ATOM      1  N   UNL     1       6.949   5.646  18.497  0.00  0.00    +0.000 N 
ATOM      2  N   UNL     1       5.781   5.747  19.239  0.00  0.00    +0.000 NA
ATOM      3  C   UNL     1       4.924   5.065  18.526  0.00  0.00    +0.000 A 
ATOM      4  C   UNL     1       3.468   4.783  18.728  0.00  0.00    +0.000 A 
ATOM      5  N   UNL     1       2.730   4.103  17.901  0.00  0.00    +0.000 NA
ATOM      6  C   UNL     1       3.372   3.618  16.778  0.00  0.00    +0.000 A 
ATOM      7  C   UNL     1       4.677   3.793  16.511  0.00  0.00    +0.000 A 
ATOM      8  N   UNL     1       5.429   4.511  17.393  0.00  0.00    +0.000 N 
ATOM      9  C   UNL     1       6.749   4.862  17.346  0.00  0.00    +0.000 A 
ATOM     10  O   UNL     1       7.574   4.576  16.495  0.00  0.00    +0.000 OA
ENDROOT
BRANCH   1  11
ATOM     11  C   UNL     1       8.183   6.310  18.826  0.00  0.00    +0.000 C 
BRANCH  11  13
ATOM     12  N   UNL     1       8.892   8.612  19.254  0.00  0.00    +0.000 N 
ATOM     13  C   UNL     1       8.182   7.771  18.403  0.00  0.00    +0.000 C 
ATOM     14  O   UNL     1       7.464   8.140  17.479  0.00  0.00    +0.000 OA
ATOM     15  H   UNL     1       9.231   8.191  20.116  0.00  0.00    +0.000 HD
BRANCH  12  19
ATOM     16  C   UNL     1       9.221  12.813  18.896  0.00  0.00    +0.000 A 
ATOM     17  C   UNL     1       9.062  12.014  17.755  0.00  0.00    +0.000 A 
ATOM     18  C   UNL     1       8.943  10.629  17.855  0.00  0.00    +0.000 A 
ATOM     19  C   UNL     1       9.044  10.003  19.091  0.00  0.00    +0.000 A 
ATOM     20  C   UNL     1       9.317  10.785  20.216  0.00  0.00    +0.000 A 
ATOM     21  C   UNL     1       9.398  12.189  20.140  0.00  0.00    +0.000 A 
BRANCH  16  23
ATOM     22  C   UNL     1       7.938  14.798  18.987  0.00  0.00    +0.000 C 
ATOM     23  O   UNL     1       9.215  14.180  18.799  0.00  0.00    +0.000 OA
ENDBRANCH  16  23
BRANCH  21  24
ATOM     24  O   UNL     1       9.621  12.752  21.369  0.00  0.00    +0.000 OA
ATOM     25  C   UNL     1       8.905  12.274  22.498  0.00  0.00    +0.000 C 
ENDBRANCH  21  24
ENDBRANCH  12  19
ENDBRANCH  11  13
ENDBRANCH   1  11
BRANCH   4  26
ATOM     26  S   UNL     1       2.930   5.514  20.189  0.00  0.00    +0.000 S 
BRANCH  26  27
ATOM     27  C   UNL     1       2.318   7.075  19.585  0.00  0.00    +0.000 A 
ATOM     28  C   UNL     1       2.542   7.414  18.247  0.00  0.00    +0.000 A 
ATOM     29  C   UNL     1       2.073   8.627  17.738  0.00  0.00    +0.000 A 
ATOM     30  C   UNL     1       1.371   9.505  18.561  0.00  0.00    +0.000 A 
ATOM     31  C   UNL     1       1.128   9.167  19.892  0.00  0.00    +0.000 A 
ATOM     32  C   UNL     1       1.596   7.951  20.402  0.00  0.00    +0.000 A 
ENDBRANCH  26  27
ENDBRANCH   4  26
TORSDOF 7
ENDMDL
MODEL 2
REMARK VINA RESULT:      -8.3      0.879      1.326
REMARK  Name = 
REMARK  9 active torsions:
REMARK  status: ('A' for Active; 'I' for Inactive)
REMARK    1  A    between atoms: C_1  and  O_2
REMARK    2  A    between atoms: O_2  and  C_3
REMARK    3  A    between atoms: C_6  and  N_7
REMARK    4  A    between atoms: C_8  and  C_10
REMARK    5  A    between atoms: C_10  and  N_11
REMARK    6  A    between atoms: C_14  and  S_15
REMARK    7  A    between atoms: S_15  and  C_16
REMARK    8  A    between atoms: C_29  and  O_30
REMARK    9  A    between atoms: O_30  and  C_31
REMARK                            x       y       z     vdW  Elec       q    Type
REMARK                         _______ _______ _______ _____ _____    ______ ____
ROOT
ATOM      1  N   UNL     1       6.554   5.422  18.395  0.00  0.00    +0.000 N 
ATOM      2  N   UNL     1       5.449   5.660  19.199  0.00  0.00    +0.000 NA
ATOM      3  C   UNL     1       4.502   4.990  18.597  0.00  0.00    +0.000 A 
ATOM      4  C   UNL     1       3.047   4.827  18.911  0.00  0.00    +0.000 A 
ATOM      5  N   UNL     1       2.212   4.142  18.188  0.00  0.00    +0.000 NA
ATOM      6  C   UNL     1       2.743   3.531  17.069  0.00  0.00    +0.000 A 
ATOM      7  C   UNL     1       4.036   3.593  16.707  0.00  0.00    +0.000 A 
ATOM      8  N   UNL     1       4.891   4.319  17.481  0.00  0.00    +0.000 N 
ATOM      9  C   UNL     1       6.225   4.572  17.324  0.00  0.00    +0.000 A 
ATOM     10  O   UNL     1       6.970   4.166  16.448  0.00  0.00    +0.000 OA
ENDROOT
BRANCH   1  11
ATOM     11  C   UNL     1       7.849   6.019  18.594  0.00  0.00    +0.000 C 
BRANCH  11  13
ATOM     12  N   UNL     1       8.650   8.306  18.930  0.00  0.00    +0.000 N 
ATOM     13  C   UNL     1       7.895   7.464  18.121  0.00  0.00    +0.000 C 
ATOM     14  O   UNL     1       7.176   7.829  17.196  0.00  0.00    +0.000 OA
ATOM     15  H   UNL     1       8.988   7.902  19.801  0.00  0.00    +0.000 HD
BRANCH  12  19
ATOM     16  C   UNL     1       9.229  12.471  18.472  0.00  0.00    +0.000 A 
ATOM     17  C   UNL     1       8.351  11.779  17.626  0.00  0.00    +0.000 A 
ATOM     18  C   UNL     1       8.141  10.408  17.769  0.00  0.00    +0.000 A 
ATOM     19  C   UNL     1       8.851   9.684  18.717  0.00  0.00    +0.000 A 
ATOM     20  C   UNL     1       9.812  10.349  19.484  0.00  0.00    +0.000 A 
ATOM     21  C   UNL     1      10.007  11.740  19.384  0.00  0.00    +0.000 A 
BRANCH  16  23
ATOM     22  C   UNL     1       8.103  14.549  18.524  0.00  0.00    +0.000 C 
ATOM     23  O   UNL     1       9.337  13.835  18.404  0.00  0.00    +0.000 OA
ENDBRANCH  16  23
BRANCH  21  24
ATOM     24  O   UNL     1      10.959  12.184  20.263  0.00  0.00    +0.000 OA
ATOM     25  C   UNL     1      12.333  12.058  19.927  0.00  0.00    +0.000 C 
ENDBRANCH  21  24
ENDBRANCH  12  19
ENDBRANCH  11  13
ENDBRANCH   1  11
BRANCH   4  26
ATOM     26  S   UNL     1       2.659   5.701  20.342  0.00  0.00    +0.000 S 
BRANCH  26  27
ATOM     27  C   UNL     1       2.118   7.255  19.657  0.00  0.00    +0.000 A 
ATOM     28  C   UNL     1       1.425   8.149  20.479  0.00  0.00    +0.000 A 
ATOM     29  C   UNL     1       0.991   9.377  19.977  0.00  0.00    +0.000 A 
ATOM     30  C   UNL     1       1.251   9.722  18.653  0.00  0.00    +0.000 A 
ATOM     31  C   UNL     1       1.956   8.844  17.831  0.00  0.00    +0.000 A 
ATOM     32  C   UNL     1       2.394   7.614  18.333  0.00  0.00    +0.000 A 
ENDBRANCH  26  27
ENDBRANCH   4  26
TORSDOF 7
ENDMDL
MODEL 3
REMARK VINA RESULT:      -8.3      5.164      9.102
REMARK  Name = 
REMARK  9 active torsions:
REMARK  status: ('A' for Active; 'I' for Inactive)
REMARK    1  A    between atoms: C_1  and  O_2
REMARK    2  A    between atoms: O_2  and  C_3
REMARK    3  A    between atoms: C_6  and  N_7
REMARK    4  A    between atoms: C_8  and  C_10
REMARK    5  A    between atoms: C_10  and  N_11
REMARK    6  A    between atoms: C_14  and  S_15
REMARK    7  A    between atoms: S_15  and  C_16
REMARK    8  A    between atoms: C_29  and  O_30
REMARK    9  A    between atoms: O_30  and  C_31
REMARK                            x       y       z     vdW  Elec       q    Type
REMARK                         _______ _______ _______ _____ _____    ______ ____
ROOT
ATOM      1  N   UNL     1       2.145   8.650  18.787  0.00  0.00    +0.000 N 
ATOM      2  N   UNL     1       2.833   7.664  18.097  0.00  0.00    +0.000 NA
ATOM      3  C   UNL     1       2.684   6.615  18.862  0.00  0.00    +0.000 A 
ATOM      4  C   UNL     1       3.189   5.212  18.732  0.00  0.00    +0.000 A 
ATOM      5  N   UNL     1       2.979   4.272  19.605  0.00  0.00    +0.000 NA
ATOM      6  C   UNL     1       2.228   4.630  20.708  0.00  0.00    +0.000 A 
ATOM      7  C   UNL     1       1.708   5.852  20.912  0.00  0.00    +0.000 A 
ATOM      8  N   UNL     1       1.944   6.820  19.982  0.00  0.00    +0.000 N 
ATOM      9  C   UNL     1       1.569   8.135  19.963  0.00  0.00    +0.000 A 
ATOM     10  O   UNL     1       0.897   8.738  20.781  0.00  0.00    +0.000 OA
ENDROOT
BRANCH   1  11
ATOM     11  C   UNL     1       2.084  10.032  18.388  0.00  0.00    +0.000 C 
BRANCH  11  13
ATOM     12  N   UNL     1      -0.243  10.130  17.640  0.00  0.00    +0.000 N 
ATOM     13  C   UNL     1       0.689  10.618  18.549  0.00  0.00    +0.000 C 
ATOM     14  O   UNL     1       0.503  11.554  19.321  0.00  0.00    +0.000 OA
ATOM     15  H   UNL     1       0.125   9.534  16.901  0.00  0.00    +0.000 HD
BRANCH  12  19
ATOM     16  C   UNL     1      -4.274  11.358  17.283  0.00  0.00    +0.000 A 
ATOM     17  C   UNL     1      -3.591  11.508  18.498  0.00  0.00    +0.000 A 
ATOM     18  C   UNL     1      -2.260  11.117  18.631  0.00  0.00    +0.000 A 
ATOM     19  C   UNL     1      -1.598  10.508  17.573  0.00  0.00    +0.000 A 
ATOM     20  C   UNL     1      -2.310  10.252  16.398  0.00  0.00    +0.000 A 
ATOM     21  C   UNL     1      -3.642  10.678  16.230  0.00  0.00    +0.000 A 
BRANCH  16  23
ATOM     22  C   UNL     1      -6.510  11.357  18.052  0.00  0.00    +0.000 C 
ATOM     23  O   UNL     1      -5.541  11.856  17.126  0.00  0.00    +0.000 OA
ENDBRANCH  16  23
BRANCH  21  24
ATOM     24  O   UNL     1      -4.122  10.367  14.986  0.00  0.00    +0.000 OA
ATOM     25  C   UNL     1      -3.214  10.004  13.956  0.00  0.00    +0.000 C 
ENDBRANCH  21  24
ENDBRANCH  12  19
ENDBRANCH  11  13
ENDBRANCH   1  11
BRANCH   4  26
ATOM     26  S   UNL     1       4.099   5.052  17.280  0.00  0.00    +0.000 S 
BRANCH  26  27
ATOM     27  C   UNL     1       5.665   5.739  17.783  0.00  0.00    +0.000 A 
ATOM     28  C   UNL     1       6.162   6.855  17.102  0.00  0.00    +0.000 A 
ATOM     29  C   UNL     1       7.383   7.421  17.471  0.00  0.00    +0.000 A 
ATOM     30  C   UNL     1       8.113   6.881  18.528  0.00  0.00    +0.000 A 
ATOM     31  C   UNL     1       7.617   5.779  19.223  0.00  0.00    +0.000 A 
ATOM     32  C   UNL     1       6.392   5.212  18.856  0.00  0.00    +0.000 A 
ENDBRANCH  26  27
ENDBRANCH   4  26
TORSDOF 7
ENDMDL
MODEL 4
REMARK VINA RESULT:      -7.9      5.107      8.796
REMARK  Name = 
REMARK  9 active torsions:
REMARK  status: ('A' for Active; 'I' for Inactive)
REMARK    1  A    between atoms: C_1  and  O_2
REMARK    2  A    between atoms: O_2  and  C_3
REMARK    3  A    between atoms: C_6  and  N_7
REMARK    4  A    between atoms: C_8  and  C_10
REMARK    5  A    between atoms: C_10  and  N_11
REMARK    6  A    between atoms: C_14  and  S_15
REMARK    7  A    between atoms: S_15  and  C_16
REMARK    8  A    between atoms: C_29  and  O_30
REMARK    9  A    between atoms: O_30  and  C_31
REMARK                            x       y       z     vdW  Elec       q    Type
REMARK                         _______ _______ _______ _____ _____    ______ ____
ROOT
ATOM      1  N   UNL     1       2.090   8.076  19.260  0.00  0.00    +0.000 N 
ATOM      2  N   UNL     1       2.828   7.280  18.397  0.00  0.00    +0.000 NA
ATOM      3  C   UNL     1       2.807   6.114  18.988  0.00  0.00    +0.000 A 
ATOM      4  C   UNL     1       3.426   4.802  18.616  0.00  0.00    +0.000 A 
ATOM      5  N   UNL     1       3.341   3.722  19.333  0.00  0.00    +0.000 NA
ATOM      6  C   UNL     1       2.615   3.829  20.503  0.00  0.00    +0.000 A 
ATOM      7  C   UNL     1       2.001   4.949  20.919  0.00  0.00    +0.000 A 
ATOM      8  N   UNL     1       2.106   6.070  20.151  0.00  0.00    +0.000 N 
ATOM      9  C   UNL     1       1.618   7.330  20.356  0.00  0.00    +0.000 A 
ATOM     10  O   UNL     1       0.936   7.731  21.283  0.00  0.00    +0.000 OA
ENDROOT
BRANCH   1  11
ATOM     11  C   UNL     1       1.890   9.492  19.092  0.00  0.00    +0.000 C 
BRANCH  11  13
ATOM     12  N   UNL     1      -0.188  10.046  17.926  0.00  0.00    +0.000 N 
ATOM     13  C   UNL     1       0.421   9.879  19.166  0.00  0.00    +0.000 C 
ATOM     14  O   UNL     1      -0.083  10.167  20.247  0.00  0.00    +0.000 OA
ATOM     15  H   UNL     1       0.429  10.008  17.118  0.00  0.00    +0.000 HD
BRANCH  12  19
ATOM     16  C   UNL     1      -4.265  11.077  17.472  0.00  0.00    +0.000 A 
ATOM     17  C   UNL     1      -3.634  10.246  16.535  0.00  0.00    +0.000 A 
ATOM     18  C   UNL     1      -2.294   9.889  16.674  0.00  0.00    +0.000 A 
ATOM     19  C   UNL     1      -1.535  10.404  17.716  0.00  0.00    +0.000 A 
ATOM     20  C   UNL     1      -2.128  11.322  18.586  0.00  0.00    +0.000 A 
ATOM     21  C   UNL     1      -3.492  11.662  18.487  0.00  0.00    +0.000 A 
BRANCH  16  23
ATOM     22  C   UNL     1      -6.400  10.719  18.424  0.00  0.00    +0.000 C 
ATOM     23  O   UNL     1      -5.611  11.323  17.395  0.00  0.00    +0.000 OA
ENDBRANCH  16  23
BRANCH  21  24
ATOM     24  O   UNL     1      -3.870  12.538  19.470  0.00  0.00    +0.000 OA
ATOM     25  C   UNL     1      -2.960  12.853  20.513  0.00  0.00    +0.000 C 
ENDBRANCH  21  24
ENDBRANCH  12  19
ENDBRANCH  11  13
ENDBRANCH   1  11
BRANCH   4  26
ATOM     26  S   UNL     1       4.276   4.960  17.128  0.00  0.00    +0.000 S 
BRANCH  26  27
ATOM     27  C   UNL     1       5.784   5.734  17.678  0.00  0.00    +0.000 A 
ATOM     28  C   UNL     1       6.213   6.903  17.041  0.00  0.00    +0.000 A 
ATOM     29  C   UNL     1       7.387   7.539  17.449  0.00  0.00    +0.000 A 
ATOM     30  C   UNL     1       8.137   7.014  18.499  0.00  0.00    +0.000 A 
ATOM     31  C   UNL     1       7.708   5.858  19.150  0.00  0.00    +0.000 A 
ATOM     32  C   UNL     1       6.531   5.222  18.744  0.00  0.00    +0.000 A 
ENDBRANCH  26  27
ENDBRANCH   4  26
TORSDOF 7
ENDMDL
MODEL 5
REMARK VINA RESULT:      -7.9      4.869      8.781
REMARK  Name = 
REMARK  9 active torsions:
REMARK  status: ('A' for Active; 'I' for Inactive)
REMARK    1  A    between atoms: C_1  and  O_2
REMARK    2  A    between atoms: O_2  and  C_3
REMARK    3  A    between atoms: C_6  and  N_7
REMARK    4  A    between atoms: C_8  and  C_10
REMARK    5  A    between atoms: C_10  and  N_11
REMARK    6  A    between atoms: C_14  and  S_15
REMARK    7  A    between atoms: S_15  and  C_16
REMARK    8  A    between atoms: C_29  and  O_30
REMARK    9  A    between atoms: O_30  and  C_31
REMARK                            x       y       z     vdW  Elec       q    Type
REMARK                         _______ _______ _______ _____ _____    ______ ____
ROOT
ATOM      1  N   UNL     1       2.275   7.803  19.321  0.00  0.00    +0.000 N 
ATOM      2  N   UNL     1       3.007   7.011  18.448  0.00  0.00    +0.000 NA
ATOM      3  C   UNL     1       2.942   5.830  19.002  0.00  0.00    +0.000 A 
ATOM      4  C   UNL     1       3.531   4.512  18.602  0.00  0.00    +0.000 A 
ATOM      5  N   UNL     1       3.402   3.413  19.284  0.00  0.00    +0.000 NA
ATOM      6  C   UNL     1       2.657   3.506  20.444  0.00  0.00    +0.000 A 
ATOM      7  C   UNL     1       2.067   4.631  20.882  0.00  0.00    +0.000 A 
ATOM      8  N   UNL     1       2.219   5.771  20.150  0.00  0.00    +0.000 N 
ATOM      9  C   UNL     1       1.762   7.038  20.385  0.00  0.00    +0.000 A 
ATOM     10  O   UNL     1       1.074   7.430  21.311  0.00  0.00    +0.000 OA
ENDROOT
BRANCH   1  11
ATOM     11  C   UNL     1       2.119   9.228  19.193  0.00  0.00    +0.000 C 
BRANCH  11  13
ATOM     12  N   UNL     1      -0.150  10.140  19.156  0.00  0.00    +0.000 N 
ATOM     13  C   UNL     1       0.880   9.602  18.393  0.00  0.00    +0.000 C 
ATOM     14  O   UNL     1       0.794   9.280  17.212  0.00  0.00    +0.000 OA
ATOM     15  H   UNL     1      -0.016  10.119  20.165  0.00  0.00    +0.000 HD
BRANCH  12  19
ATOM     16  C   UNL     1      -3.823  11.438  17.508  0.00  0.00    +0.000 A 
ATOM     17  C   UNL     1      -3.351  11.986  18.709  0.00  0.00    +0.000 A 
ATOM     18  C   UNL     1      -2.138  11.577  19.261  0.00  0.00    +0.000 A 
ATOM     19  C   UNL     1      -1.400  10.565  18.662  0.00  0.00    +0.000 A 
ATOM     20  C   UNL     1      -1.923   9.936  17.530  0.00  0.00    +0.000 A 
ATOM     21  C   UNL     1      -3.124  10.365  16.933  0.00  0.00    +0.000 A 
BRANCH  16  23
ATOM     22  C   UNL     1      -6.168  11.715  17.632  0.00  0.00    +0.000 C 
ATOM     23  O   UNL     1      -4.952  11.932  16.910  0.00  0.00    +0.000 OA
ENDBRANCH  16  23
BRANCH  21  24
ATOM     24  O   UNL     1      -3.419   9.642  15.807  0.00  0.00    +0.000 OA
ATOM     25  C   UNL     1      -3.084  10.166  14.531  0.00  0.00    +0.000 C 
ENDBRANCH  21  24
ENDBRANCH  12  19
ENDBRANCH  11  13
ENDBRANCH   1  11
BRANCH   4  26
ATOM     26  S   UNL     1       4.413   4.690  17.136  0.00  0.00    +0.000 S 
BRANCH  26  27
ATOM     27  C   UNL     1       5.849   5.579  17.707  0.00  0.00    +0.000 A 
ATOM     28  C   UNL     1       6.521   5.115  18.843  0.00  0.00    +0.000 A 
ATOM     29  C   UNL     1       7.651   5.784  19.316  0.00  0.00    +0.000 A 
ATOM     30  C   UNL     1       8.121   6.916  18.654  0.00  0.00    +0.000 A 
ATOM     31  C   UNL     1       7.467   7.375  17.511  0.00  0.00    +0.000 A 
ATOM     32  C   UNL     1       6.336   6.704  17.035  0.00  0.00    +0.000 A 
ENDBRANCH  26  27
ENDBRANCH   4  26
TORSDOF 7
ENDMDL
MODEL 6
REMARK VINA RESULT:      -7.9      6.118      9.661
REMARK  Name = 
REMARK  9 active torsions:
REMARK  status: ('A' for Active; 'I' for Inactive)
REMARK    1  A    between atoms: C_1  and  O_2
REMARK    2  A    between atoms: O_2  and  C_3
REMARK    3  A    between atoms: C_6  and  N_7
REMARK    4  A    between atoms: C_8  and  C_10
REMARK    5  A    between atoms: C_10  and  N_11
REMARK    6  A    between atoms: C_14  and  S_15
REMARK    7  A    between atoms: S_15  and  C_16
REMARK    8  A    between atoms: C_29  and  O_30
REMARK    9  A    between atoms: O_30  and  C_31
REMARK                            x       y       z     vdW  Elec       q    Type
REMARK                         _______ _______ _______ _____ _____    ______ ____
ROOT
ATOM      1  N   UNL     1       0.644  10.251  21.862  0.00  0.00    +0.000 N 
ATOM      2  N   UNL     1       0.174  11.123  20.892  0.00  0.00    +0.000 NA
ATOM      3  C   UNL     1      -0.902  11.620  21.444  0.00  0.00    +0.000 A 
ATOM      4  C   UNL     1      -1.910  12.606  20.942  0.00  0.00    +0.000 A 
ATOM      5  N   UNL     1      -2.961  12.985  21.607  0.00  0.00    +0.000 NA
ATOM      6  C   UNL     1      -3.117  12.424  22.860  0.00  0.00    +0.000 A 
ATOM      7  C   UNL     1      -2.262  11.548  23.415  0.00  0.00    +0.000 A 
ATOM      8  N   UNL     1      -1.168  11.166  22.696  0.00  0.00    +0.000 N 
ATOM      9  C   UNL     1      -0.176  10.277  23.005  0.00  0.00    +0.000 A 
ATOM     10  O   UNL     1      -0.032   9.637  24.031  0.00  0.00    +0.000 OA
ENDROOT
BRANCH   1  11
ATOM     11  C   UNL     1       1.782   9.385  21.696  0.00  0.00    +0.000 C 
BRANCH  11  13
ATOM     12  N   UNL     1       2.071   7.110  20.844  0.00  0.00    +0.000 N 
ATOM     13  C   UNL     1       1.584   8.384  20.569  0.00  0.00    +0.000 C 
ATOM     14  O   UNL     1       1.177   8.765  19.476  0.00  0.00    +0.000 OA
ATOM     15  H   UNL     1       2.603   7.013  21.706  0.00  0.00    +0.000 HD
BRANCH  12  19
ATOM     16  C   UNL     1       2.014   3.701  18.341  0.00  0.00    +0.000 A 
ATOM     17  C   UNL     1       2.278   4.970  17.807  0.00  0.00    +0.000 A 
ATOM     18  C   UNL     1       2.310   6.103  18.618  0.00  0.00    +0.000 A 
ATOM     19  C   UNL     1       2.015   6.005  19.972  0.00  0.00    +0.000 A 
ATOM     20  C   UNL     1       1.638   4.762  20.486  0.00  0.00    +0.000 A 
ATOM     21  C   UNL     1       1.642   3.600  19.691  0.00  0.00    +0.000 A 
BRANCH  16  23
ATOM     22  C   UNL     1       3.313   1.829  17.711  0.00  0.00    +0.000 C 
ATOM     23  O   UNL     1       2.105   2.580  17.560  0.00  0.00    +0.000 OA
ENDBRANCH  16  23
BRANCH  21  24
ATOM     24  O   UNL     1       1.289   2.490  20.412  0.00  0.00    +0.000 OA
ATOM     25  C   UNL     1       1.380   2.518  21.829  0.00  0.00    +0.000 C 
ENDBRANCH  21  24
ENDBRANCH  12  19
ENDBRANCH  11  13
ENDBRANCH   1  11
BRANCH   4  26
ATOM     26  S   UNL     1      -1.477  13.128  19.361  0.00  0.00    +0.000 S 
BRANCH  26  27
ATOM     27  C   UNL     1      -2.201  11.838  18.366  0.00  0.00    +0.000 A 
ATOM     28  C   UNL     1      -1.358  10.896  17.767  0.00  0.00    +0.000 A 
ATOM     29  C   UNL     1      -1.890   9.869  16.985  0.00  0.00    +0.000 A 
ATOM     30  C   UNL     1      -3.268   9.773  16.802  0.00  0.00    +0.000 A 
ATOM     31  C   UNL     1      -4.116  10.697  17.411  0.00  0.00    +0.000 A 
ATOM     32  C   UNL     1      -3.585  11.725  18.196  0.00  0.00    +0.000 A 
ENDBRANCH  26  27
ENDBRANCH   4  26
TORSDOF 7
ENDMDL
MODEL 7
REMARK VINA RESULT:      -7.8      5.184      8.860
REMARK  Name = 
REMARK  9 active torsions:
REMARK  status: ('A' for Active; 'I' for Inactive)
REMARK    1  A    between atoms: C_1  and  O_2
REMARK    2  A    between atoms: O_2  and  C_3
REMARK    3  A    between atoms: C_6  and  N_7
REMARK    4  A    between atoms: C_8  and  C_10
REMARK    5  A    between atoms: C_10  and  N_11
REMARK    6  A    between atoms: C_14  and  S_15
REMARK    7  A    between atoms: S_15  and  C_16
REMARK    8  A    between atoms: C_29  and  O_30
REMARK    9  A    between atoms: O_30  and  C_31
REMARK                            x       y       z     vdW  Elec       q    Type
REMARK                         _______ _______ _______ _____ _____    ______ ____
ROOT
ATOM      1  N   UNL     1       2.075   7.959  19.291  0.00  0.00    +0.000 N 
ATOM      2  N   UNL     1       2.812   7.159  18.429  0.00  0.00    +0.000 NA
ATOM      3  C   UNL     1       2.808   6.000  19.033  0.00  0.00    +0.000 A 
ATOM      4  C   UNL     1       3.436   4.690  18.670  0.00  0.00    +0.000 A 
ATOM      5  N   UNL     1       3.369   3.617  19.400  0.00  0.00    +0.000 NA
ATOM      6  C   UNL     1       2.654   3.731  20.577  0.00  0.00    +0.000 A 
ATOM      7  C   UNL     1       2.034   4.850  20.987  0.00  0.00    +0.000 A 
ATOM      8  N   UNL     1       2.120   5.963  20.204  0.00  0.00    +0.000 N 
ATOM      9  C   UNL     1       1.622   7.221  20.400  0.00  0.00    +0.000 A 
ATOM     10  O   UNL     1       0.946   7.626  21.329  0.00  0.00    +0.000 OA
ENDROOT
BRANCH   1  11
ATOM     11  C   UNL     1       1.860   9.370  19.109  0.00  0.00    +0.000 C 
BRANCH  11  13
ATOM     12  N   UNL     1      -0.411  10.279  19.131  0.00  0.00    +0.000 N 
ATOM     13  C   UNL     1       0.570   9.664  18.359  0.00  0.00    +0.000 C 
ATOM     14  O   UNL     1       0.407   9.226  17.225  0.00  0.00    +0.000 OA
ATOM     15  H   UNL     1      -0.211  10.358  20.126  0.00  0.00    +0.000 HD
BRANCH  12  19
ATOM     16  C   UNL     1      -4.321  11.379  17.951  0.00  0.00    +0.000 A 
ATOM     17  C   UNL     1      -3.589  10.447  17.201  0.00  0.00    +0.000 A 
ATOM     18  C   UNL     1      -2.303  10.066  17.581  0.00  0.00    +0.000 A 
ATOM     19  C   UNL     1      -1.692  10.654  18.681  0.00  0.00    +0.000 A 
ATOM     20  C   UNL     1      -2.374  11.666  19.362  0.00  0.00    +0.000 A 
ATOM     21  C   UNL     1      -3.689  12.033  19.020  0.00  0.00    +0.000 A 
BRANCH  16  23
ATOM     22  C   UNL     1      -6.599  10.927  18.397  0.00  0.00    +0.000 C 
ATOM     23  O   UNL     1      -5.627  11.655  17.641  0.00  0.00    +0.000 OA
ENDBRANCH  16  23
BRANCH  21  24
ATOM     24  O   UNL     1      -4.177  13.007  19.851  0.00  0.00    +0.000 OA
ATOM     25  C   UNL     1      -4.324  12.734  21.237  0.00  0.00    +0.000 C 
ENDBRANCH  21  24
ENDBRANCH  12  19
ENDBRANCH  11  13
ENDBRANCH   1  11
BRANCH   4  26
ATOM     26  S   UNL     1       4.269   4.839  17.172  0.00  0.00    +0.000 S 
BRANCH  26  27
ATOM     27  C   UNL     1       5.747   5.692  17.687  0.00  0.00    +0.000 A 
ATOM     28  C   UNL     1       6.478   5.184  18.766  0.00  0.00    +0.000 A 
ATOM     29  C   UNL     1       7.642   5.824  19.193  0.00  0.00    +0.000 A 
ATOM     30  C   UNL     1       8.088   6.972  18.542  0.00  0.00    +0.000 A 
ATOM     31  C   UNL     1       7.374   7.476  17.455  0.00  0.00    +0.000 A 
ATOM     32  C   UNL     1       6.209   6.834  17.024  0.00  0.00    +0.000 A 
ENDBRANCH  26  27
ENDBRANCH   4  26
TORSDOF 7
ENDMDL
MODEL 8
REMARK VINA RESULT:      -7.7      5.977      9.821
REMARK  Name = 
REMARK  9 active torsions:
REMARK  status: ('A' for Active; 'I' for Inactive)
REMARK    1  A    between atoms: C_1  and  O_2
REMARK    2  A    between atoms: O_2  and  C_3
REMARK    3  A    between atoms: C_6  and  N_7
REMARK    4  A    between atoms: C_8  and  C_10
REMARK    5  A    between atoms: C_10  and  N_11
REMARK    6  A    between atoms: C_14  and  S_15
REMARK    7  A    between atoms: S_15  and  C_16
REMARK    8  A    between atoms: C_29  and  O_30
REMARK    9  A    between atoms: O_30  and  C_31
REMARK                            x       y       z     vdW  Elec       q    Type
REMARK                         _______ _______ _______ _____ _____    ______ ____
ROOT
ATOM      1  N   UNL     1       0.515  10.358  21.612  0.00  0.00    +0.000 N 
ATOM      2  N   UNL     1       0.257  11.040  20.431  0.00  0.00    +0.000 NA
ATOM      3  C   UNL     1      -0.807  11.739  20.726  0.00  0.00    +0.000 A 
ATOM      4  C   UNL     1      -1.634  12.681  19.907  0.00  0.00    +0.000 A 
ATOM      5  N   UNL     1      -2.700  13.286  20.338  0.00  0.00    +0.000 NA
ATOM      6  C   UNL     1      -3.056  13.025  21.647  0.00  0.00    +0.000 A 
ATOM      7  C   UNL     1      -2.373  12.216  22.475  0.00  0.00    +0.000 A 
ATOM      8  N   UNL     1      -1.260  11.591  21.999  0.00  0.00    +0.000 N 
ATOM      9  C   UNL     1      -0.417  10.703  22.608  0.00  0.00    +0.000 A 
ATOM     10  O   UNL     1      -0.461  10.289  23.753  0.00  0.00    +0.000 OA
ENDROOT
BRANCH   1  11
ATOM     11  C   UNL     1       1.556   9.378  21.775  0.00  0.00    +0.000 C 
BRANCH  11  13
ATOM     12  N   UNL     1       2.216   7.451  20.419  0.00  0.00    +0.000 N 
ATOM     13  C   UNL     1       1.190   8.039  21.151  0.00  0.00    +0.000 C 
ATOM     14  O   UNL     1       0.029   7.645  21.187  0.00  0.00    +0.000 OA
ATOM     15  H   UNL     1       3.048   8.021  20.280  0.00  0.00    +0.000 HD
BRANCH  12  19
ATOM     16  C   UNL     1       2.070   3.671  18.527  0.00  0.00    +0.000 A 
ATOM     17  C   UNL     1       2.484   4.806  17.815  0.00  0.00    +0.000 A 
ATOM     18  C   UNL     1       2.547   6.058  18.425  0.00  0.00    +0.000 A 
ATOM     19  C   UNL     1       2.136   6.218  19.742  0.00  0.00    +0.000 A 
ATOM     20  C   UNL     1       1.615   5.113  20.419  0.00  0.00    +0.000 A 
ATOM     21  C   UNL     1       1.584   3.833  19.834  0.00  0.00    +0.000 A 
BRANCH  16  23
ATOM     22  C   UNL     1       3.362   1.729  18.142  0.00  0.00    +0.000 C 
ATOM     23  O   UNL     1       2.128   2.427  17.956  0.00  0.00    +0.000 OA
ENDBRANCH  16  23
BRANCH  21  24
ATOM     24  O   UNL     1       1.080   2.893  20.694  0.00  0.00    +0.000 OA
ATOM     25  C   UNL     1       1.865   2.462  21.796  0.00  0.00    +0.000 C 
ENDBRANCH  21  24
ENDBRANCH  12  19
ENDBRANCH  11  13
ENDBRANCH   1  11
BRANCH   4  26
ATOM     26  S   UNL     1      -0.974  12.808  18.323  0.00  0.00    +0.000 S 
BRANCH  26  27
ATOM     27  C   UNL     1       0.233  14.098  18.559  0.00  0.00    +0.000 A 
ATOM     28  C   UNL     1       1.591  13.778  18.452  0.00  0.00    +0.000 A 
ATOM     29  C   UNL     1       2.564  14.763  18.626  0.00  0.00    +0.000 A 
ATOM     30  C   UNL     1       2.187  16.076  18.903  0.00  0.00    +0.000 A 
ATOM     31  C   UNL     1       0.836  16.407  18.994  0.00  0.00    +0.000 A 
ATOM     32  C   UNL     1      -0.140  15.421  18.817  0.00  0.00    +0.000 A 
ENDBRANCH  26  27
ENDBRANCH   4  26
TORSDOF 7
ENDMDL
MODEL 9
REMARK VINA RESULT:      -7.6      3.770      6.765
REMARK  Name = 
REMARK  9 active torsions:
REMARK  status: ('A' for Active; 'I' for Inactive)
REMARK    1  A    between atoms: C_1  and  O_2
REMARK    2  A    between atoms: O_2  and  C_3
REMARK    3  A    between atoms: C_6  and  N_7
REMARK    4  A    between atoms: C_8  and  C_10
REMARK    5  A    between atoms: C_10  and  N_11
REMARK    6  A    between atoms: C_14  and  S_15
REMARK    7  A    between atoms: S_15  and  C_16
REMARK    8  A    between atoms: C_29  and  O_30
REMARK    9  A    between atoms: O_30  and  C_31
REMARK                            x       y       z     vdW  Elec       q    Type
REMARK                         _______ _______ _______ _____ _____    ______ ____
ROOT
ATOM      1  N   UNL     1       4.027   4.085  19.056  0.00  0.00    +0.000 N 
ATOM      2  N   UNL     1       5.295   4.600  19.284  0.00  0.00    +0.000 NA
ATOM      3  C   UNL     1       5.863   4.506  18.111  0.00  0.00    +0.000 A 
ATOM      4  C   UNL     1       7.241   4.860  17.645  0.00  0.00    +0.000 A 
ATOM      5  N   UNL     1       7.675   4.677  16.434  0.00  0.00    +0.000 NA
ATOM      6  C   UNL     1       6.772   4.125  15.545  0.00  0.00    +0.000 A 
ATOM      7  C   UNL     1       5.507   3.793  15.852  0.00  0.00    +0.000 A 
ATOM      8  N   UNL     1       5.076   3.993  17.130  0.00  0.00    +0.000 N 
ATOM      9  C   UNL     1       3.869   3.714  17.708  0.00  0.00    +0.000 A 
ATOM     10  O   UNL     1       2.876   3.240  17.185  0.00  0.00    +0.000 OA
ENDROOT
BRANCH   1  11
ATOM     11  C   UNL     1       3.030   3.893  20.076  0.00  0.00    +0.000 C 
BRANCH  11  13
ATOM     12  N   UNL     1       2.555   6.293  20.079  0.00  0.00    +0.000 N 
ATOM     13  C   UNL     1       2.004   5.016  20.097  0.00  0.00    +0.000 C 
ATOM     14  O   UNL     1       0.818   4.758  20.282  0.00  0.00    +0.000 OA
ATOM     15  H   UNL     1       3.567   6.343  20.171  0.00  0.00    +0.000 HD
BRANCH  12  19
ATOM     16  C   UNL     1       0.218   9.817  20.158  0.00  0.00    +0.000 A 
ATOM     17  C   UNL     1       1.119   9.587  19.109  0.00  0.00    +0.000 A 
ATOM     18  C   UNL     1       1.891   8.427  19.062  0.00  0.00    +0.000 A 
ATOM     19  C   UNL     1       1.827   7.499  20.094  0.00  0.00    +0.000 A 
ATOM     20  C   UNL     1       1.016   7.780  21.197  0.00  0.00    +0.000 A 
ATOM     21  C   UNL     1       0.198   8.925  21.241  0.00  0.00    +0.000 A 
BRANCH  16  23
ATOM     22  C   UNL     1       0.021  12.168  19.992  0.00  0.00    +0.000 C 
ATOM     23  O   UNL     1      -0.623  10.899  20.133  0.00  0.00    +0.000 OA
ENDBRANCH  16  23
BRANCH  21  24
ATOM     24  O   UNL     1      -0.549   8.972  22.389  0.00  0.00    +0.000 OA
ATOM     25  C   UNL     1      -0.512  10.137  23.200  0.00  0.00    +0.000 C 
ENDBRANCH  21  24
ENDBRANCH  12  19
ENDBRANCH  11  13
ENDBRANCH   1  11
BRANCH   4  26
ATOM     26  S   UNL     1       8.150   5.511  18.953  0.00  0.00    +0.000 S 
BRANCH  26  27
ATOM     27  C   UNL     1       8.132   7.247  18.551  0.00  0.00    +0.000 A 
ATOM     28  C   UNL     1       7.269   7.698  17.547  0.00  0.00    +0.000 A 
ATOM     29  C   UNL     1       7.225   9.051  17.209  0.00  0.00    +0.000 A 
ATOM     30  C   UNL     1       8.040   9.964  17.876  0.00  0.00    +0.000 A 
ATOM     31  C   UNL     1       8.891   9.526  18.889  0.00  0.00    +0.000 A 
ATOM     32  C   UNL     1       8.934   8.170  19.230  0.00  0.00    +0.000 A 
ENDBRANCH  26  27
ENDBRANCH   4  26
TORSDOF 7
ENDMDL
