MODEL 1
REMARK VINA RESULT:      -8.3      0.000      0.000
REMARK  Name = 
REMARK  6 active torsions:
REMARK  status: ('A' for Active; 'I' for Inactive)
REMARK    1  A    between atoms: C_1  and  C_2
REMARK    2  A    between atoms: C_2  and  N_3
REMARK    3  A    between atoms: N_3  and  C_4
REMARK    4  A    between atoms: N_3  and  S_14
REMARK    5  A    between atoms: S_14  and  C_17
REMARK    6  A    between atoms: N_21  and  C_22
REMARK                            x       y       z     vdW  Elec       q    Type
REMARK                         _______ _______ _______ _____ _____    ______ ____
ROOT
ATOM      1  N   UNL     1       3.405   4.616  17.649  0.00  0.00    +0.000 NA
ENDROOT
BRANCH   1   2
ATOM      2  C   UNL     1       4.838   4.189  17.280  0.00  0.00    +0.000 C 
ATOM      3  C   UNL     1       5.008   3.918  15.768  0.00  0.00    +0.000 C 
ATOM      4  C   UNL     1       5.441   5.117  14.920  0.00  0.00    +0.000 C 
ATOM      5  C   UNL     1       6.608   5.903  15.504  0.00  0.00    +0.000 C 
ATOM      6  C   UNL     1       6.744   5.868  16.998  0.00  0.00    +0.000 A 
ATOM      7  C   UNL     1       7.768   6.624  17.590  0.00  0.00    +0.000 A 
ATOM      8  C   UNL     1       8.038   6.494  18.946  0.00  0.00    +0.000 A 
ATOM      9  C   UNL     1       7.272   5.604  19.672  0.00  0.00    +0.000 A 
ATOM     10  N   UNL     1       6.256   4.889  19.143  0.00  0.00    +0.000 NA
ATOM     11  C   UNL     1       5.980   5.037  17.822  0.00  0.00    +0.000 A 
ENDBRANCH   1   2
BRANCH   1  12
ATOM     12  S   UNL     1       2.380   3.254  17.965  0.00  0.00    +0.000 S 
ATOM     13  O   UNL     1       1.035   3.551  17.520  0.00  0.00    +0.000 OA
ATOM     14  O   UNL     1       3.082   2.042  17.607  0.00  0.00    +0.000 OA
BRANCH  12  15
ATOM     15  C   UNL     1       2.185   3.108  19.721  0.00  0.00    +0.000 A 
ATOM     16  C   UNL     1       1.126   3.430  20.562  0.00  0.00    +0.000 A 
ATOM     17  C   UNL     1       1.503   2.995  21.837  0.00  0.00    +0.000 A 
ATOM     18  N   UNL     1       2.738   2.485  21.844  0.00  0.00    +0.000 NA
ATOM     19  N   UNL     1       3.146   2.600  20.559  0.00  0.00    +0.000 N 
ATOM     20  C   UNL     1       4.478   2.158  20.225  0.00  0.00    +0.000 C 
ENDBRANCH  12  15
ENDBRANCH   1  12
BRANCH   1  22
ATOM     21  C   UNL     1       2.757   6.987  18.210  0.00  0.00    +0.000 C 
ATOM     22  C   UNL     1       3.341   5.675  18.697  0.00  0.00    +0.000 C 
ENDBRANCH   1  22
TORSDOF 4
ENDMDL
MODEL 2
REMARK VINA RESULT:      -8.0      1.378      1.728
REMARK  Name = 
REMARK  6 active torsions:
REMARK  status: ('A' for Active; 'I' for Inactive)
REMARK    1  A    between atoms: C_1  and  C_2
REMARK    2  A    between atoms: C_2  and  N_3
REMARK    3  A    between atoms: N_3  and  C_4
REMARK    4  A    between atoms: N_3  and  S_14
REMARK    5  A    between atoms: S_14  and  C_17
REMARK    6  A    between atoms: N_21  and  C_22
REMARK                            x       y       z     vdW  Elec       q    Type
REMARK                         _______ _______ _______ _____ _____    ______ ____
ROOT
ATOM      1  N   UNL     1       4.165   3.830  18.122  0.00  0.00    +0.000 NA
ENDROOT
BRANCH   1   2
ATOM      2  C   UNL     1       5.510   3.945  17.382  0.00  0.00    +0.000 C 
ATOM      3  C   UNL     1       5.355   3.870  15.846  0.00  0.00    +0.000 C 
ATOM      4  C   UNL     1       5.160   5.209  15.130  0.00  0.00    +0.000 C 
ATOM      5  C   UNL     1       6.138   6.294  15.562  0.00  0.00    +0.000 C 
ATOM      6  C   UNL     1       6.664   6.186  16.964  0.00  0.00    +0.000 A 
ATOM      7  C   UNL     1       7.522   7.194  17.431  0.00  0.00    +0.000 A 
ATOM      8  C   UNL     1       8.163   7.055  18.655  0.00  0.00    +0.000 A 
ATOM      9  C   UNL     1       7.926   5.902  19.377  0.00  0.00    +0.000 A 
ATOM     10  N   UNL     1       7.079   4.931  18.976  0.00  0.00    +0.000 NA
ATOM     11  C   UNL     1       6.436   5.083  17.790  0.00  0.00    +0.000 A 
ENDBRANCH   1   2
BRANCH   1  12
ATOM     12  S   UNL     1       4.078   2.399  19.097  0.00  0.00    +0.000 S 
ATOM     13  O   UNL     1       3.681   1.278  18.273  0.00  0.00    +0.000 OA
ATOM     14  O   UNL     1       5.218   2.362  19.986  0.00  0.00    +0.000 OA
BRANCH  12  15
ATOM     15  C   UNL     1       2.705   2.572  20.206  0.00  0.00    +0.000 A 
ATOM     16  C   UNL     1       2.640   2.623  21.593  0.00  0.00    +0.000 A 
ATOM     17  C   UNL     1       1.300   2.876  21.905  0.00  0.00    +0.000 A 
ATOM     18  N   UNL     1       0.535   2.924  20.811  0.00  0.00    +0.000 NA
ATOM     19  N   UNL     1       1.401   2.698  19.796  0.00  0.00    +0.000 N 
ATOM     20  C   UNL     1       0.880   2.655  18.452  0.00  0.00    +0.000 C 
ENDBRANCH  12  15
ENDBRANCH   1  12
BRANCH   1  22
ATOM     21  C   UNL     1       2.725   5.899  18.099  0.00  0.00    +0.000 C 
ATOM     22  C   UNL     1       3.761   5.073  18.838  0.00  0.00    +0.000 C 
ENDBRANCH   1  22
TORSDOF 4
ENDMDL
MODEL 3
REMARK VINA RESULT:      -6.8      1.731      3.114
REMARK  Name = 
REMARK  6 active torsions:
REMARK  status: ('A' for Active; 'I' for Inactive)
REMARK    1  A    between atoms: C_1  and  C_2
REMARK    2  A    between atoms: C_2  and  N_3
REMARK    3  A    between atoms: N_3  and  C_4
REMARK    4  A    between atoms: N_3  and  S_14
REMARK    5  A    between atoms: S_14  and  C_17
REMARK    6  A    between atoms: N_21  and  C_22
REMARK                            x       y       z     vdW  Elec       q    Type
REMARK                         _______ _______ _______ _____ _____    ______ ____
ROOT
ATOM      1  N   UNL     1       4.797   4.012  18.926  0.00  0.00    +0.000 NA
ENDROOT
BRANCH   1   2
ATOM      2  C   UNL     1       4.121   4.459  17.617  0.00  0.00    +0.000 C 
ATOM      3  C   UNL     1       3.187   5.675  17.814  0.00  0.00    +0.000 C 
ATOM      4  C   UNL     1       3.833   7.049  17.628  0.00  0.00    +0.000 C 
ATOM      5  C   UNL     1       4.688   7.171  16.372  0.00  0.00    +0.000 C 
ATOM      6  C   UNL     1       5.314   5.900  15.876  0.00  0.00    +0.000 A 
ATOM      7  C   UNL     1       6.158   5.967  14.756  0.00  0.00    +0.000 A 
ATOM      8  C   UNL     1       6.625   4.802  14.162  0.00  0.00    +0.000 A 
ATOM      9  C   UNL     1       6.229   3.598  14.708  0.00  0.00    +0.000 A 
ATOM     10  N   UNL     1       5.449   3.497  15.805  0.00  0.00    +0.000 NA
ATOM     11  C   UNL     1       5.014   4.638  16.397  0.00  0.00    +0.000 A 
ENDBRANCH   1   2
BRANCH   1  12
ATOM     12  S   UNL     1       4.287   2.428  19.414  0.00  0.00    +0.000 S 
ATOM     13  O   UNL     1       3.852   1.683  18.252  0.00  0.00    +0.000 OA
ATOM     14  O   UNL     1       5.226   1.906  20.382  0.00  0.00    +0.000 OA
BRANCH  12  15
ATOM     15  C   UNL     1       2.791   2.595  20.350  0.00  0.00    +0.000 A 
ATOM     16  C   UNL     1       2.560   2.644  21.720  0.00  0.00    +0.000 A 
ATOM     17  C   UNL     1       1.191   2.893  21.869  0.00  0.00    +0.000 A 
ATOM     18  N   UNL     1       0.563   2.941  20.691  0.00  0.00    +0.000 NA
ATOM     19  N   UNL     1       1.545   2.719  19.787  0.00  0.00    +0.000 N 
ATOM     20  C   UNL     1       1.189   2.677  18.390  0.00  0.00    +0.000 C 
ENDBRANCH  12  15
ENDBRANCH   1  12
BRANCH   1  22
ATOM     21  C   UNL     1       6.715   5.580  19.390  0.00  0.00    +0.000 C 
ATOM     22  C   UNL     1       6.275   4.200  18.939  0.00  0.00    +0.000 C 
ENDBRANCH   1  22
TORSDOF 4
ENDMDL
MODEL 4
REMARK VINA RESULT:      -6.7      0.666      1.419
REMARK  Name = 
REMARK  6 active torsions:
REMARK  status: ('A' for Active; 'I' for Inactive)
REMARK    1  A    between atoms: C_1  and  C_2
REMARK    2  A    between atoms: C_2  and  N_3
REMARK    3  A    between atoms: N_3  and  C_4
REMARK    4  A    between atoms: N_3  and  S_14
REMARK    5  A    between atoms: S_14  and  C_17
REMARK    6  A    between atoms: N_21  and  C_22
REMARK                            x       y       z     vdW  Elec       q    Type
REMARK                         _______ _______ _______ _____ _____    ______ ____
ROOT
ATOM      1  N   UNL     1       3.311   4.853  17.619  0.00  0.00    +0.000 NA
ENDROOT
BRANCH   1   2
ATOM      2  C   UNL     1       4.723   4.383  17.224  0.00  0.00    +0.000 C 
ATOM      3  C   UNL     1       4.891   4.217  15.697  0.00  0.00    +0.000 C 
ATOM      4  C   UNL     1       5.389   5.451  14.942  0.00  0.00    +0.000 C 
ATOM      5  C   UNL     1       6.589   6.133  15.587  0.00  0.00    +0.000 C 
ATOM      6  C   UNL     1       6.712   5.980  17.075  0.00  0.00    +0.000 A 
ATOM      7  C   UNL     1       7.768   6.638  17.726  0.00  0.00    +0.000 A 
ATOM      8  C   UNL     1       8.021   6.395  19.070  0.00  0.00    +0.000 A 
ATOM      9  C   UNL     1       7.207   5.493  19.724  0.00  0.00    +0.000 A 
ATOM     10  N   UNL     1       6.161   4.871  19.140  0.00  0.00    +0.000 NA
ATOM     11  C   UNL     1       5.902   5.130  17.833  0.00  0.00    +0.000 A 
ENDBRANCH   1   2
BRANCH   1  12
ATOM     12  S   UNL     1       2.320   3.542  18.175  0.00  0.00    +0.000 S 
ATOM     13  O   UNL     1       1.169   4.072  18.874  0.00  0.00    +0.000 OA
ATOM     14  O   UNL     1       2.222   2.548  17.130  0.00  0.00    +0.000 OA
BRANCH  12  15
ATOM     15  C   UNL     1       3.199   2.695  19.460  0.00  0.00    +0.000 A 
ATOM     16  C   UNL     1       4.275   1.815  19.418  0.00  0.00    +0.000 A 
ATOM     17  C   UNL     1       4.608   1.552  20.751  0.00  0.00    +0.000 A 
ATOM     18  N   UNL     1       3.777   2.162  21.601  0.00  0.00    +0.000 NA
ATOM     19  N   UNL     1       2.908   2.817  20.796  0.00  0.00    +0.000 N 
ATOM     20  C   UNL     1       1.842   3.568  21.412  0.00  0.00    +0.000 C 
ENDBRANCH  12  15
ENDBRANCH   1  12
BRANCH   1  22
ATOM     21  C   UNL     1       3.085   7.357  17.795  0.00  0.00    +0.000 C 
ATOM     22  C   UNL     1       3.298   6.041  18.519  0.00  0.00    +0.000 C 
ENDBRANCH   1  22
TORSDOF 4
ENDMDL
MODEL 5
REMARK VINA RESULT:      -6.7      2.622      4.044
REMARK  Name = 
REMARK  6 active torsions:
REMARK  status: ('A' for Active; 'I' for Inactive)
REMARK    1  A    between atoms: C_1  and  C_2
REMARK    2  A    between atoms: C_2  and  N_3
REMARK    3  A    between atoms: N_3  and  C_4
REMARK    4  A    between atoms: N_3  and  S_14
REMARK    5  A    between atoms: S_14  and  C_17
REMARK    6  A    between atoms: N_21  and  C_22
REMARK                            x       y       z     vdW  Elec       q    Type
REMARK                         _______ _______ _______ _____ _____    ______ ____
ROOT
ATOM      1  N   UNL     1       3.098   4.965  19.922  0.00  0.00    +0.000 NA
ENDROOT
BRANCH   1   2
ATOM      2  C   UNL     1       4.187   4.022  19.379  0.00  0.00    +0.000 C 
ATOM      3  C   UNL     1       3.627   2.966  18.399  0.00  0.00    +0.000 C 
ATOM      4  C   UNL     1       3.622   3.364  16.921  0.00  0.00    +0.000 C 
ATOM      5  C   UNL     1       4.933   3.970  16.435  0.00  0.00    +0.000 C 
ATOM      6  C   UNL     1       5.753   4.683  17.470  0.00  0.00    +0.000 A 
ATOM      7  C   UNL     1       6.940   5.310  17.061  0.00  0.00    +0.000 A 
ATOM      8  C   UNL     1       7.813   5.837  18.004  0.00  0.00    +0.000 A 
ATOM      9  C   UNL     1       7.469   5.718  19.336  0.00  0.00    +0.000 A 
ATOM     10  N   UNL     1       6.319   5.155  19.762  0.00  0.00    +0.000 NA
ATOM     11  C   UNL     1       5.457   4.663  18.836  0.00  0.00    +0.000 A 
ENDBRANCH   1   2
BRANCH   1  12
ATOM     12  S   UNL     1       2.729   6.243  18.810  0.00  0.00    +0.000 S 
ATOM     13  O   UNL     1       3.956   6.882  18.386  0.00  0.00    +0.000 OA
ATOM     14  O   UNL     1       1.715   5.787  17.885  0.00  0.00    +0.000 OA
BRANCH  12  15
ATOM     15  C   UNL     1       1.909   7.533  19.708  0.00  0.00    +0.000 A 
ATOM     16  C   UNL     1       1.466   7.604  21.024  0.00  0.00    +0.000 A 
ATOM     17  C   UNL     1       0.989   8.908  21.198  0.00  0.00    +0.000 A 
ATOM     18  N   UNL     1       1.055   9.617  20.068  0.00  0.00    +0.000 NA
ATOM     19  N   UNL     1       1.580   8.752  19.168  0.00  0.00    +0.000 N 
ATOM     20  C   UNL     1       1.758   9.204  17.811  0.00  0.00    +0.000 C 
ENDBRANCH  12  15
ENDBRANCH   1  12
BRANCH   1  22
ATOM     21  C   UNL     1       2.162   3.448  21.704  0.00  0.00    +0.000 C 
ATOM     22  C   UNL     1       1.896   4.260  20.451  0.00  0.00    +0.000 C 
ENDBRANCH   1  22
TORSDOF 4
ENDMDL
MODEL 6
REMARK VINA RESULT:      -6.7      3.234      6.179
REMARK  Name = 
REMARK  6 active torsions:
REMARK  status: ('A' for Active; 'I' for Inactive)
REMARK    1  A    between atoms: C_1  and  C_2
REMARK    2  A    between atoms: C_2  and  N_3
REMARK    3  A    between atoms: N_3  and  C_4
REMARK    4  A    between atoms: N_3  and  S_14
REMARK    5  A    between atoms: S_14  and  C_17
REMARK    6  A    between atoms: N_21  and  C_22
REMARK                            x       y       z     vdW  Elec       q    Type
REMARK                         _______ _______ _______ _____ _____    ______ ____
ROOT
ATOM      1  N   UNL     1       5.746   4.855  16.964  0.00  0.00    +0.000 NA
ENDROOT
BRANCH   1   2
ATOM      2  C   UNL     1       4.215   4.704  17.013  0.00  0.00    +0.000 C 
ATOM      3  C   UNL     1       3.762   3.227  17.053  0.00  0.00    +0.000 C 
ATOM      4  C   UNL     1       3.592   2.619  18.448  0.00  0.00    +0.000 C 
ATOM      5  C   UNL     1       2.805   3.494  19.416  0.00  0.00    +0.000 C 
ATOM      6  C   UNL     1       2.875   4.973  19.172  0.00  0.00    +0.000 A 
ATOM      7  C   UNL     1       2.215   5.827  20.071  0.00  0.00    +0.000 A 
ATOM      8  C   UNL     1       2.111   7.184  19.798  0.00  0.00    +0.000 A 
ATOM      9  C   UNL     1       2.671   7.649  18.625  0.00  0.00    +0.000 A 
ATOM     10  N   UNL     1       3.344   6.863  17.757  0.00  0.00    +0.000 NA
ATOM     11  C   UNL     1       3.464   5.542  18.040  0.00  0.00    +0.000 A 
ENDBRANCH   1   2
BRANCH   1  12
ATOM     12  S   UNL     1       6.267   5.776  15.590  0.00  0.00    +0.000 S 
ATOM     13  O   UNL     1       5.242   6.734  15.236  0.00  0.00    +0.000 OA
ATOM     14  O   UNL     1       7.658   6.132  15.758  0.00  0.00    +0.000 OA
BRANCH  12  15
ATOM     15  C   UNL     1       6.291   4.697  14.183  0.00  0.00    +0.000 A 
ATOM     16  C   UNL     1       5.492   3.613  13.837  0.00  0.00    +0.000 A 
ATOM     17  C   UNL     1       5.913   3.217  12.563  0.00  0.00    +0.000 A 
ATOM     18  N   UNL     1       6.949   3.944  12.134  0.00  0.00    +0.000 NA
ATOM     19  N   UNL     1       7.186   4.808  13.148  0.00  0.00    +0.000 N 
ATOM     20  C   UNL     1       8.284   5.733  13.013  0.00  0.00    +0.000 C 
ENDBRANCH  12  15
ENDBRANCH   1  12
BRANCH   1  22
ATOM     21  C   UNL     1       7.739   4.739  18.504  0.00  0.00    +0.000 C 
ATOM     22  C   UNL     1       6.352   5.300  18.252  0.00  0.00    +0.000 C 
ENDBRANCH   1  22
TORSDOF 4
ENDMDL
MODEL 7
REMARK VINA RESULT:      -6.6      1.272      3.008
REMARK  Name = 
REMARK  6 active torsions:
REMARK  status: ('A' for Active; 'I' for Inactive)
REMARK    1  A    between atoms: C_1  and  C_2
REMARK    2  A    between atoms: C_2  and  N_3
REMARK    3  A    between atoms: N_3  and  C_4
REMARK    4  A    between atoms: N_3  and  S_14
REMARK    5  A    between atoms: S_14  and  C_17
REMARK    6  A    between atoms: N_21  and  C_22
REMARK                            x       y       z     vdW  Elec       q    Type
REMARK                         _______ _______ _______ _____ _____    ______ ____
ROOT
ATOM      1  N   UNL     1       4.506   3.503  17.547  0.00  0.00    +0.000 NA
ENDROOT
BRANCH   1   2
ATOM      2  C   UNL     1       4.619   4.682  18.529  0.00  0.00    +0.000 C 
ATOM      3  C   UNL     1       6.077   4.969  18.952  0.00  0.00    +0.000 C 
ATOM      4  C   UNL     1       6.838   5.975  18.085  0.00  0.00    +0.000 C 
ATOM      5  C   UNL     1       6.060   7.250  17.784  0.00  0.00    +0.000 C 
ATOM      6  C   UNL     1       4.565   7.120  17.763  0.00  0.00    +0.000 A 
ATOM      7  C   UNL     1       3.804   8.252  17.432  0.00  0.00    +0.000 A 
ATOM      8  C   UNL     1       2.421   8.227  17.561  0.00  0.00    +0.000 A 
ATOM      9  C   UNL     1       1.839   7.063  18.023  0.00  0.00    +0.000 A 
ATOM     10  N   UNL     1       2.537   5.945  18.315  0.00  0.00    +0.000 NA
ATOM     11  C   UNL     1       3.886   5.967  18.164  0.00  0.00    +0.000 A 
ENDBRANCH   1   2
BRANCH   1  12
ATOM     12  S   UNL     1       3.172   2.462  17.929  0.00  0.00    +0.000 S 
ATOM     13  O   UNL     1       1.999   2.897  17.203  0.00  0.00    +0.000 OA
ATOM     14  O   UNL     1       3.631   1.091  17.941  0.00  0.00    +0.000 OA
BRANCH  12  15
ATOM     15  C   UNL     1       2.715   2.752  19.617  0.00  0.00    +0.000 A 
ATOM     16  C   UNL     1       1.586   3.337  20.180  0.00  0.00    +0.000 A 
ATOM     17  C   UNL     1       1.730   3.195  21.564  0.00  0.00    +0.000 A 
ATOM     18  N   UNL     1       2.892   2.618  21.887  0.00  0.00    +0.000 NA
ATOM     19  N   UNL     1       3.489   2.395  20.693  0.00  0.00    +0.000 N 
ATOM     20  C   UNL     1       4.801   1.796  20.688  0.00  0.00    +0.000 C 
ENDBRANCH  12  15
ENDBRANCH   1  12
BRANCH   1  22
ATOM     21  C   UNL     1       5.935   3.721  15.481  0.00  0.00    +0.000 C 
ATOM     22  C   UNL     1       4.567   3.902  16.112  0.00  0.00    +0.000 C 
ENDBRANCH   1  22
TORSDOF 4
ENDMDL
MODEL 8
REMARK VINA RESULT:      -6.5      1.734      3.291
REMARK  Name = 
REMARK  6 active torsions:
REMARK  status: ('A' for Active; 'I' for Inactive)
REMARK    1  A    between atoms: C_1  and  C_2
REMARK    2  A    between atoms: C_2  and  N_3
REMARK    3  A    between atoms: N_3  and  C_4
REMARK    4  A    between atoms: N_3  and  S_14
REMARK    5  A    between atoms: S_14  and  C_17
REMARK    6  A    between atoms: N_21  and  C_22
REMARK                            x       y       z     vdW  Elec       q    Type
REMARK                         _______ _______ _______ _____ _____    ______ ____
ROOT
ATOM      1  N   UNL     1       4.890   3.351  18.275  0.00  0.00    +0.000 NA
ENDROOT
BRANCH   1   2
ATOM      2  C   UNL     1       5.073   4.705  18.985  0.00  0.00    +0.000 C 
ATOM      3  C   UNL     1       6.555   5.128  19.089  0.00  0.00    +0.000 C 
ATOM      4  C   UNL     1       7.090   5.974  17.931  0.00  0.00    +0.000 C 
ATOM      5  C   UNL     1       6.183   7.132  17.535  0.00  0.00    +0.000 C 
ATOM      6  C   UNL     1       4.717   6.939  17.797  0.00  0.00    +0.000 A 
ATOM      7  C   UNL     1       3.831   7.952  17.396  0.00  0.00    +0.000 A 
ATOM      8  C   UNL     1       2.493   7.896  17.763  0.00  0.00    +0.000 A 
ATOM      9  C   UNL     1       2.080   6.823  18.527  0.00  0.00    +0.000 A 
ATOM     10  N   UNL     1       2.897   5.814  18.899  0.00  0.00    +0.000 NA
ATOM     11  C   UNL     1       4.198   5.860  18.517  0.00  0.00    +0.000 A 
ENDBRANCH   1   2
BRANCH   1  12
ATOM     12  S   UNL     1       4.288   2.129  19.348  0.00  0.00    +0.000 S 
ATOM     13  O   UNL     1       3.762   1.025  18.574  0.00  0.00    +0.000 OA
ATOM     14  O   UNL     1       5.222   1.955  20.438  0.00  0.00    +0.000 OA
BRANCH  12  15
ATOM     15  C   UNL     1       2.841   2.766  20.150  0.00  0.00    +0.000 A 
ATOM     16  C   UNL     1       2.644   3.278  21.427  0.00  0.00    +0.000 A 
ATOM     17  C   UNL     1       1.318   3.724  21.460  0.00  0.00    +0.000 A 
ATOM     18  N   UNL     1       0.677   3.468  20.316  0.00  0.00    +0.000 NA
ATOM     19  N   UNL     1       1.609   2.852  19.551  0.00  0.00    +0.000 N 
ATOM     20  C   UNL     1       1.224   2.408  18.234  0.00  0.00    +0.000 C 
ENDBRANCH  12  15
ENDBRANCH   1  12
BRANCH   1  22
ATOM     21  C   UNL     1       5.018   3.823  15.802  0.00  0.00    +0.000 C 
ATOM     22  C   UNL     1       4.149   3.438  16.985  0.00  0.00    +0.000 C 
ENDBRANCH   1  22
TORSDOF 4
ENDMDL
MODEL 9
REMARK VINA RESULT:      -6.3      0.971      1.190
REMARK  Name = 
REMARK  6 active torsions:
REMARK  status: ('A' for Active; 'I' for Inactive)
REMARK    1  A    between atoms: C_1  and  C_2
REMARK    2  A    between atoms: C_2  and  N_3
REMARK    3  A    between atoms: N_3  and  C_4
REMARK    4  A    between atoms: N_3  and  S_14
REMARK    5  A    between atoms: S_14  and  C_17
REMARK    6  A    between atoms: N_21  and  C_22
REMARK                            x       y       z     vdW  Elec       q    Type
REMARK                         _______ _______ _______ _____ _____    ______ ____
ROOT
ATOM      1  N   UNL     1       3.436   5.006  17.328  0.00  0.00    +0.000 NA
ENDROOT
BRANCH   1   2
ATOM      2  C   UNL     1       4.847   4.437  17.093  0.00  0.00    +0.000 C 
ATOM      3  C   UNL     1       5.155   4.205  15.597  0.00  0.00    +0.000 C 
ATOM      4  C   UNL     1       5.805   5.379  14.860  0.00  0.00    +0.000 C 
ATOM      5  C   UNL     1       6.976   6.009  15.603  0.00  0.00    +0.000 C 
ATOM      6  C   UNL     1       6.940   5.904  17.099  0.00  0.00    +0.000 A 
ATOM      7  C   UNL     1       7.966   6.519  17.834  0.00  0.00    +0.000 A 
ATOM      8  C   UNL     1       8.068   6.310  19.203  0.00  0.00    +0.000 A 
ATOM      9  C   UNL     1       7.136   5.484  19.799  0.00  0.00    +0.000 A 
ATOM     10  N   UNL     1       6.115   4.906  19.129  0.00  0.00    +0.000 NA
ATOM     11  C   UNL     1       6.006   5.133  17.796  0.00  0.00    +0.000 A 
ENDBRANCH   1   2
BRANCH   1  12
ATOM     12  S   UNL     1       2.280   3.760  17.669  0.00  0.00    +0.000 S 
ATOM     13  O   UNL     1       0.957   4.219  17.304  0.00  0.00    +0.000 OA
ATOM     14  O   UNL     1       2.819   2.487  17.249  0.00  0.00    +0.000 OA
BRANCH  12  15
ATOM     15  C   UNL     1       2.159   3.589  19.430  0.00  0.00    +0.000 A 
ATOM     16  C   UNL     1       2.788   4.266  20.468  0.00  0.00    +0.000 A 
ATOM     17  C   UNL     1       2.221   3.772  21.648  0.00  0.00    +0.000 A 
ATOM     18  N   UNL     1       1.335   2.802  21.405  0.00  0.00    +0.000 NA
ATOM     19  N   UNL     1       1.343   2.681  20.057  0.00  0.00    +0.000 N 
ATOM     20  C   UNL     1       0.498   1.677  19.458  0.00  0.00    +0.000 C 
ENDBRANCH  12  15
ENDBRANCH   1  12
BRANCH   1  22
ATOM     21  C   UNL     1       3.318   7.507  17.624  0.00  0.00    +0.000 C 
ATOM     22  C   UNL     1       3.395   6.146  18.289  0.00  0.00    +0.000 C 
ENDBRANCH   1  22
TORSDOF 4
ENDMDL
