MODEL 1
REMARK VINA RESULT:      -7.8      0.000      0.000
REMARK  Name = 
REMARK  6 active torsions:
REMARK  status: ('A' for Active; 'I' for Inactive)
REMARK    1  A    between atoms: C_1  and  C_2
REMARK    2  A    between atoms: C_2  and  C_3
REMARK    3  A    between atoms: C_2  and  C_4
REMARK    4  A    between atoms: C_2  and  N_5
REMARK    5  A    between atoms: C_6  and  C_8
REMARK    6  A    between atoms: C_11  and  N_12
REMARK                            x       y       z     vdW  Elec       q    Type
REMARK                         _______ _______ _______ _____ _____    ______ ____
ROOT
ATOM      1  C   UNL     1       5.188   5.084  15.713  0.00  0.00    +0.000 A 
ATOM      2  C   UNL     1       5.251   6.450  15.973  0.00  0.00    +0.000 A 
ATOM      3  C   UNL     1       4.497   6.999  17.016  0.00  0.00    +0.000 A 
ATOM      4  C   UNL     1       3.629   6.220  17.799  0.00  0.00    +0.000 A 
ATOM      5  C   UNL     1       3.577   4.846  17.540  0.00  0.00    +0.000 A 
ATOM      6  C   UNL     1       4.339   4.286  16.494  0.00  0.00    +0.000 A 
ENDROOT
BRANCH   4   7
ATOM      7  N   UNL     1       2.806   6.790  18.820  0.00  0.00    +0.000 N 
ATOM      8  C   UNL     1       2.083   7.944  18.631  0.00  0.00    +0.000 C 
ATOM      9  O   UNL     1       1.996   8.511  17.543  0.00  0.00    +0.000 OA
ATOM     10  N   UNL     1       1.430   8.493  19.702  0.00  0.00    +0.000 N 
ATOM     11  C   UNL     1       0.768   9.765  19.433  0.00  0.00    +0.000 C 
ATOM     12  C   UNL     1       0.168  10.154  20.729  0.00  0.00    +0.000 A 
ATOM     13  C   UNL     1      -0.568  11.297  20.999  0.00  0.00    +0.000 A 
ATOM     14  C   UNL     1      -1.033  11.488  22.296  0.00  0.00    +0.000 A 
ATOM     15  C   UNL     1      -0.754  10.539  23.292  0.00  0.00    +0.000 A 
ATOM     16  C   UNL     1      -0.008   9.385  23.006  0.00  0.00    +0.000 A 
ATOM     17  C   UNL     1       0.454   9.196  21.710  0.00  0.00    +0.000 A 
ATOM     18  C   UNL     1       1.261   8.073  21.101  0.00  0.00    +0.000 C 
ATOM     19  H   UNL     1       2.558   6.204  19.604  0.00  0.00    +0.000 HD
ENDBRANCH   4   7
BRANCH   1  21
ATOM     20  N   UNL     1       5.272   4.113  13.474  0.00  0.00    +0.000 N 
ATOM     21  C   UNL     1       5.985   4.478  14.605  0.00  0.00    +0.000 C 
ATOM     22  O   UNL     1       7.197   4.359  14.729  0.00  0.00    +0.000 OA
ATOM     23  H   UNL     1       4.304   4.399  13.419  0.00  0.00    +0.000 HD
BRANCH  20  25
ATOM     24  C   UNL     1       6.251   2.056  12.488  0.00  0.00    +0.000 C 
ATOM     25  C   UNL     1       5.856   3.523  12.255  0.00  0.00    +0.000 C 
ATOM     26  C   UNL     1       7.072   4.334  11.781  0.00  0.00    +0.000 C 
ATOM     27  C   UNL     1       4.793   3.557  11.138  0.00  0.00    +0.000 C 
ENDBRANCH  20  25
ENDBRANCH   1  21
TORSDOF 3
ENDMDL
MODEL 2
REMARK VINA RESULT:      -7.6      4.066      6.414
REMARK  Name = 
REMARK  6 active torsions:
REMARK  status: ('A' for Active; 'I' for Inactive)
REMARK    1  A    between atoms: C_1  and  C_2
REMARK    2  A    between atoms: C_2  and  C_3
REMARK    3  A    between atoms: C_2  and  C_4
REMARK    4  A    between atoms: C_2  and  N_5
REMARK    5  A    between atoms: C_6  and  C_8
REMARK    6  A    between atoms: C_11  and  N_12
REMARK                            x       y       z     vdW  Elec       q    Type
REMARK                         _______ _______ _______ _____ _____    ______ ____
ROOT
ATOM      1  C   UNL     1       2.304   7.273  19.162  0.00  0.00    +0.000 A 
ATOM      2  C   UNL     1       1.729   7.905  20.261  0.00  0.00    +0.000 A 
ATOM      3  C   UNL     1       1.213   9.198  20.134  0.00  0.00    +0.000 A 
ATOM      4  C   UNL     1       1.290   9.916  18.930  0.00  0.00    +0.000 A 
ATOM      5  C   UNL     1       1.858   9.274  17.825  0.00  0.00    +0.000 A 
ATOM      6  C   UNL     1       2.375   7.967  17.945  0.00  0.00    +0.000 A 
ENDROOT
BRANCH   4   7
ATOM      7  N   UNL     1       0.824  11.264  18.815  0.00  0.00    +0.000 N 
ATOM      8  C   UNL     1       1.663  12.317  18.538  0.00  0.00    +0.000 C 
ATOM      9  O   UNL     1       2.853  12.172  18.256  0.00  0.00    +0.000 OA
ATOM     10  N   UNL     1       1.159  13.589  18.579  0.00  0.00    +0.000 N 
ATOM     11  C   UNL     1       2.138  14.648  18.366  0.00  0.00    +0.000 C 
ATOM     12  C   UNL     1       1.362  15.903  18.482  0.00  0.00    +0.000 A 
ATOM     13  C   UNL     1       1.845  17.197  18.363  0.00  0.00    +0.000 A 
ATOM     14  C   UNL     1       0.949  18.249  18.523  0.00  0.00    +0.000 A 
ATOM     15  C   UNL     1      -0.402  17.989  18.798  0.00  0.00    +0.000 A 
ATOM     16  C   UNL     1      -0.879  16.673  18.916  0.00  0.00    +0.000 A 
ATOM     17  C   UNL     1       0.017  15.625  18.754  0.00  0.00    +0.000 A 
ATOM     18  C   UNL     1      -0.189  14.129  18.813  0.00  0.00    +0.000 C 
ATOM     19  H   UNL     1      -0.167  11.409  18.690  0.00  0.00    +0.000 HD
ENDBRANCH   4   7
BRANCH   1  21
ATOM     20  N   UNL     1       1.958   4.857  19.096  0.00  0.00    +0.000 N 
ATOM     21  C   UNL     1       2.861   5.892  19.276  0.00  0.00    +0.000 C 
ATOM     22  O   UNL     1       4.057   5.739  19.488  0.00  0.00    +0.000 OA
ATOM     23  H   UNL     1       1.030   5.096  18.772  0.00  0.00    +0.000 HD
BRANCH  20  25
ATOM     24  C   UNL     1       2.870   3.029  20.507  0.00  0.00    +0.000 C 
ATOM     25  C   UNL     1       2.291   3.421  19.138  0.00  0.00    +0.000 C 
ATOM     26  C   UNL     1       3.276   3.053  18.018  0.00  0.00    +0.000 C 
ATOM     27  C   UNL     1       0.996   2.611  18.921  0.00  0.00    +0.000 C 
ENDBRANCH  20  25
ENDBRANCH   1  21
TORSDOF 3
ENDMDL
MODEL 3
REMARK VINA RESULT:      -7.6      2.798      5.062
REMARK  Name = 
REMARK  6 active torsions:
REMARK  status: ('A' for Active; 'I' for Inactive)
REMARK    1  A    between atoms: C_1  and  C_2
REMARK    2  A    between atoms: C_2  and  C_3
REMARK    3  A    between atoms: C_2  and  C_4
REMARK    4  A    between atoms: C_2  and  N_5
REMARK    5  A    between atoms: C_6  and  C_8
REMARK    6  A    between atoms: C_11  and  N_12
REMARK                            x       y       z     vdW  Elec       q    Type
REMARK                         _______ _______ _______ _____ _____    ______ ____
ROOT
ATOM      1  C   UNL     1       2.541   7.428  18.678  0.00  0.00    +0.000 A 
ATOM      2  C   UNL     1       1.997   8.524  18.014  0.00  0.00    +0.000 A 
ATOM      3  C   UNL     1       1.171   9.419  18.701  0.00  0.00    +0.000 A 
ATOM      4  C   UNL     1       0.826   9.230  20.049  0.00  0.00    +0.000 A 
ATOM      5  C   UNL     1       1.383   8.133  20.716  0.00  0.00    +0.000 A 
ATOM      6  C   UNL     1       2.223   7.231  20.030  0.00  0.00    +0.000 A 
ENDROOT
BRANCH   4   7
ATOM      7  N   UNL     1      -0.073  10.106  20.736  0.00  0.00    +0.000 N 
ATOM      8  C   UNL     1       0.292  11.364  21.153  0.00  0.00    +0.000 C 
ATOM      9  O   UNL     1       1.375  11.876  20.873  0.00  0.00    +0.000 OA
ATOM     10  N   UNL     1      -0.586  12.082  21.920  0.00  0.00    +0.000 N 
ATOM     11  C   UNL     1      -0.080  13.364  22.398  0.00  0.00    +0.000 C 
ATOM     12  C   UNL     1      -1.186  13.923  23.207  0.00  0.00    +0.000 A 
ATOM     13  C   UNL     1      -1.197  15.133  23.884  0.00  0.00    +0.000 A 
ATOM     14  C   UNL     1      -2.336  15.470  24.607  0.00  0.00    +0.000 A 
ATOM     15  C   UNL     1      -3.435  14.599  24.638  0.00  0.00    +0.000 A 
ATOM     16  C   UNL     1      -3.413  13.377  23.947  0.00  0.00    +0.000 A 
ATOM     17  C   UNL     1      -2.275  13.043  23.226  0.00  0.00    +0.000 A 
ATOM     18  C   UNL     1      -1.956  11.825  22.389  0.00  0.00    +0.000 C 
ATOM     19  H   UNL     1      -1.059   9.894  20.692  0.00  0.00    +0.000 HD
ENDBRANCH   4   7
BRANCH   1  21
ATOM     20  N   UNL     1       4.750   6.843  17.816  0.00  0.00    +0.000 N 
ATOM     21  C   UNL     1       3.426   6.461  17.963  0.00  0.00    +0.000 C 
ATOM     22  O   UNL     1       2.965   5.394  17.575  0.00  0.00    +0.000 OA
ATOM     23  H   UNL     1       5.055   7.670  18.311  0.00  0.00    +0.000 HD
BRANCH  20  25
ATOM     24  C   UNL     1       5.476   5.793  15.688  0.00  0.00    +0.000 C 
ATOM     25  C   UNL     1       5.801   6.036  17.171  0.00  0.00    +0.000 C 
ATOM     26  C   UNL     1       5.992   4.698  17.901  0.00  0.00    +0.000 C 
ATOM     27  C   UNL     1       7.130   6.815  17.244  0.00  0.00    +0.000 C 
ENDBRANCH  20  25
ENDBRANCH   1  21
TORSDOF 3
ENDMDL
MODEL 4
REMARK VINA RESULT:      -7.5      3.127      5.374
REMARK  Name = 
REMARK  6 active torsions:
REMARK  status: ('A' for Active; 'I' for Inactive)
REMARK    1  A    between atoms: C_1  and  C_2
REMARK    2  A    between atoms: C_2  and  C_3
REMARK    3  A    between atoms: C_2  and  C_4
REMARK    4  A    between atoms: C_2  and  N_5
REMARK    5  A    between atoms: C_6  and  C_8
REMARK    6  A    between atoms: C_11  and  N_12
REMARK                            x       y       z     vdW  Elec       q    Type
REMARK                         _______ _______ _______ _____ _____    ______ ____
ROOT
ATOM      1  C   UNL     1       2.494   7.640  18.736  0.00  0.00    +0.000 A 
ATOM      2  C   UNL     1       1.993   8.711  18.002  0.00  0.00    +0.000 A 
ATOM      3  C   UNL     1       1.115   9.621  18.601  0.00  0.00    +0.000 A 
ATOM      4  C   UNL     1       0.677   9.471  19.927  0.00  0.00    +0.000 A 
ATOM      5  C   UNL     1       1.191   8.400  20.665  0.00  0.00    +0.000 A 
ATOM      6  C   UNL     1       2.081   7.482  20.068  0.00  0.00    +0.000 A 
ENDROOT
BRANCH   4   7
ATOM      7  N   UNL     1      -0.272  10.361  20.521  0.00  0.00    +0.000 N 
ATOM      8  C   UNL     1       0.098  11.518  21.165  0.00  0.00    +0.000 C 
ATOM      9  O   UNL     1       1.256  11.935  21.183  0.00  0.00    +0.000 OA
ATOM     10  N   UNL     1      -0.862  12.241  21.820  0.00  0.00    +0.000 N 
ATOM     11  C   UNL     1      -0.366  13.400  22.555  0.00  0.00    +0.000 C 
ATOM     12  C   UNL     1      -1.570  13.987  23.183  0.00  0.00    +0.000 A 
ATOM     13  C   UNL     1      -1.625  15.109  23.996  0.00  0.00    +0.000 A 
ATOM     14  C   UNL     1      -2.863  15.490  24.505  0.00  0.00    +0.000 A 
ATOM     15  C   UNL     1      -4.012  14.747  24.195  0.00  0.00    +0.000 A 
ATOM     16  C   UNL     1      -3.943  13.613  23.371  0.00  0.00    +0.000 A 
ATOM     17  C   UNL     1      -2.707  13.235  22.863  0.00  0.00    +0.000 A 
ATOM     18  C   UNL     1      -2.318  12.089  21.958  0.00  0.00    +0.000 C 
ATOM     19  H   UNL     1      -1.240  10.266  20.247  0.00  0.00    +0.000 HD
ENDBRANCH   4   7
BRANCH   1  21
ATOM     20  N   UNL     1       3.573   5.451  18.781  0.00  0.00    +0.000 N 
ATOM     21  C   UNL     1       3.432   6.658  18.116  0.00  0.00    +0.000 C 
ATOM     22  O   UNL     1       3.995   6.941  17.066  0.00  0.00    +0.000 OA
ATOM     23  H   UNL     1       2.944   5.264  19.550  0.00  0.00    +0.000 HD
BRANCH  20  25
ATOM     24  C   UNL     1       5.905   4.733  18.324  0.00  0.00    +0.000 C 
ATOM     25  C   UNL     1       4.422   4.330  18.337  0.00  0.00    +0.000 C 
ATOM     26  C   UNL     1       3.993   3.833  16.948  0.00  0.00    +0.000 C 
ATOM     27  C   UNL     1       4.256   3.165  19.334  0.00  0.00    +0.000 C 
ENDBRANCH  20  25
ENDBRANCH   1  21
TORSDOF 3
ENDMDL
MODEL 5
REMARK VINA RESULT:      -7.5      6.485      8.537
REMARK  Name = 
REMARK  6 active torsions:
REMARK  status: ('A' for Active; 'I' for Inactive)
REMARK    1  A    between atoms: C_1  and  C_2
REMARK    2  A    between atoms: C_2  and  C_3
REMARK    3  A    between atoms: C_2  and  C_4
REMARK    4  A    between atoms: C_2  and  N_5
REMARK    5  A    between atoms: C_6  and  C_8
REMARK    6  A    between atoms: C_11  and  N_12
REMARK                            x       y       z     vdW  Elec       q    Type
REMARK                         _______ _______ _______ _____ _____    ______ ____
ROOT
ATOM      1  C   UNL     1       6.186   5.833  18.408  0.00  0.00    +0.000 A 
ATOM      2  C   UNL     1       5.792   6.872  17.570  0.00  0.00    +0.000 A 
ATOM      3  C   UNL     1       6.649   7.956  17.349  0.00  0.00    +0.000 A 
ATOM      4  C   UNL     1       7.897   8.060  17.984  0.00  0.00    +0.000 A 
ATOM      5  C   UNL     1       8.294   7.008  18.816  0.00  0.00    +0.000 A 
ATOM      6  C   UNL     1       7.437   5.910  19.038  0.00  0.00    +0.000 A 
ENDROOT
BRANCH   4   7
ATOM      7  N   UNL     1       8.746   9.199  17.813  0.00  0.00    +0.000 N 
ATOM      8  C   UNL     1       9.116  10.010  18.859  0.00  0.00    +0.000 C 
ATOM      9  O   UNL     1       8.844   9.759  20.032  0.00  0.00    +0.000 OA
ATOM     10  N   UNL     1       9.818  11.154  18.587  0.00  0.00    +0.000 N 
ATOM     11  C   UNL     1      10.086  12.002  19.743  0.00  0.00    +0.000 C 
ATOM     12  C   UNL     1      10.821  13.163  19.192  0.00  0.00    +0.000 A 
ATOM     13  C   UNL     1      11.298  14.259  19.895  0.00  0.00    +0.000 A 
ATOM     14  C   UNL     1      11.952  15.259  19.183  0.00  0.00    +0.000 A 
ATOM     15  C   UNL     1      12.116  15.146  17.795  0.00  0.00    +0.000 A 
ATOM     16  C   UNL     1      11.628  14.031  17.095  0.00  0.00    +0.000 A 
ATOM     17  C   UNL     1      10.977  13.033  17.807  0.00  0.00    +0.000 A 
ATOM     18  C   UNL     1      10.360  11.732  17.347  0.00  0.00    +0.000 C 
ATOM     19  H   UNL     1       9.279   9.263  16.958  0.00  0.00    +0.000 HD
ENDBRANCH   4   7
BRANCH   1  21
ATOM     20  N   UNL     1       3.969   4.821  18.262  0.00  0.00    +0.000 N 
ATOM     21  C   UNL     1       5.288   4.666  18.657  0.00  0.00    +0.000 C 
ATOM     22  O   UNL     1       5.747   3.646  19.157  0.00  0.00    +0.000 OA
ATOM     23  H   UNL     1       3.736   5.641  17.720  0.00  0.00    +0.000 HD
BRANCH  20  25
ATOM     24  C   UNL     1       2.582   3.526  19.863  0.00  0.00    +0.000 C 
ATOM     25  C   UNL     1       2.918   3.794  18.387  0.00  0.00    +0.000 C 
ATOM     26  C   UNL     1       3.339   2.490  17.691  0.00  0.00    +0.000 C 
ATOM     27  C   UNL     1       1.640   4.314  17.697  0.00  0.00    +0.000 C 
ENDBRANCH  20  25
ENDBRANCH   1  21
TORSDOF 3
ENDMDL
MODEL 6
REMARK VINA RESULT:      -7.5      4.032      6.283
REMARK  Name = 
REMARK  6 active torsions:
REMARK  status: ('A' for Active; 'I' for Inactive)
REMARK    1  A    between atoms: C_1  and  C_2
REMARK    2  A    between atoms: C_2  and  C_3
REMARK    3  A    between atoms: C_2  and  C_4
REMARK    4  A    between atoms: C_2  and  N_5
REMARK    5  A    between atoms: C_6  and  C_8
REMARK    6  A    between atoms: C_11  and  N_12
REMARK                            x       y       z     vdW  Elec       q    Type
REMARK                         _______ _______ _______ _____ _____    ______ ____
ROOT
ATOM      1  C   UNL     1       2.117   7.528  19.095  0.00  0.00    +0.000 A 
ATOM      2  C   UNL     1       2.243   8.209  17.888  0.00  0.00    +0.000 A 
ATOM      3  C   UNL     1       1.832   9.543  17.791  0.00  0.00    +0.000 A 
ATOM      4  C   UNL     1       1.245  10.222  18.872  0.00  0.00    +0.000 A 
ATOM      5  C   UNL     1       1.129   9.537  20.086  0.00  0.00    +0.000 A 
ATOM      6  C   UNL     1       1.549   8.194  20.192  0.00  0.00    +0.000 A 
ENDROOT
BRANCH   4   7
ATOM      7  N   UNL     1       0.761  11.563  18.756  0.00  0.00    +0.000 N 
ATOM      8  C   UNL     1       1.598  12.642  18.599  0.00  0.00    +0.000 C 
ATOM      9  O   UNL     1       2.813  12.531  18.434  0.00  0.00    +0.000 OA
ATOM     10  N   UNL     1       1.061  13.901  18.632  0.00  0.00    +0.000 N 
ATOM     11  C   UNL     1       2.032  14.987  18.554  0.00  0.00    +0.000 C 
ATOM     12  C   UNL     1       1.218  16.221  18.633  0.00  0.00    +0.000 A 
ATOM     13  C   UNL     1       1.679  17.528  18.606  0.00  0.00    +0.000 A 
ATOM     14  C   UNL     1       0.746  18.555  18.710  0.00  0.00    +0.000 A 
ATOM     15  C   UNL     1      -0.619  18.257  18.838  0.00  0.00    +0.000 A 
ATOM     16  C   UNL     1      -1.073  16.929  18.863  0.00  0.00    +0.000 A 
ATOM     17  C   UNL     1      -0.140  15.906  18.758  0.00  0.00    +0.000 A 
ATOM     18  C   UNL     1      -0.316  14.405  18.746  0.00  0.00    +0.000 C 
ATOM     19  H   UNL     1      -0.216  11.692  18.536  0.00  0.00    +0.000 HD
ENDBRANCH   4   7
BRANCH   1  21
ATOM     20  N   UNL     1       3.149   5.551  18.101  0.00  0.00    +0.000 N 
ATOM     21  C   UNL     1       2.550   6.104  19.221  0.00  0.00    +0.000 C 
ATOM     22  O   UNL     1       2.388   5.515  20.283  0.00  0.00    +0.000 OA
ATOM     23  H   UNL     1       3.373   6.172  17.335  0.00  0.00    +0.000 HD
BRANCH  20  25
ATOM     24  C   UNL     1       2.534   3.148  18.014  0.00  0.00    +0.000 C 
ATOM     25  C   UNL     1       3.676   4.177  18.010  0.00  0.00    +0.000 C 
ATOM     26  C   UNL     1       4.658   3.888  19.156  0.00  0.00    +0.000 C 
ATOM     27  C   UNL     1       4.440   4.033  16.677  0.00  0.00    +0.000 C 
ENDBRANCH  20  25
ENDBRANCH   1  21
TORSDOF 3
ENDMDL
MODEL 7
REMARK VINA RESULT:      -7.4      3.202      5.608
REMARK  Name = 
REMARK  6 active torsions:
REMARK  status: ('A' for Active; 'I' for Inactive)
REMARK    1  A    between atoms: C_1  and  C_2
REMARK    2  A    between atoms: C_2  and  C_3
REMARK    3  A    between atoms: C_2  and  C_4
REMARK    4  A    between atoms: C_2  and  N_5
REMARK    5  A    between atoms: C_6  and  C_8
REMARK    6  A    between atoms: C_11  and  N_12
REMARK                            x       y       z     vdW  Elec       q    Type
REMARK                         _______ _______ _______ _____ _____    ______ ____
ROOT
ATOM      1  C   UNL     1       2.331   7.553  19.132  0.00  0.00    +0.000 A 
ATOM      2  C   UNL     1       1.934   7.317  20.445  0.00  0.00    +0.000 A 
ATOM      3  C   UNL     1       1.033   8.185  21.070  0.00  0.00    +0.000 A 
ATOM      4  C   UNL     1       0.535   9.332  20.429  0.00  0.00    +0.000 A 
ATOM      5  C   UNL     1       0.929   9.560  19.106  0.00  0.00    +0.000 A 
ATOM      6  C   UNL     1       1.832   8.684  18.468  0.00  0.00    +0.000 A 
ENDROOT
BRANCH   4   7
ATOM      7  N   UNL     1      -0.332  10.258  21.089  0.00  0.00    +0.000 N 
ATOM      8  C   UNL     1       0.059  11.534  21.419  0.00  0.00    +0.000 C 
ATOM      9  O   UNL     1       1.137  12.016  21.074  0.00  0.00    +0.000 OA
ATOM     10  N   UNL     1      -0.786  12.307  22.168  0.00  0.00    +0.000 N 
ATOM     11  C   UNL     1      -0.253  13.610  22.552  0.00  0.00    +0.000 C 
ATOM     12  C   UNL     1      -1.326  14.229  23.360  0.00  0.00    +0.000 A 
ATOM     13  C   UNL     1      -1.302  15.477  23.964  0.00  0.00    +0.000 A 
ATOM     14  C   UNL     1      -2.415  15.871  24.700  0.00  0.00    +0.000 A 
ATOM     15  C   UNL     1      -3.521  15.017  24.819  0.00  0.00    +0.000 A 
ATOM     16  C   UNL     1      -3.533  13.756  24.202  0.00  0.00    +0.000 A 
ATOM     17  C   UNL     1      -2.422  13.365  23.467  0.00  0.00    +0.000 A 
ATOM     18  C   UNL     1      -2.143  12.096  22.695  0.00  0.00    +0.000 C 
ATOM     19  H   UNL     1      -1.321  10.056  21.090  0.00  0.00    +0.000 HD
ENDBRANCH   4   7
BRANCH   1  21
ATOM     20  N   UNL     1       3.477   5.399  19.035  0.00  0.00    +0.000 N 
ATOM     21  C   UNL     1       3.292   6.639  18.445  0.00  0.00    +0.000 C 
ATOM     22  O   UNL     1       3.835   7.002  17.409  0.00  0.00    +0.000 OA
ATOM     23  H   UNL     1       2.862   5.147  19.796  0.00  0.00    +0.000 HD
BRANCH  20  25
ATOM     24  C   UNL     1       5.828   4.767  18.552  0.00  0.00    +0.000 C 
ATOM     25  C   UNL     1       4.354   4.334  18.516  0.00  0.00    +0.000 C 
ATOM     26  C   UNL     1       3.949   3.936  17.088  0.00  0.00    +0.000 C 
ATOM     27  C   UNL     1       4.202   3.092  19.419  0.00  0.00    +0.000 C 
ENDBRANCH  20  25
ENDBRANCH   1  21
TORSDOF 3
ENDMDL
MODEL 8
REMARK VINA RESULT:      -7.4      3.609     10.883
REMARK  Name = 
REMARK  6 active torsions:
REMARK  status: ('A' for Active; 'I' for Inactive)
REMARK    1  A    between atoms: C_1  and  C_2
REMARK    2  A    between atoms: C_2  and  C_3
REMARK    3  A    between atoms: C_2  and  C_4
REMARK    4  A    between atoms: C_2  and  N_5
REMARK    5  A    between atoms: C_6  and  C_8
REMARK    6  A    between atoms: C_11  and  N_12
REMARK                            x       y       z     vdW  Elec       q    Type
REMARK                         _______ _______ _______ _____ _____    ______ ____
ROOT
ATOM      1  C   UNL     1      -0.678  11.683  22.467  0.00  0.00    +0.000 A 
ATOM      2  C   UNL     1       0.176  11.637  21.369  0.00  0.00    +0.000 A 
ATOM      3  C   UNL     1       0.775  10.429  20.998  0.00  0.00    +0.000 A 
ATOM      4  C   UNL     1       0.579   9.245  21.729  0.00  0.00    +0.000 A 
ATOM      5  C   UNL     1      -0.288   9.293  22.825  0.00  0.00    +0.000 A 
ATOM      6  C   UNL     1      -0.900  10.508  23.200  0.00  0.00    +0.000 A 
ENDROOT
BRANCH   4   7
ATOM      7  N   UNL     1       1.244   8.024  21.393  0.00  0.00    +0.000 N 
ATOM      8  C   UNL     1       1.708   7.757  20.126  0.00  0.00    +0.000 C 
ATOM      9  O   UNL     1       1.692   8.586  19.217  0.00  0.00    +0.000 OA
ATOM     10  N   UNL     1       2.210   6.512  19.859  0.00  0.00    +0.000 N 
ATOM     11  C   UNL     1       2.591   6.286  18.469  0.00  0.00    +0.000 C 
ATOM     12  C   UNL     1       3.071   4.887  18.436  0.00  0.00    +0.000 A 
ATOM     13  C   UNL     1       3.542   4.191  17.333  0.00  0.00    +0.000 A 
ATOM     14  C   UNL     1       3.932   2.868  17.510  0.00  0.00    +0.000 A 
ATOM     15  C   UNL     1       3.845   2.269  18.776  0.00  0.00    +0.000 A 
ATOM     16  C   UNL     1       3.366   2.985  19.885  0.00  0.00    +0.000 A 
ATOM     17  C   UNL     1       2.978   4.306  19.707  0.00  0.00    +0.000 A 
ATOM     18  C   UNL     1       2.440   5.320  20.690  0.00  0.00    +0.000 C 
ATOM     19  H   UNL     1       1.597   7.457  22.150  0.00  0.00    +0.000 HD
ENDBRANCH   4   7
BRANCH   1  21
ATOM     20  N   UNL     1      -2.573  13.217  22.328  0.00  0.00    +0.000 N 
ATOM     21  C   UNL     1      -1.328  12.963  22.880  0.00  0.00    +0.000 C 
ATOM     22  O   UNL     1      -0.763  13.695  23.684  0.00  0.00    +0.000 OA
ATOM     23  H   UNL     1      -3.011  12.473  21.801  0.00  0.00    +0.000 HD
BRANCH  20  25
ATOM     24  C   UNL     1      -2.683  15.693  22.199  0.00  0.00    +0.000 C 
ATOM     25  C   UNL     1      -3.404  14.401  22.613  0.00  0.00    +0.000 C 
ATOM     26  C   UNL     1      -3.787  14.457  24.100  0.00  0.00    +0.000 C 
ATOM     27  C   UNL     1      -4.703  14.297  21.788  0.00  0.00    +0.000 C 
ENDBRANCH  20  25
ENDBRANCH   1  21
TORSDOF 3
ENDMDL
MODEL 9
REMARK VINA RESULT:      -7.4      3.609     11.017
REMARK  Name = 
REMARK  6 active torsions:
REMARK  status: ('A' for Active; 'I' for Inactive)
REMARK    1  A    between atoms: C_1  and  C_2
REMARK    2  A    between atoms: C_2  and  C_3
REMARK    3  A    between atoms: C_2  and  C_4
REMARK    4  A    between atoms: C_2  and  N_5
REMARK    5  A    between atoms: C_6  and  C_8
REMARK    6  A    between atoms: C_11  and  N_12
REMARK                            x       y       z     vdW  Elec       q    Type
REMARK                         _______ _______ _______ _____ _____    ______ ____
ROOT
ATOM      1  C   UNL     1      -0.695  11.627  22.467  0.00  0.00    +0.000 A 
ATOM      2  C   UNL     1      -0.944  10.470  23.199  0.00  0.00    +0.000 A 
ATOM      3  C   UNL     1      -0.272   9.285  22.885  0.00  0.00    +0.000 A 
ATOM      4  C   UNL     1       0.631   9.202  21.811  0.00  0.00    +0.000 A 
ATOM      5  C   UNL     1       0.886  10.370  21.085  0.00  0.00    +0.000 A 
ATOM      6  C   UNL     1       0.215  11.570  21.401  0.00  0.00    +0.000 A 
ENDROOT
BRANCH   4   7
ATOM      7  N   UNL     1       1.268   7.975  21.445  0.00  0.00    +0.000 N 
ATOM      8  C   UNL     1       1.732   7.732  20.174  0.00  0.00    +0.000 C 
ATOM      9  O   UNL     1       1.739   8.586  19.287  0.00  0.00    +0.000 OA
ATOM     10  N   UNL     1       2.206   6.484  19.875  0.00  0.00    +0.000 N 
ATOM     11  C   UNL     1       2.588   6.287  18.481  0.00  0.00    +0.000 C 
ATOM     12  C   UNL     1       3.035   4.878  18.412  0.00  0.00    +0.000 A 
ATOM     13  C   UNL     1       3.495   4.201  17.292  0.00  0.00    +0.000 A 
ATOM     14  C   UNL     1       3.853   2.865  17.434  0.00  0.00    +0.000 A 
ATOM     15  C   UNL     1       3.745   2.235  18.682  0.00  0.00    +0.000 A 
ATOM     16  C   UNL     1       3.279   2.930  19.809  0.00  0.00    +0.000 A 
ATOM     17  C   UNL     1       2.923   4.265  19.665  0.00  0.00    +0.000 A 
ATOM     18  C   UNL     1       2.404   5.264  20.673  0.00  0.00    +0.000 C 
ATOM     19  H   UNL     1       1.604   7.380  22.188  0.00  0.00    +0.000 HD
ENDBRANCH   4   7
BRANCH   1  21
ATOM     20  N   UNL     1      -2.737  12.787  23.137  0.00  0.00    +0.000 N 
ATOM     21  C   UNL     1      -1.402  12.904  22.787  0.00  0.00    +0.000 C 
ATOM     22  O   UNL     1      -0.784  13.961  22.753  0.00  0.00    +0.000 OA
ATOM     23  H   UNL     1      -3.102  11.856  23.284  0.00  0.00    +0.000 HD
BRANCH  20  25
ATOM     24  C   UNL     1      -5.042  13.413  23.814  0.00  0.00    +0.000 C 
ATOM     25  C   UNL     1      -3.618  13.907  23.516  0.00  0.00    +0.000 C 
ATOM     26  C   UNL     1      -3.645  14.980  22.416  0.00  0.00    +0.000 C 
ATOM     27  C   UNL     1      -3.061  14.554  24.801  0.00  0.00    +0.000 C 
ENDBRANCH  20  25
ENDBRANCH   1  21
TORSDOF 3
ENDMDL
