MODEL 1
REMARK VINA RESULT:      -7.4      0.000      0.000
REMARK  Name = 
REMARK  8 active torsions:
REMARK  status: ('A' for Active; 'I' for Inactive)
REMARK    1  A    between atoms: C_1  and  C_2
REMARK    2  A    between atoms: C_7  and  C_8
REMARK    3  A    between atoms: C_8  and  C_9
REMARK    4  A    between atoms: C_8  and  N_18
REMARK    5  A    between atoms: N_11  and  C_12
REMARK    6  A    between atoms: N_18  and  C_27
REMARK    7  A    between atoms: C_19  and  C_21
REMARK    8  A    between atoms: C_21  and  C_22
REMARK                            x       y       z     vdW  Elec       q    Type
REMARK                         _______ _______ _______ _____ _____    ______ ____
ROOT
ATOM      1  C   UNL     1      -0.257  10.493  19.920  0.00  0.00    +0.000 C 
ENDROOT
BRANCH   1   8
ATOM      2  C   UNL     1       0.897   8.148  21.620  0.00  0.00    +0.000 C 
ATOM      3  C   UNL     1       1.256   8.398  20.178  0.00  0.00    +0.000 A 
ATOM      4  C   UNL     1       2.048   7.434  19.526  0.00  0.00    +0.000 A 
ATOM      5  C   UNL     1       2.588   7.682  18.270  0.00  0.00    +0.000 A 
ATOM      6  C   UNL     1       2.468   8.949  17.730  0.00  0.00    +0.000 A 
ATOM      7  C   UNL     1       1.697   9.907  18.380  0.00  0.00    +0.000 A 
ATOM      8  C   UNL     1       0.918   9.595  19.504  0.00  0.00    +0.000 A 
ENDBRANCH   1   8
BRANCH   1   9
ATOM      9  C   UNL     1      -0.175  11.040  21.369  0.00  0.00    +0.000 C 
ATOM     10  O   UNL     1       0.872  11.058  22.012  0.00  0.00    +0.000 OA
ATOM     11  N   UNL     1      -1.350  11.571  21.844  0.00  0.00    +0.000 N 
ATOM     12  H   UNL     1      -2.186  11.237  21.396  0.00  0.00    +0.000 HD
BRANCH  11  13
ATOM     13  C   UNL     1      -1.535  12.145  23.168  0.00  0.00    +0.000 C 
ATOM     14  C   UNL     1      -1.061  13.608  23.147  0.00  0.00    +0.000 C 
ATOM     15  C   UNL     1      -1.977  14.513  22.312  0.00  0.00    +0.000 C 
ATOM     16  C   UNL     1      -3.443  14.392  22.724  0.00  0.00    +0.000 C 
ATOM     17  C   UNL     1      -3.911  12.938  22.740  0.00  0.00    +0.000 C 
ATOM     18  C   UNL     1      -3.003  12.058  23.599  0.00  0.00    +0.000 C 
ENDBRANCH  11  13
ENDBRANCH   1   9
BRANCH   1  19
ATOM     19  N   UNL     1      -0.690  11.522  18.853  0.00  0.00    +0.000 N 
ATOM     20  C   UNL     1      -0.112  12.768  18.508  0.00  0.00    +0.000 C 
ATOM     21  O   UNL     1      -0.527  13.445  17.554  0.00  0.00    +0.000 OA
BRANCH  19  22
ATOM     22  C   UNL     1      -1.923  11.178  18.150  0.00  0.00    +0.000 A 
ATOM     23  C   UNL     1      -3.161  11.720  18.545  0.00  0.00    +0.000 A 
ATOM     24  C   UNL     1      -4.320  11.493  17.799  0.00  0.00    +0.000 A 
ATOM     25  C   UNL     1      -4.278  10.696  16.659  0.00  0.00    +0.000 A 
ATOM     26  C   UNL     1      -3.073  10.126  16.282  0.00  0.00    +0.000 A 
ATOM     27  F   UNL     1      -3.026   9.353  15.188  0.00  0.00    +0.000 F 
ATOM     28  C   UNL     1      -1.908  10.357  17.012  0.00  0.00    +0.000 A 
ENDBRANCH  19  22
BRANCH  20  29
ATOM     29  C   UNL     1       0.891  13.470  19.397  0.00  0.00    +0.000 C 
BRANCH  29  30
ATOM     30  C   UNL     1       1.113  14.919  19.128  0.00  0.00    +0.000 A 
ATOM     31  C   UNL     1       0.354  16.006  19.525  0.00  0.00    +0.000 A 
ATOM     32  S   UNL     1       1.087  17.467  19.008  0.00  0.00    +0.000 S 
ATOM     33  C   UNL     1       2.355  16.559  18.303  0.00  0.00    +0.000 A 
ATOM     34  N   UNL     1       2.261  15.253  18.415  0.00  0.00    +0.000 NA
ENDBRANCH  29  30
ENDBRANCH  20  29
ENDBRANCH   1  19
TORSDOF 7
ENDMDL
MODEL 2
REMARK VINA RESULT:      -7.3      1.026      1.332
REMARK  Name = 
REMARK  8 active torsions:
REMARK  status: ('A' for Active; 'I' for Inactive)
REMARK    1  A    between atoms: C_1  and  C_2
REMARK    2  A    between atoms: C_7  and  C_8
REMARK    3  A    between atoms: C_8  and  C_9
REMARK    4  A    between atoms: C_8  and  N_18
REMARK    5  A    between atoms: N_11  and  C_12
REMARK    6  A    between atoms: N_18  and  C_27
REMARK    7  A    between atoms: C_19  and  C_21
REMARK    8  A    between atoms: C_21  and  C_22
REMARK                            x       y       z     vdW  Elec       q    Type
REMARK                         _______ _______ _______ _____ _____    ______ ____
ROOT
ATOM      1  C   UNL     1      -0.221  10.478  19.914  0.00  0.00    +0.000 C 
ENDROOT
BRANCH   1   8
ATOM      2  C   UNL     1       0.912   8.106  21.592  0.00  0.00    +0.000 C 
ATOM      3  C   UNL     1       1.282   8.374  20.155  0.00  0.00    +0.000 A 
ATOM      4  C   UNL     1       2.074   7.415  19.497  0.00  0.00    +0.000 A 
ATOM      5  C   UNL     1       2.623   7.677  18.248  0.00  0.00    +0.000 A 
ATOM      6  C   UNL     1       2.512   8.951  17.723  0.00  0.00    +0.000 A 
ATOM      7  C   UNL     1       1.741   9.904  18.380  0.00  0.00    +0.000 A 
ATOM      8  C   UNL     1       0.953   9.580  19.495  0.00  0.00    +0.000 A 
ENDBRANCH   1   8
BRANCH   1   9
ATOM      9  C   UNL     1      -0.145  11.008  21.370  0.00  0.00    +0.000 C 
ATOM     10  O   UNL     1       0.891  10.987  22.030  0.00  0.00    +0.000 OA
ATOM     11  N   UNL     1      -1.311  11.570  21.833  0.00  0.00    +0.000 N 
ATOM     12  H   UNL     1      -2.150  11.266  21.369  0.00  0.00    +0.000 HD
BRANCH  11  13
ATOM     13  C   UNL     1      -1.500  12.135  23.160  0.00  0.00    +0.000 C 
ATOM     14  C   UNL     1      -1.062  13.609  23.139  0.00  0.00    +0.000 C 
ATOM     15  C   UNL     1      -2.005  14.494  22.314  0.00  0.00    +0.000 C 
ATOM     16  C   UNL     1      -3.465  14.336  22.737  0.00  0.00    +0.000 C 
ATOM     17  C   UNL     1      -3.898  12.871  22.752  0.00  0.00    +0.000 C 
ATOM     18  C   UNL     1      -2.962  12.011  23.602  0.00  0.00    +0.000 C 
ENDBRANCH  11  13
ENDBRANCH   1   9
BRANCH   1  19
ATOM     19  N   UNL     1      -0.644  11.522  18.858  0.00  0.00    +0.000 N 
ATOM     20  C   UNL     1      -0.067  12.775  18.540  0.00  0.00    +0.000 C 
ATOM     21  O   UNL     1      -0.472  13.465  17.590  0.00  0.00    +0.000 OA
BRANCH  19  22
ATOM     22  C   UNL     1      -1.865  11.183  18.132  0.00  0.00    +0.000 A 
ATOM     23  C   UNL     1      -1.841  10.286  17.046  0.00  0.00    +0.000 A 
ATOM     24  C   UNL     1      -3.022   9.864  16.432  0.00  0.00    +0.000 A 
ATOM     25  C   UNL     1      -4.253  10.349  16.865  0.00  0.00    +0.000 A 
ATOM     26  C   UNL     1      -4.286  11.261  17.907  0.00  0.00    +0.000 A 
ATOM     27  F   UNL     1      -5.467  11.737  18.326  0.00  0.00    +0.000 F 
ATOM     28  C   UNL     1      -3.115  11.679  18.535  0.00  0.00    +0.000 A 
ENDBRANCH  19  22
BRANCH  20  29
ATOM     29  C   UNL     1       0.921  13.468  19.454  0.00  0.00    +0.000 C 
BRANCH  29  30
ATOM     30  C   UNL     1       1.776  14.516  18.829  0.00  0.00    +0.000 A 
ATOM     31  C   UNL     1       1.626  15.892  18.850  0.00  0.00    +0.000 A 
ATOM     32  S   UNL     1       2.929  16.647  18.031  0.00  0.00    +0.000 S 
ATOM     33  C   UNL     1       3.600  15.105  17.715  0.00  0.00    +0.000 A 
ATOM     34  N   UNL     1       2.916  14.075  18.162  0.00  0.00    +0.000 NA
ENDBRANCH  29  30
ENDBRANCH  20  29
ENDBRANCH   1  19
TORSDOF 7
ENDMDL
MODEL 3
REMARK VINA RESULT:      -7.2      2.930      6.213
REMARK  Name = 
REMARK  8 active torsions:
REMARK  status: ('A' for Active; 'I' for Inactive)
REMARK    1  A    between atoms: C_1  and  C_2
REMARK    2  A    between atoms: C_7  and  C_8
REMARK    3  A    between atoms: C_8  and  C_9
REMARK    4  A    between atoms: C_8  and  N_18
REMARK    5  A    between atoms: N_11  and  C_12
REMARK    6  A    between atoms: N_18  and  C_27
REMARK    7  A    between atoms: C_19  and  C_21
REMARK    8  A    between atoms: C_21  and  C_22
REMARK                            x       y       z     vdW  Elec       q    Type
REMARK                         _______ _______ _______ _____ _____    ______ ____
ROOT
ATOM      1  C   UNL     1      -1.490  12.767  19.146  0.00  0.00    +0.000 C 
ENDROOT
BRANCH   1   8
ATOM      2  C   UNL     1      -4.312  13.300  20.362  0.00  0.00    +0.000 C 
ATOM      3  C   UNL     1      -3.133  12.802  21.158  0.00  0.00    +0.000 A 
ATOM      4  C   UNL     1      -3.362  12.424  22.495  0.00  0.00    +0.000 A 
ATOM      5  C   UNL     1      -2.302  12.149  23.351  0.00  0.00    +0.000 A 
ATOM      6  C   UNL     1      -1.013  12.400  22.920  0.00  0.00    +0.000 A 
ATOM      7  C   UNL     1      -0.787  12.787  21.604  0.00  0.00    +0.000 A 
ATOM      8  C   UNL     1      -1.814  12.802  20.649  0.00  0.00    +0.000 A 
ENDBRANCH   1   8
BRANCH   1   9
ATOM      9  C   UNL     1      -0.357  13.730  18.704  0.00  0.00    +0.000 C 
ATOM     10  O   UNL     1       0.689  13.333  18.195  0.00  0.00    +0.000 OA
ATOM     11  N   UNL     1      -0.651  15.064  18.859  0.00  0.00    +0.000 N 
ATOM     12  H   UNL     1      -1.356  15.273  19.545  0.00  0.00    +0.000 HD
BRANCH  11  13
ATOM     13  C   UNL     1       0.240  16.163  18.522  0.00  0.00    +0.000 C 
ATOM     14  C   UNL     1      -0.575  17.271  17.833  0.00  0.00    +0.000 C 
ATOM     15  C   UNL     1      -1.545  17.972  18.792  0.00  0.00    +0.000 C 
ATOM     16  C   UNL     1      -0.849  18.475  20.056  0.00  0.00    +0.000 C 
ATOM     17  C   UNL     1      -0.044  17.371  20.739  0.00  0.00    +0.000 C 
ATOM     18  C   UNL     1       0.937  16.703  19.775  0.00  0.00    +0.000 C 
ENDBRANCH  11  13
ENDBRANCH   1   9
BRANCH   1  19
ATOM     19  N   UNL     1      -1.424  11.351  18.535  0.00  0.00    +0.000 N 
ATOM     20  C   UNL     1      -2.069  10.828  17.388  0.00  0.00    +0.000 C 
ATOM     21  O   UNL     1      -1.839   9.682  16.968  0.00  0.00    +0.000 OA
BRANCH  19  22
ATOM     22  C   UNL     1      -0.628  10.400  19.305  0.00  0.00    +0.000 A 
ATOM     23  C   UNL     1       0.715  10.138  18.972  0.00  0.00    +0.000 A 
ATOM     24  C   UNL     1       1.514   9.325  19.780  0.00  0.00    +0.000 A 
ATOM     25  C   UNL     1       0.986   8.731  20.922  0.00  0.00    +0.000 A 
ATOM     26  C   UNL     1      -0.345   8.951  21.239  0.00  0.00    +0.000 A 
ATOM     27  F   UNL     1      -0.863   8.377  22.334  0.00  0.00    +0.000 F 
ATOM     28  C   UNL     1      -1.148   9.769  20.447  0.00  0.00    +0.000 A 
ENDBRANCH  19  22
BRANCH  20  29
ATOM     29  C   UNL     1      -3.238  11.525  16.726  0.00  0.00    +0.000 C 
BRANCH  29  30
ATOM     30  C   UNL     1      -4.571  11.331  17.365  0.00  0.00    +0.000 A 
ATOM     31  C   UNL     1      -4.970  10.369  18.276  0.00  0.00    +0.000 A 
ATOM     32  S   UNL     1      -6.596  10.633  18.749  0.00  0.00    +0.000 S 
ATOM     33  C   UNL     1      -6.653  12.001  17.723  0.00  0.00    +0.000 A 
ATOM     34  N   UNL     1      -5.556  12.262  17.047  0.00  0.00    +0.000 NA
ENDBRANCH  29  30
ENDBRANCH  20  29
ENDBRANCH   1  19
TORSDOF 7
ENDMDL
MODEL 4
REMARK VINA RESULT:      -7.2      2.232      5.249
REMARK  Name = 
REMARK  8 active torsions:
REMARK  status: ('A' for Active; 'I' for Inactive)
REMARK    1  A    between atoms: C_1  and  C_2
REMARK    2  A    between atoms: C_7  and  C_8
REMARK    3  A    between atoms: C_8  and  C_9
REMARK    4  A    between atoms: C_8  and  N_18
REMARK    5  A    between atoms: N_11  and  C_12
REMARK    6  A    between atoms: N_18  and  C_27
REMARK    7  A    between atoms: C_19  and  C_21
REMARK    8  A    between atoms: C_21  and  C_22
REMARK                            x       y       z     vdW  Elec       q    Type
REMARK                         _______ _______ _______ _____ _____    ______ ____
ROOT
ATOM      1  C   UNL     1      -1.725  11.605  19.748  0.00  0.00    +0.000 C 
ENDROOT
BRANCH   1   8
ATOM      2  C   UNL     1      -1.235  11.079  22.782  0.00  0.00    +0.000 C 
ATOM      3  C   UNL     1      -1.711  12.395  22.222  0.00  0.00    +0.000 A 
ATOM      4  C   UNL     1      -1.802  13.486  23.107  0.00  0.00    +0.000 A 
ATOM      5  C   UNL     1      -2.418  14.670  22.721  0.00  0.00    +0.000 A 
ATOM      6  C   UNL     1      -3.080  14.714  21.508  0.00  0.00    +0.000 A 
ATOM      7  C   UNL     1      -3.002  13.632  20.639  0.00  0.00    +0.000 A 
ATOM      8  C   UNL     1      -2.159  12.540  20.888  0.00  0.00    +0.000 A 
ENDBRANCH   1   8
BRANCH   1   9
ATOM      9  C   UNL     1      -2.703  11.551  18.545  0.00  0.00    +0.000 C 
ATOM     10  O   UNL     1      -2.326  11.635  17.379  0.00  0.00    +0.000 OA
ATOM     11  N   UNL     1      -4.015  11.325  18.889  0.00  0.00    +0.000 N 
ATOM     12  H   UNL     1      -4.264  11.580  19.830  0.00  0.00    +0.000 HD
BRANCH  11  13
ATOM     13  C   UNL     1      -5.123  11.233  17.951  0.00  0.00    +0.000 C 
ATOM     14  C   UNL     1      -6.232  10.369  18.575  0.00  0.00    +0.000 C 
ATOM     15  C   UNL     1      -6.918  11.058  19.762  0.00  0.00    +0.000 C 
ATOM     16  C   UNL     1      -7.413  12.460  19.412  0.00  0.00    +0.000 C 
ATOM     17  C   UNL     1      -6.308  13.316  18.796  0.00  0.00    +0.000 C 
ATOM     18  C   UNL     1      -5.655  12.626  17.598  0.00  0.00    +0.000 C 
ENDBRANCH  11  13
ENDBRANCH   1   9
BRANCH   1  19
ATOM     19  N   UNL     1      -0.230  11.697  19.373  0.00  0.00    +0.000 N 
ATOM     20  C   UNL     1       0.556  12.829  19.050  0.00  0.00    +0.000 C 
ATOM     21  O   UNL     1       1.781  12.749  18.860  0.00  0.00    +0.000 OA
BRANCH  19  22
ATOM     22  C   UNL     1       0.446  10.406  19.274  0.00  0.00    +0.000 A 
ATOM     23  C   UNL     1       0.969   9.951  18.048  0.00  0.00    +0.000 A 
ATOM     24  C   UNL     1       1.725   8.779  17.975  0.00  0.00    +0.000 A 
ATOM     25  C   UNL     1       1.951   8.015  19.117  0.00  0.00    +0.000 A 
ATOM     26  C   UNL     1       1.409   8.433  20.322  0.00  0.00    +0.000 A 
ATOM     27  F   UNL     1       1.617   7.700  21.425  0.00  0.00    +0.000 F 
ATOM     28  C   UNL     1       0.664   9.607  20.408  0.00  0.00    +0.000 A 
ENDBRANCH  19  22
BRANCH  20  29
ATOM     29  C   UNL     1      -0.057  14.166  18.692  0.00  0.00    +0.000 C 
BRANCH  29  30
ATOM     30  C   UNL     1       0.528  15.362  19.361  0.00  0.00    +0.000 A 
ATOM     31  C   UNL     1       0.447  15.746  20.688  0.00  0.00    +0.000 A 
ATOM     32  S   UNL     1       1.358  17.173  20.954  0.00  0.00    +0.000 S 
ATOM     33  C   UNL     1       1.800  17.177  19.300  0.00  0.00    +0.000 A 
ATOM     34  N   UNL     1       1.305  16.203  18.569  0.00  0.00    +0.000 NA
ENDBRANCH  29  30
ENDBRANCH  20  29
ENDBRANCH   1  19
TORSDOF 7
ENDMDL
MODEL 5
REMARK VINA RESULT:      -7.1      1.157      1.437
REMARK  Name = 
REMARK  8 active torsions:
REMARK  status: ('A' for Active; 'I' for Inactive)
REMARK    1  A    between atoms: C_1  and  C_2
REMARK    2  A    between atoms: C_7  and  C_8
REMARK    3  A    between atoms: C_8  and  C_9
REMARK    4  A    between atoms: C_8  and  N_18
REMARK    5  A    between atoms: N_11  and  C_12
REMARK    6  A    between atoms: N_18  and  C_27
REMARK    7  A    between atoms: C_19  and  C_21
REMARK    8  A    between atoms: C_21  and  C_22
REMARK                            x       y       z     vdW  Elec       q    Type
REMARK                         _______ _______ _______ _____ _____    ______ ____
ROOT
ATOM      1  C   UNL     1      -0.894  11.042  20.594  0.00  0.00    +0.000 C 
ENDROOT
BRANCH   1   8
ATOM      2  C   UNL     1      -0.168   9.099  22.924  0.00  0.00    +0.000 C 
ATOM      3  C   UNL     1       0.362   8.964  21.519  0.00  0.00    +0.000 A 
ATOM      4  C   UNL     1       1.114   7.814  21.213  0.00  0.00    +0.000 A 
ATOM      5  C   UNL     1       1.803   7.709  20.011  0.00  0.00    +0.000 A 
ATOM      6  C   UNL     1       1.870   8.813  19.181  0.00  0.00    +0.000 A 
ATOM      7  C   UNL     1       1.139   9.955  19.489  0.00  0.00    +0.000 A 
ATOM      8  C   UNL     1       0.220   9.983  20.548  0.00  0.00    +0.000 A 
ENDBRANCH   1   8
BRANCH   1   9
ATOM      9  C   UNL     1      -0.940  11.878  21.900  0.00  0.00    +0.000 C 
ATOM     10  O   UNL     1       0.074  12.243  22.490  0.00  0.00    +0.000 OA
ATOM     11  N   UNL     1      -2.205  12.241  22.299  0.00  0.00    +0.000 N 
ATOM     12  H   UNL     1      -2.949  11.657  21.956  0.00  0.00    +0.000 HD
BRANCH  11  13
ATOM     13  C   UNL     1      -2.518  13.022  23.485  0.00  0.00    +0.000 C 
ATOM     14  C   UNL     1      -2.520  14.514  23.112  0.00  0.00    +0.000 C 
ATOM     15  C   UNL     1      -3.696  14.892  22.201  0.00  0.00    +0.000 C 
ATOM     16  C   UNL     1      -5.039  14.443  22.773  0.00  0.00    +0.000 C 
ATOM     17  C   UNL     1      -5.034  12.960  23.139  0.00  0.00    +0.000 C 
ATOM     18  C   UNL     1      -3.873  12.608  24.069  0.00  0.00    +0.000 C 
ENDBRANCH  11  13
ENDBRANCH   1   9
BRANCH   1  19
ATOM     19  N   UNL     1      -1.069  11.849  19.291  0.00  0.00    +0.000 N 
ATOM     20  C   UNL     1      -0.366  12.987  18.827  0.00  0.00    +0.000 C 
ATOM     21  O   UNL     1      -0.565  13.472  17.702  0.00  0.00    +0.000 OA
BRANCH  19  22
ATOM     22  C   UNL     1      -2.177  11.403  18.450  0.00  0.00    +0.000 A 
ATOM     23  C   UNL     1      -3.480  11.904  18.637  0.00  0.00    +0.000 A 
ATOM     24  C   UNL     1      -4.513  11.576  17.757  0.00  0.00    +0.000 A 
ATOM     25  C   UNL     1      -4.281  10.716  16.688  0.00  0.00    +0.000 A 
ATOM     26  C   UNL     1      -3.012  10.187  16.516  0.00  0.00    +0.000 A 
ATOM     27  F   UNL     1      -2.781   9.353  15.492  0.00  0.00    +0.000 F 
ATOM     28  C   UNL     1      -1.971  10.517  17.381  0.00  0.00    +0.000 A 
ENDBRANCH  19  22
BRANCH  20  29
ATOM     29  C   UNL     1       0.506  13.827  19.737  0.00  0.00    +0.000 C 
BRANCH  29  30
ATOM     30  C   UNL     1       1.665  14.510  19.095  0.00  0.00    +0.000 A 
ATOM     31  C   UNL     1       2.817  13.958  18.563  0.00  0.00    +0.000 A 
ATOM     32  S   UNL     1       3.806  15.182  17.882  0.00  0.00    +0.000 S 
ATOM     33  C   UNL     1       2.639  16.350  18.333  0.00  0.00    +0.000 A 
ATOM     34  N   UNL     1       1.580  15.894  18.964  0.00  0.00    +0.000 NA
ENDBRANCH  29  30
ENDBRANCH  20  29
ENDBRANCH   1  19
TORSDOF 7
ENDMDL
MODEL 6
REMARK VINA RESULT:      -7.1      2.098      5.246
REMARK  Name = 
REMARK  8 active torsions:
REMARK  status: ('A' for Active; 'I' for Inactive)
REMARK    1  A    between atoms: C_1  and  C_2
REMARK    2  A    between atoms: C_7  and  C_8
REMARK    3  A    between atoms: C_8  and  C_9
REMARK    4  A    between atoms: C_8  and  N_18
REMARK    5  A    between atoms: N_11  and  C_12
REMARK    6  A    between atoms: N_18  and  C_27
REMARK    7  A    between atoms: C_19  and  C_21
REMARK    8  A    between atoms: C_21  and  C_22
REMARK                            x       y       z     vdW  Elec       q    Type
REMARK                         _______ _______ _______ _____ _____    ______ ____
ROOT
ATOM      1  C   UNL     1      -1.724  11.630  19.810  0.00  0.00    +0.000 C 
ENDROOT
BRANCH   1   8
ATOM      2  C   UNL     1      -1.325  11.160  22.867  0.00  0.00    +0.000 C 
ATOM      3  C   UNL     1      -1.838  12.447  22.273  0.00  0.00    +0.000 A 
ATOM      4  C   UNL     1      -2.011  13.542  23.140  0.00  0.00    +0.000 A 
ATOM      5  C   UNL     1      -2.664  14.693  22.717  0.00  0.00    +0.000 A 
ATOM      6  C   UNL     1      -3.281  14.694  21.480  0.00  0.00    +0.000 A 
ATOM      7  C   UNL     1      -3.123  13.607  20.628  0.00  0.00    +0.000 A 
ATOM      8  C   UNL     1      -2.241  12.556  20.922  0.00  0.00    +0.000 A 
ENDBRANCH   1   8
BRANCH   1   9
ATOM      9  C   UNL     1      -2.661  11.505  18.581  0.00  0.00    +0.000 C 
ATOM     10  O   UNL     1      -2.246  11.537  17.424  0.00  0.00    +0.000 OA
ATOM     11  N   UNL     1      -3.981  11.281  18.892  0.00  0.00    +0.000 N 
ATOM     12  H   UNL     1      -4.264  11.578  19.810  0.00  0.00    +0.000 HD
BRANCH  11  13
ATOM     13  C   UNL     1      -5.057  11.129  17.924  0.00  0.00    +0.000 C 
ATOM     14  C   UNL     1      -6.188  10.305  18.562  0.00  0.00    +0.000 C 
ATOM     15  C   UNL     1      -6.913  11.065  19.680  0.00  0.00    +0.000 C 
ATOM     16  C   UNL     1      -7.394  12.443  19.226  0.00  0.00    +0.000 C 
ATOM     17  C   UNL     1      -6.267  13.260  18.597  0.00  0.00    +0.000 C 
ATOM     18  C   UNL     1      -5.575  12.497  17.467  0.00  0.00    +0.000 C 
ENDBRANCH  11  13
ENDBRANCH   1   9
BRANCH   1  19
ATOM     19  N   UNL     1      -0.226  11.797  19.478  0.00  0.00    +0.000 N 
ATOM     20  C   UNL     1       0.492  12.950  19.078  0.00  0.00    +0.000 C 
ATOM     21  O   UNL     1       1.726  12.943  18.937  0.00  0.00    +0.000 OA
BRANCH  19  22
ATOM     22  C   UNL     1       0.542  10.555  19.520  0.00  0.00    +0.000 A 
ATOM     23  C   UNL     1       0.635   9.797  20.702  0.00  0.00    +0.000 A 
ATOM     24  C   UNL     1       1.262   8.548  20.712  0.00  0.00    +0.000 A 
ATOM     25  C   UNL     1       1.837   8.040  19.551  0.00  0.00    +0.000 A 
ATOM     26  C   UNL     1       1.785   8.795  18.391  0.00  0.00    +0.000 A 
ATOM     27  F   UNL     1       2.342   8.315  17.270  0.00  0.00    +0.000 F 
ATOM     28  C   UNL     1       1.152  10.036  18.367  0.00  0.00    +0.000 A 
ENDBRANCH  19  22
BRANCH  20  29
ATOM     29  C   UNL     1      -0.198  14.202  18.579  0.00  0.00    +0.000 C 
BRANCH  29  30
ATOM     30  C   UNL     1      -0.165  15.382  19.488  0.00  0.00    +0.000 A 
ATOM     31  C   UNL     1      -0.635  16.665  19.270  0.00  0.00    +0.000 A 
ATOM     32  S   UNL     1      -0.411  17.630  20.669  0.00  0.00    +0.000 S 
ATOM     33  C   UNL     1       0.284  16.283  21.464  0.00  0.00    +0.000 A 
ATOM     34  N   UNL     1       0.372  15.178  20.757  0.00  0.00    +0.000 NA
ENDBRANCH  29  30
ENDBRANCH  20  29
ENDBRANCH   1  19
TORSDOF 7
ENDMDL
MODEL 7
REMARK VINA RESULT:      -7.0      0.932      1.246
REMARK  Name = 
REMARK  8 active torsions:
REMARK  status: ('A' for Active; 'I' for Inactive)
REMARK    1  A    between atoms: C_1  and  C_2
REMARK    2  A    between atoms: C_7  and  C_8
REMARK    3  A    between atoms: C_8  and  C_9
REMARK    4  A    between atoms: C_8  and  N_18
REMARK    5  A    between atoms: N_11  and  C_12
REMARK    6  A    between atoms: N_18  and  C_27
REMARK    7  A    between atoms: C_19  and  C_21
REMARK    8  A    between atoms: C_21  and  C_22
REMARK                            x       y       z     vdW  Elec       q    Type
REMARK                         _______ _______ _______ _____ _____    ______ ____
ROOT
ATOM      1  C   UNL     1      -0.934  11.126  20.621  0.00  0.00    +0.000 C 
ENDROOT
BRANCH   1   8
ATOM      2  C   UNL     1      -0.219   9.328  23.067  0.00  0.00    +0.000 C 
ATOM      3  C   UNL     1       0.300   9.096  21.671  0.00  0.00    +0.000 A 
ATOM      4  C   UNL     1       1.035   7.919  21.436  0.00  0.00    +0.000 A 
ATOM      5  C   UNL     1       1.715   7.727  20.240  0.00  0.00    +0.000 A 
ATOM      6  C   UNL     1       1.791   8.774  19.340  0.00  0.00    +0.000 A 
ATOM      7  C   UNL     1       1.077   9.943  19.577  0.00  0.00    +0.000 A 
ATOM      8  C   UNL     1       0.166  10.052  20.638  0.00  0.00    +0.000 A 
ENDBRANCH   1   8
BRANCH   1   9
ATOM      9  C   UNL     1      -0.964  12.043  21.872  0.00  0.00    +0.000 C 
ATOM     10  O   UNL     1       0.051  12.544  22.352  0.00  0.00    +0.000 OA
ATOM     11  N   UNL     1      -2.224  12.309  22.352  0.00  0.00    +0.000 N 
ATOM     12  H   UNL     1      -2.929  11.634  22.110  0.00  0.00    +0.000 HD
BRANCH  11  13
ATOM     13  C   UNL     1      -2.522  13.137  23.511  0.00  0.00    +0.000 C 
ATOM     14  C   UNL     1      -2.631  14.604  23.059  0.00  0.00    +0.000 C 
ATOM     15  C   UNL     1      -3.871  14.864  22.194  0.00  0.00    +0.000 C 
ATOM     16  C   UNL     1      -5.155  14.373  22.860  0.00  0.00    +0.000 C 
ATOM     17  C   UNL     1      -5.045  12.915  23.304  0.00  0.00    +0.000 C 
ATOM     18  C   UNL     1      -3.819  12.682  24.188  0.00  0.00    +0.000 C 
ENDBRANCH  11  13
ENDBRANCH   1   9
BRANCH   1  19
ATOM     19  N   UNL     1      -1.104  11.853  19.270  0.00  0.00    +0.000 N 
ATOM     20  C   UNL     1      -0.342  12.904  18.704  0.00  0.00    +0.000 C 
ATOM     21  O   UNL     1      -0.551  13.324  17.554  0.00  0.00    +0.000 OA
BRANCH  19  22
ATOM     22  C   UNL     1      -2.272  11.431  18.502  0.00  0.00    +0.000 A 
ATOM     23  C   UNL     1      -3.547  11.968  18.762  0.00  0.00    +0.000 A 
ATOM     24  C   UNL     1      -4.640  11.661  17.949  0.00  0.00    +0.000 A 
ATOM     25  C   UNL     1      -4.495  10.788  16.875  0.00  0.00    +0.000 A 
ATOM     26  C   UNL     1      -3.254  10.223  16.632  0.00  0.00    +0.000 A 
ATOM     27  F   UNL     1      -3.107   9.376  15.603  0.00  0.00    +0.000 F 
ATOM     28  C   UNL     1      -2.153  10.532  17.430  0.00  0.00    +0.000 A 
ENDBRANCH  19  22
BRANCH  20  29
ATOM     29  C   UNL     1       0.620  13.740  19.521  0.00  0.00    +0.000 C 
BRANCH  29  30
ATOM     30  C   UNL     1       0.789  15.158  19.096  0.00  0.00    +0.000 A 
ATOM     31  C   UNL     1      -0.077  16.225  19.255  0.00  0.00    +0.000 A 
ATOM     32  S   UNL     1       0.629  17.663  18.646  0.00  0.00    +0.000 S 
ATOM     33  C   UNL     1       2.029  16.774  18.223  0.00  0.00    +0.000 A 
ATOM     34  N   UNL     1       1.998  15.488  18.490  0.00  0.00    +0.000 NA
ENDBRANCH  29  30
ENDBRANCH  20  29
ENDBRANCH   1  19
TORSDOF 7
ENDMDL
MODEL 8
REMARK VINA RESULT:      -6.9      1.532      1.948
REMARK  Name = 
REMARK  8 active torsions:
REMARK  status: ('A' for Active; 'I' for Inactive)
REMARK    1  A    between atoms: C_1  and  C_2
REMARK    2  A    between atoms: C_7  and  C_8
REMARK    3  A    between atoms: C_8  and  C_9
REMARK    4  A    between atoms: C_8  and  N_18
REMARK    5  A    between atoms: N_11  and  C_12
REMARK    6  A    between atoms: N_18  and  C_27
REMARK    7  A    between atoms: C_19  and  C_21
REMARK    8  A    between atoms: C_21  and  C_22
REMARK                            x       y       z     vdW  Elec       q    Type
REMARK                         _______ _______ _______ _____ _____    ______ ____
ROOT
ATOM      1  C   UNL     1      -0.982  11.131  20.729  0.00  0.00    +0.000 C 
ENDROOT
BRANCH   1   8
ATOM      2  C   UNL     1      -0.227   9.214  23.070  0.00  0.00    +0.000 C 
ATOM      3  C   UNL     1       0.288   9.066  21.661  0.00  0.00    +0.000 A 
ATOM      4  C   UNL     1       1.039   7.914  21.359  0.00  0.00    +0.000 A 
ATOM      5  C   UNL     1       1.715   7.798  20.150  0.00  0.00    +0.000 A 
ATOM      6  C   UNL     1       1.771   8.893  19.308  0.00  0.00    +0.000 A 
ATOM      7  C   UNL     1       1.040  10.037  19.613  0.00  0.00    +0.000 A 
ATOM      8  C   UNL     1       0.133  10.074  20.682  0.00  0.00    +0.000 A 
ENDBRANCH   1   8
BRANCH   1   9
ATOM      9  C   UNL     1      -1.043  11.952  22.043  0.00  0.00    +0.000 C 
ATOM     10  O   UNL     1      -0.035  12.356  22.619  0.00  0.00    +0.000 OA
ATOM     11  N   UNL     1      -2.315  12.255  22.467  0.00  0.00    +0.000 N 
ATOM     12  H   UNL     1      -3.038  11.642  22.132  0.00  0.00    +0.000 HD
BRANCH  11  13
ATOM     13  C   UNL     1      -2.641  13.011  23.667  0.00  0.00    +0.000 C 
ATOM     14  C   UNL     1      -2.643  14.510  23.325  0.00  0.00    +0.000 C 
ATOM     15  C   UNL     1      -3.810  14.905  22.411  0.00  0.00    +0.000 C 
ATOM     16  C   UNL     1      -5.158  14.441  22.960  0.00  0.00    +0.000 C 
ATOM     17  C   UNL     1      -5.154  12.951  23.295  0.00  0.00    +0.000 C 
ATOM     18  C   UNL     1      -4.000  12.582  24.229  0.00  0.00    +0.000 C 
ENDBRANCH  11  13
ENDBRANCH   1   9
BRANCH   1  19
ATOM     19  N   UNL     1      -1.146  11.953  19.433  0.00  0.00    +0.000 N 
ATOM     20  C   UNL     1      -0.363  13.020  18.931  0.00  0.00    +0.000 C 
ATOM     21  O   UNL     1      -0.571  13.524  17.815  0.00  0.00    +0.000 OA
BRANCH  19  22
ATOM     22  C   UNL     1      -2.332  11.614  18.650  0.00  0.00    +0.000 A 
ATOM     23  C   UNL     1      -2.257  10.714  17.570  0.00  0.00    +0.000 A 
ATOM     24  C   UNL     1      -3.409  10.292  16.901  0.00  0.00    +0.000 A 
ATOM     25  C   UNL     1      -4.658  10.780  17.273  0.00  0.00    +0.000 A 
ATOM     26  C   UNL     1      -4.739  11.695  18.310  0.00  0.00    +0.000 A 
ATOM     27  F   UNL     1      -5.938  12.174  18.671  0.00  0.00    +0.000 F 
ATOM     28  C   UNL     1      -3.599  12.113  18.992  0.00  0.00    +0.000 A 
ENDBRANCH  19  22
BRANCH  20  29
ATOM     29  C   UNL     1       0.628  13.773  19.793  0.00  0.00    +0.000 C 
BRANCH  29  30
ATOM     30  C   UNL     1       1.735  14.467  19.075  0.00  0.00    +0.000 A 
ATOM     31  C   UNL     1       1.860  15.806  18.750  0.00  0.00    +0.000 A 
ATOM     32  S   UNL     1       3.364  16.096  17.981  0.00  0.00    +0.000 S 
ATOM     33  C   UNL     1       3.745  14.435  18.139  0.00  0.00    +0.000 A 
ATOM     34  N   UNL     1       2.827  13.685  18.708  0.00  0.00    +0.000 NA
ENDBRANCH  29  30
ENDBRANCH  20  29
ENDBRANCH   1  19
TORSDOF 7
ENDMDL
MODEL 9
REMARK VINA RESULT:      -6.9      8.126     10.472
REMARK  Name = 
REMARK  8 active torsions:
REMARK  status: ('A' for Active; 'I' for Inactive)
REMARK    1  A    between atoms: C_1  and  C_2
REMARK    2  A    between atoms: C_7  and  C_8
REMARK    3  A    between atoms: C_8  and  C_9
REMARK    4  A    between atoms: C_8  and  N_18
REMARK    5  A    between atoms: N_11  and  C_12
REMARK    6  A    between atoms: N_18  and  C_27
REMARK    7  A    between atoms: C_19  and  C_21
REMARK    8  A    between atoms: C_21  and  C_22
REMARK                            x       y       z     vdW  Elec       q    Type
REMARK                         _______ _______ _______ _____ _____    ______ ____
ROOT
ATOM      1  C   UNL     1       8.617  13.273  20.601  0.00  0.00    +0.000 C 
ENDROOT
BRANCH   1   8
ATOM      2  C   UNL     1       8.347  12.305  17.649  0.00  0.00    +0.000 C 
ATOM      3  C   UNL     1       9.645  12.320  18.415  0.00  0.00    +0.000 A 
ATOM      4  C   UNL     1      10.822  12.011  17.708  0.00  0.00    +0.000 A 
ATOM      5  C   UNL     1      12.024  11.807  18.375  0.00  0.00    +0.000 A 
ATOM      6  C   UNL     1      12.021  11.756  19.756  0.00  0.00    +0.000 A 
ATOM      7  C   UNL     1      10.855  12.046  20.456  0.00  0.00    +0.000 A 
ATOM      8  C   UNL     1       9.705  12.526  19.813  0.00  0.00    +0.000 A 
ENDBRANCH   1   8
BRANCH   1   9
ATOM      9  C   UNL     1       8.412  12.774  22.056  0.00  0.00    +0.000 C 
ATOM     10  O   UNL     1       8.204  11.594  22.329  0.00  0.00    +0.000 OA
ATOM     11  N   UNL     1       8.557  13.746  23.017  0.00  0.00    +0.000 N 
ATOM     12  H   UNL     1       8.411  14.690  22.700  0.00  0.00    +0.000 HD
BRANCH  11  13
ATOM     13  C   UNL     1       8.414  13.537  24.449  0.00  0.00    +0.000 C 
ATOM     14  C   UNL     1       8.853  14.814  25.185  0.00  0.00    +0.000 C 
ATOM     15  C   UNL     1       7.884  15.983  24.967  0.00  0.00    +0.000 C 
ATOM     16  C   UNL     1       6.439  15.606  25.289  0.00  0.00    +0.000 C 
ATOM     17  C   UNL     1       6.005  14.340  24.554  0.00  0.00    +0.000 C 
ATOM     18  C   UNL     1       6.967  13.178  24.805  0.00  0.00    +0.000 C 
ENDBRANCH  11  13
ENDBRANCH   1   9
BRANCH   1  19
ATOM     19  N   UNL     1       8.636  14.807  20.431  0.00  0.00    +0.000 N 
ATOM     20  C   UNL     1       7.628  15.763  20.701  0.00  0.00    +0.000 C 
ATOM     21  O   UNL     1       7.831  16.983  20.597  0.00  0.00    +0.000 OA
BRANCH  19  22
ATOM     22  C   UNL     1       9.862  15.330  19.833  0.00  0.00    +0.000 A 
ATOM     23  C   UNL     1      11.034  15.489  20.598  0.00  0.00    +0.000 A 
ATOM     24  C   UNL     1      12.239  15.869  20.003  0.00  0.00    +0.000 A 
ATOM     25  C   UNL     1      12.298  16.130  18.637  0.00  0.00    +0.000 A 
ATOM     26  C   UNL     1      11.143  16.015  17.881  0.00  0.00    +0.000 A 
ATOM     27  F   UNL     1      11.190  16.270  16.566  0.00  0.00    +0.000 F 
ATOM     28  C   UNL     1       9.938  15.624  18.462  0.00  0.00    +0.000 A 
ENDBRANCH  19  22
BRANCH  20  29
ATOM     29  C   UNL     1       6.180  15.375  20.914  0.00  0.00    +0.000 C 
BRANCH  29  30
ATOM     30  C   UNL     1       5.262  15.588  19.759  0.00  0.00    +0.000 A 
ATOM     31  C   UNL     1       4.199  16.466  19.640  0.00  0.00    +0.000 A 
ATOM     32  S   UNL     1       3.512  16.363  18.073  0.00  0.00    +0.000 S 
ATOM     33  C   UNL     1       4.671  15.173  17.663  0.00  0.00    +0.000 A 
ATOM     34  N   UNL     1       5.518  14.841  18.612  0.00  0.00    +0.000 NA
ENDBRANCH  29  30
ENDBRANCH  20  29
ENDBRANCH   1  19
TORSDOF 7
ENDMDL
