MODEL 1
REMARK VINA RESULT:      -5.1      0.000      0.000
REMARK  Name = 
REMARK  6 active torsions:
REMARK  status: ('A' for Active; 'I' for Inactive)
REMARK    1  A    between atoms: C_1  and  S_2
REMARK    2  A    between atoms: S_2  and  C_3
REMARK    3  A    between atoms: N_5  and  C_6
REMARK    4  A    between atoms: C_6  and  C_7
REMARK    5  A    between atoms: C_7  and  C_8
REMARK    6  A    between atoms: C_8  and  C_9
REMARK                            x       y       z     vdW  Elec       q    Type
REMARK                         _______ _______ _______ _____ _____    ______ ____
ROOT
ATOM      1  C   UNL     1       3.303   4.681  17.633  0.00  0.00    +0.000 C 
ENDROOT
BRANCH   1   4
ATOM      2  C   UNL     1       5.681   4.397  18.153  0.00  0.00    +0.000 C 
ATOM      3  N   UNL     1       5.500   3.568  19.119  0.00  0.00    +0.000 NA
ATOM      4  N   UNL     1       4.701   5.033  17.465  0.00  0.00    +0.000 N 
ATOM      5  H   UNL     1       6.417   3.215  19.402  0.00  0.00    +0.000 HD
ATOM      6  H   UNL     1       4.978   5.384  16.555  0.00  0.00    +0.000 HD
BRANCH   2   8
ATOM      7  C   UNL     1       7.362   6.516  17.954  0.00  0.00    +0.000 C 
ATOM      8  S   UNL     1       7.305   4.737  17.628  0.00  0.00    +0.000 S 
ENDBRANCH   2   8
ENDBRANCH   1   4
BRANCH   1   9
ATOM      9  C   UNL     1       2.516   5.861  18.194  0.00  0.00    +0.000 C 
BRANCH   9  10
ATOM     10  C   UNL     1       2.588   5.878  19.721  0.00  0.00    +0.000 C 
BRANCH  10  11
ATOM     11  C   UNL     1       2.094   4.613  20.325  0.00  0.00    +0.000 A 
ATOM     12  C   UNL     1       0.825   4.072  20.291  0.00  0.00    +0.000 A 
ATOM     13  N   UNL     1       0.907   2.916  21.014  0.00  0.00    +0.000 N 
ATOM     14  C   UNL     1       2.193   2.796  21.455  0.00  0.00    +0.000 A 
ATOM     15  N   UNL     1       2.935   3.803  21.051  0.00  0.00    +0.000 NA
ATOM     16  H   UNL     1       0.155   2.266  21.197  0.00  0.00    +0.000 HD
ENDBRANCH  10  11
ENDBRANCH   9  10
ENDBRANCH   1   9
TORSDOF 5
ENDMDL
MODEL 2
REMARK VINA RESULT:      -5.0      1.385      1.837
REMARK  Name = 
REMARK  6 active torsions:
REMARK  status: ('A' for Active; 'I' for Inactive)
REMARK    1  A    between atoms: C_1  and  S_2
REMARK    2  A    between atoms: S_2  and  C_3
REMARK    3  A    between atoms: N_5  and  C_6
REMARK    4  A    between atoms: C_6  and  C_7
REMARK    5  A    between atoms: C_7  and  C_8
REMARK    6  A    between atoms: C_8  and  C_9
REMARK                            x       y       z     vdW  Elec       q    Type
REMARK                         _______ _______ _______ _____ _____    ______ ____
ROOT
ATOM      1  C   UNL     1       3.809   2.827  17.819  0.00  0.00    +0.000 C 
ENDROOT
BRANCH   1   4
ATOM      2  C   UNL     1       5.824   4.210  18.006  0.00  0.00    +0.000 C 
ATOM      3  N   UNL     1       5.750   4.367  19.280  0.00  0.00    +0.000 NA
ATOM      4  N   UNL     1       4.905   3.579  17.234  0.00  0.00    +0.000 N 
ATOM      5  H   UNL     1       6.608   4.832  19.587  0.00  0.00    +0.000 HD
ATOM      6  H   UNL     1       5.251   3.260  16.335  0.00  0.00    +0.000 HD
BRANCH   2   8
ATOM      7  C   UNL     1       6.739   4.425  15.463  0.00  0.00    +0.000 C 
ATOM      8  S   UNL     1       7.220   4.817  17.163  0.00  0.00    +0.000 S 
ENDBRANCH   2   8
ENDBRANCH   1   4
BRANCH   1   9
ATOM      9  C   UNL     1       2.476   3.283  17.235  0.00  0.00    +0.000 C 
BRANCH   9  10
ATOM     10  C   UNL     1       1.832   4.343  18.129  0.00  0.00    +0.000 C 
BRANCH  10  11
ATOM     11  C   UNL     1       1.822   3.947  19.561  0.00  0.00    +0.000 A 
ATOM     12  C   UNL     1       2.447   4.550  20.633  0.00  0.00    +0.000 A 
ATOM     13  N   UNL     1       2.131   3.776  21.714  0.00  0.00    +0.000 N 
ATOM     14  C   UNL     1       1.345   2.753  21.273  0.00  0.00    +0.000 A 
ATOM     15  N   UNL     1       1.136   2.831  19.978  0.00  0.00    +0.000 NA
ATOM     16  H   UNL     1       2.426   3.928  22.669  0.00  0.00    +0.000 HD
ENDBRANCH  10  11
ENDBRANCH   9  10
ENDBRANCH   1   9
TORSDOF 5
ENDMDL
MODEL 3
REMARK VINA RESULT:      -4.9      2.054      2.512
REMARK  Name = 
REMARK  6 active torsions:
REMARK  status: ('A' for Active; 'I' for Inactive)
REMARK    1  A    between atoms: C_1  and  S_2
REMARK    2  A    between atoms: S_2  and  C_3
REMARK    3  A    between atoms: N_5  and  C_6
REMARK    4  A    between atoms: C_6  and  C_7
REMARK    5  A    between atoms: C_7  and  C_8
REMARK    6  A    between atoms: C_8  and  C_9
REMARK                            x       y       z     vdW  Elec       q    Type
REMARK                         _______ _______ _______ _____ _____    ______ ____
ROOT
ATOM      1  C   UNL     1       5.758   5.246  18.976  0.00  0.00    +0.000 C 
ENDROOT
BRANCH   1   4
ATOM      2  C   UNL     1       7.069   4.765  16.963  0.00  0.00    +0.000 C 
ATOM      3  N   UNL     1       8.017   4.150  17.574  0.00  0.00    +0.000 NA
ATOM      4  N   UNL     1       6.020   5.387  17.556  0.00  0.00    +0.000 N 
ATOM      5  H   UNL     1       8.631   3.741  16.865  0.00  0.00    +0.000 HD
ATOM      6  H   UNL     1       5.216   5.534  16.954  0.00  0.00    +0.000 HD
BRANCH   2   8
ATOM      7  C   UNL     1       5.344   4.377  14.906  0.00  0.00    +0.000 C 
ATOM      8  S   UNL     1       7.074   4.803  15.222  0.00  0.00    +0.000 S 
ENDBRANCH   2   8
ENDBRANCH   1   4
BRANCH   1   9
ATOM      9  C   UNL     1       4.261   5.339  19.257  0.00  0.00    +0.000 C 
BRANCH   9  10
ATOM     10  C   UNL     1       3.466   4.587  18.190  0.00  0.00    +0.000 C 
BRANCH  10  11
ATOM     11  C   UNL     1       2.288   3.879  18.754  0.00  0.00    +0.000 A 
ATOM     12  C   UNL     1       1.735   3.982  20.015  0.00  0.00    +0.000 A 
ATOM     13  N   UNL     1       0.686   3.106  20.019  0.00  0.00    +0.000 N 
ATOM     14  C   UNL     1       0.639   2.514  18.791  0.00  0.00    +0.000 A 
ATOM     15  N   UNL     1       1.590   2.964  18.003  0.00  0.00    +0.000 NA
ATOM     16  H   UNL     1       0.059   2.923  20.790  0.00  0.00    +0.000 HD
ENDBRANCH  10  11
ENDBRANCH   9  10
ENDBRANCH   1   9
TORSDOF 5
ENDMDL
MODEL 4
REMARK VINA RESULT:      -4.9      2.667      5.621
REMARK  Name = 
REMARK  6 active torsions:
REMARK  status: ('A' for Active; 'I' for Inactive)
REMARK    1  A    between atoms: C_1  and  S_2
REMARK    2  A    between atoms: S_2  and  C_3
REMARK    3  A    between atoms: N_5  and  C_6
REMARK    4  A    between atoms: C_6  and  C_7
REMARK    5  A    between atoms: C_7  and  C_8
REMARK    6  A    between atoms: C_8  and  C_9
REMARK                            x       y       z     vdW  Elec       q    Type
REMARK                         _______ _______ _______ _____ _____    ______ ____
ROOT
ATOM      1  C   UNL     1       4.553   5.076  17.279  0.00  0.00    +0.000 C 
ENDROOT
BRANCH   1   4
ATOM      2  C   UNL     1       3.869   3.190  18.686  0.00  0.00    +0.000 C 
ATOM      3  N   UNL     1       5.015   3.027  19.243  0.00  0.00    +0.000 NA
ATOM      4  N   UNL     1       3.592   4.069  17.690  0.00  0.00    +0.000 N 
ATOM      5  H   UNL     1       4.903   2.337  19.990  0.00  0.00    +0.000 HD
ATOM      6  H   UNL     1       2.611   4.303  17.589  0.00  0.00    +0.000 HD
BRANCH   2   8
ATOM      7  C   UNL     1       2.460   2.794  20.969  0.00  0.00    +0.000 C 
ATOM      8  S   UNL     1       2.518   2.246  19.246  0.00  0.00    +0.000 S 
ENDBRANCH   2   8
ENDBRANCH   1   4
BRANCH   1   9
ATOM      9  C   UNL     1       5.305   4.622  16.032  0.00  0.00    +0.000 C 
BRANCH   9  10
ATOM     10  C   UNL     1       6.797   4.469  16.331  0.00  0.00    +0.000 C 
BRANCH  10  11
ATOM     11  C   UNL     1       7.311   5.548  17.214  0.00  0.00    +0.000 A 
ATOM     12  C   UNL     1       7.717   5.473  18.531  0.00  0.00    +0.000 A 
ATOM     13  N   UNL     1       8.077   6.747  18.869  0.00  0.00    +0.000 N 
ATOM     14  C   UNL     1       7.882   7.535  17.773  0.00  0.00    +0.000 A 
ATOM     15  N   UNL     1       7.424   6.840  16.756  0.00  0.00    +0.000 NA
ATOM     16  H   UNL     1       8.422   7.056  19.767  0.00  0.00    +0.000 HD
ENDBRANCH  10  11
ENDBRANCH   9  10
ENDBRANCH   1   9
TORSDOF 5
ENDMDL
MODEL 5
REMARK VINA RESULT:      -4.8      1.882      2.374
REMARK  Name = 
REMARK  6 active torsions:
REMARK  status: ('A' for Active; 'I' for Inactive)
REMARK    1  A    between atoms: C_1  and  S_2
REMARK    2  A    between atoms: S_2  and  C_3
REMARK    3  A    between atoms: N_5  and  C_6
REMARK    4  A    between atoms: C_6  and  C_7
REMARK    5  A    between atoms: C_7  and  C_8
REMARK    6  A    between atoms: C_8  and  C_9
REMARK                            x       y       z     vdW  Elec       q    Type
REMARK                         _______ _______ _______ _____ _____    ______ ____
ROOT
ATOM      1  C   UNL     1       3.608   6.159  18.395  0.00  0.00    +0.000 C 
ENDROOT
BRANCH   1   4
ATOM      2  C   UNL     1       5.829   5.174  18.074  0.00  0.00    +0.000 C 
ATOM      3  N   UNL     1       6.010   4.868  19.309  0.00  0.00    +0.000 NA
ATOM      4  N   UNL     1       4.770   5.861  17.578  0.00  0.00    +0.000 N 
ATOM      5  H   UNL     1       6.864   4.309  19.369  0.00  0.00    +0.000 HD
ATOM      6  H   UNL     1       4.612   5.741  16.583  0.00  0.00    +0.000 HD
BRANCH   2   8
ATOM      7  C   UNL     1       5.900   3.854  15.706  0.00  0.00    +0.000 C 
ATOM      8  S   UNL     1       7.002   4.656  16.897  0.00  0.00    +0.000 S 
ENDBRANCH   2   8
ENDBRANCH   1   4
BRANCH   1   9
ATOM      9  C   UNL     1       2.391   5.383  17.898  0.00  0.00    +0.000 C 
BRANCH   9  10
ATOM     10  C   UNL     1       1.963   4.338  18.929  0.00  0.00    +0.000 C 
BRANCH  10  11
ATOM     11  C   UNL     1       2.803   3.113  18.876  0.00  0.00    +0.000 A 
ATOM     12  C   UNL     1       2.844   2.130  17.909  0.00  0.00    +0.000 A 
ATOM     13  N   UNL     1       3.767   1.226  18.355  0.00  0.00    +0.000 N 
ATOM     14  C   UNL     1       4.244   1.680  19.550  0.00  0.00    +0.000 A 
ATOM     15  N   UNL     1       3.684   2.820  19.890  0.00  0.00    +0.000 NA
ATOM     16  H   UNL     1       4.047   0.373  17.891  0.00  0.00    +0.000 HD
ENDBRANCH  10  11
ENDBRANCH   9  10
ENDBRANCH   1   9
TORSDOF 5
ENDMDL
MODEL 6
REMARK VINA RESULT:      -4.8      2.865      5.784
REMARK  Name = 
REMARK  6 active torsions:
REMARK  status: ('A' for Active; 'I' for Inactive)
REMARK    1  A    between atoms: C_1  and  S_2
REMARK    2  A    between atoms: S_2  and  C_3
REMARK    3  A    between atoms: N_5  and  C_6
REMARK    4  A    between atoms: C_6  and  C_7
REMARK    5  A    between atoms: C_7  and  C_8
REMARK    6  A    between atoms: C_8  and  C_9
REMARK                            x       y       z     vdW  Elec       q    Type
REMARK                         _______ _______ _______ _____ _____    ______ ____
ROOT
ATOM      1  C   UNL     1       5.172   5.116  19.300  0.00  0.00    +0.000 C 
ENDROOT
BRANCH   1   4
ATOM      2  C   UNL     1       4.130   2.904  19.129  0.00  0.00    +0.000 C 
ATOM      3  N   UNL     1       5.008   2.296  19.844  0.00  0.00    +0.000 NA
ATOM      4  N   UNL     1       4.182   4.206  18.752  0.00  0.00    +0.000 N 
ATOM      5  H   UNL     1       4.673   1.344  20.006  0.00  0.00    +0.000 HD
ATOM      6  H   UNL     1       3.291   4.608  18.482  0.00  0.00    +0.000 HD
BRANCH   2   8
ATOM      7  C   UNL     1       1.463   2.845  19.620  0.00  0.00    +0.000 C 
ATOM      8  S   UNL     1       2.719   2.030  18.604  0.00  0.00    +0.000 S 
ENDBRANCH   2   8
ENDBRANCH   1   4
BRANCH   1   9
ATOM      9  C   UNL     1       6.424   5.132  18.429  0.00  0.00    +0.000 C 
BRANCH   9  10
ATOM     10  C   UNL     1       6.192   5.964  17.168  0.00  0.00    +0.000 C 
BRANCH  10  11
ATOM     11  C   UNL     1       6.369   5.170  15.925  0.00  0.00    +0.000 A 
ATOM     12  C   UNL     1       5.808   3.956  15.582  0.00  0.00    +0.000 A 
ATOM     13  N   UNL     1       6.314   3.663  14.346  0.00  0.00    +0.000 N 
ATOM     14  C   UNL     1       7.146   4.684  13.989  0.00  0.00    +0.000 A 
ATOM     15  N   UNL     1       7.196   5.611  14.919  0.00  0.00    +0.000 NA
ATOM     16  H   UNL     1       6.115   2.840  13.795  0.00  0.00    +0.000 HD
ENDBRANCH  10  11
ENDBRANCH   9  10
ENDBRANCH   1   9
TORSDOF 5
ENDMDL
MODEL 7
REMARK VINA RESULT:      -4.8      1.104      1.225
REMARK  Name = 
REMARK  6 active torsions:
REMARK  status: ('A' for Active; 'I' for Inactive)
REMARK    1  A    between atoms: C_1  and  S_2
REMARK    2  A    between atoms: S_2  and  C_3
REMARK    3  A    between atoms: N_5  and  C_6
REMARK    4  A    between atoms: C_6  and  C_7
REMARK    5  A    between atoms: C_7  and  C_8
REMARK    6  A    between atoms: C_8  and  C_9
REMARK                            x       y       z     vdW  Elec       q    Type
REMARK                         _______ _______ _______ _____ _____    ______ ____
ROOT
ATOM      1  C   UNL     1       3.649   3.720  17.088  0.00  0.00    +0.000 C 
ENDROOT
BRANCH   1   4
ATOM      2  C   UNL     1       5.818   4.240  18.104  0.00  0.00    +0.000 C 
ATOM      3  N   UNL     1       5.538   3.743  19.256  0.00  0.00    +0.000 NA
ATOM      4  N   UNL     1       4.957   4.349  17.062  0.00  0.00    +0.000 N 
ATOM      5  H   UNL     1       6.396   3.748  19.813  0.00  0.00    +0.000 HD
ATOM      6  H   UNL     1       5.398   4.452  16.154  0.00  0.00    +0.000 HD
BRANCH   2   8
ATOM      7  C   UNL     1       7.076   6.505  17.303  0.00  0.00    +0.000 C 
ATOM      8  S   UNL     1       7.437   4.802  17.799  0.00  0.00    +0.000 S 
ENDBRANCH   2   8
ENDBRANCH   1   4
BRANCH   1   9
ATOM      9  C   UNL     1       2.592   4.703  17.581  0.00  0.00    +0.000 C 
BRANCH   9  10
ATOM     10  C   UNL     1       1.408   3.955  18.195  0.00  0.00    +0.000 C 
BRANCH  10  11
ATOM     11  C   UNL     1       1.646   3.587  19.616  0.00  0.00    +0.000 A 
ATOM     12  C   UNL     1       1.223   2.469  20.306  0.00  0.00    +0.000 A 
ATOM     13  N   UNL     1       1.695   2.633  21.578  0.00  0.00    +0.000 N 
ATOM     14  C   UNL     1       2.371   3.817  21.618  0.00  0.00    +0.000 A 
ATOM     15  N   UNL     1       2.363   4.415  20.447  0.00  0.00    +0.000 NA
ATOM     16  H   UNL     1       1.566   1.998  22.354  0.00  0.00    +0.000 HD
ENDBRANCH  10  11
ENDBRANCH   9  10
ENDBRANCH   1   9
TORSDOF 5
ENDMDL
MODEL 8
REMARK VINA RESULT:      -4.8      1.608      2.087
REMARK  Name = 
REMARK  6 active torsions:
REMARK  status: ('A' for Active; 'I' for Inactive)
REMARK    1  A    between atoms: C_1  and  S_2
REMARK    2  A    between atoms: S_2  and  C_3
REMARK    3  A    between atoms: N_5  and  C_6
REMARK    4  A    between atoms: C_6  and  C_7
REMARK    5  A    between atoms: C_7  and  C_8
REMARK    6  A    between atoms: C_8  and  C_9
REMARK                            x       y       z     vdW  Elec       q    Type
REMARK                         _______ _______ _______ _____ _____    ______ ____
ROOT
ATOM      1  C   UNL     1       4.961   4.042  16.595  0.00  0.00    +0.000 C 
ENDROOT
BRANCH   1   4
ATOM      2  C   UNL     1       6.861   5.491  17.138  0.00  0.00    +0.000 C 
ATOM      3  N   UNL     1       7.206   5.708  15.919  0.00  0.00    +0.000 NA
ATOM      4  N   UNL     1       5.877   4.650  17.543  0.00  0.00    +0.000 N 
ATOM      5  H   UNL     1       7.936   6.424  15.925  0.00  0.00    +0.000 HD
ATOM      6  H   UNL     1       5.519   4.830  18.474  0.00  0.00    +0.000 HD
BRANCH   2   8
ATOM      7  C   UNL     1       7.767   7.994  17.656  0.00  0.00    +0.000 C 
ATOM      8  S   UNL     1       7.680   6.351  18.411  0.00  0.00    +0.000 S 
ENDBRANCH   2   8
ENDBRANCH   1   4
BRANCH   1   9
ATOM      9  C   UNL     1       3.658   3.650  17.285  0.00  0.00    +0.000 C 
BRANCH   9  10
ATOM     10  C   UNL     1       3.913   3.282  18.747  0.00  0.00    +0.000 C 
BRANCH  10  11
ATOM     11  C   UNL     1       2.672   3.310  19.564  0.00  0.00    +0.000 A 
ATOM     12  C   UNL     1       1.478   3.953  19.307  0.00  0.00    +0.000 A 
ATOM     13  N   UNL     1       0.681   3.671  20.381  0.00  0.00    +0.000 N 
ATOM     14  C   UNL     1       1.400   2.886  21.233  0.00  0.00    +0.000 A 
ATOM     15  N   UNL     1       2.605   2.646  20.766  0.00  0.00    +0.000 NA
ATOM     16  H   UNL     1      -0.268   3.988  20.524  0.00  0.00    +0.000 HD
ENDBRANCH  10  11
ENDBRANCH   9  10
ENDBRANCH   1   9
TORSDOF 5
ENDMDL
MODEL 9
REMARK VINA RESULT:      -4.8      1.754      2.385
REMARK  Name = 
REMARK  6 active torsions:
REMARK  status: ('A' for Active; 'I' for Inactive)
REMARK    1  A    between atoms: C_1  and  S_2
REMARK    2  A    between atoms: S_2  and  C_3
REMARK    3  A    between atoms: N_5  and  C_6
REMARK    4  A    between atoms: C_6  and  C_7
REMARK    5  A    between atoms: C_7  and  C_8
REMARK    6  A    between atoms: C_8  and  C_9
REMARK                            x       y       z     vdW  Elec       q    Type
REMARK                         _______ _______ _______ _____ _____    ______ ____
ROOT
ATOM      1  C   UNL     1       3.996   2.628  17.779  0.00  0.00    +0.000 C 
ENDROOT
BRANCH   1   4
ATOM      2  C   UNL     1       5.849   4.169  17.337  0.00  0.00    +0.000 C 
ATOM      3  N   UNL     1       6.308   4.161  18.538  0.00  0.00    +0.000 NA
ATOM      4  N   UNL     1       4.717   3.550  16.920  0.00  0.00    +0.000 N 
ATOM      5  H   UNL     1       7.197   4.667  18.535  0.00  0.00    +0.000 HD
ATOM      6  H   UNL     1       4.668   3.379  15.922  0.00  0.00    +0.000 HD
BRANCH   2   8
ATOM      7  C   UNL     1       6.324   3.977  14.674  0.00  0.00    +0.000 C 
ATOM      8  S   UNL     1       6.741   5.009  16.101  0.00  0.00    +0.000 S 
ENDBRANCH   2   8
ENDBRANCH   1   4
BRANCH   1   9
ATOM      9  C   UNL     1       2.507   2.641  17.447  0.00  0.00    +0.000 C 
BRANCH   9  10
ATOM     10  C   UNL     1       1.925   4.042  17.643  0.00  0.00    +0.000 C 
BRANCH  10  11
ATOM     11  C   UNL     1       2.084   4.532  19.037  0.00  0.00    +0.000 A 
ATOM     12  C   UNL     1       2.724   5.667  19.490  0.00  0.00    +0.000 A 
ATOM     13  N   UNL     1       2.594   5.634  20.850  0.00  0.00    +0.000 N 
ATOM     14  C   UNL     1       1.897   4.506  21.170  0.00  0.00    +0.000 A 
ATOM     15  N   UNL     1       1.571   3.821  20.096  0.00  0.00    +0.000 NA
ATOM     16  H   UNL     1       2.951   6.315  21.505  0.00  0.00    +0.000 HD
ENDBRANCH  10  11
ENDBRANCH   9  10
ENDBRANCH   1   9
TORSDOF 5
ENDMDL
