MODEL 1
REMARK VINA RESULT:      -7.9      0.000      0.000
REMARK  Name = 
REMARK  8 active torsions:
REMARK  status: ('A' for Active; 'I' for Inactive)
REMARK    1  A    between atoms: C_1  and  C_2
REMARK    2  A    between atoms: N_7  and  C_8
REMARK    3  A    between atoms: C_11  and  C_12
REMARK    4  A    between atoms: C_12  and  N_13
REMARK    5  A    between atoms: N_13  and  C_14
REMARK    6  A    between atoms: N_13  and  S_15
REMARK    7  A    between atoms: S_15  and  C_18
REMARK    8  A    between atoms: C_18  and  C_19
REMARK                            x       y       z     vdW  Elec       q    Type
REMARK                         _______ _______ _______ _____ _____    ______ ____
ROOT
ATOM      1  C   UNL     1       1.502   9.426  19.314  0.00  0.00    +0.000 A 
ATOM      2  C   UNL     1       1.728   8.283  20.097  0.00  0.00    +0.000 A 
ATOM      3  C   UNL     1       2.366   7.146  19.586  0.00  0.00    +0.000 A 
ATOM      4  C   UNL     1       2.794   7.123  18.254  0.00  0.00    +0.000 A 
ATOM      5  C   UNL     1       2.559   8.244  17.457  0.00  0.00    +0.000 A 
ATOM      6  C   UNL     1       1.931   9.377  17.983  0.00  0.00    +0.000 A 
ENDROOT
BRANCH   1  13
ATOM      7  C   UNL     1      -2.233  12.708  23.108  0.00  0.00    +0.000 C 
ATOM      8  C   UNL     1      -2.339  12.481  21.621  0.00  0.00    +0.000 C 
ATOM      9  O   UNL     1      -3.125  13.151  20.950  0.00  0.00    +0.000 OA
ATOM     10  N   UNL     1      -1.489  11.548  21.061  0.00  0.00    +0.000 N 
ATOM     11  C   UNL     1      -1.436  11.385  19.604  0.00  0.00    +0.000 C 
ATOM     12  C   UNL     1       0.014  11.432  19.084  0.00  0.00    +0.000 C 
ATOM     13  N   UNL     1       0.906  10.546  19.860  0.00  0.00    +0.000 N 
ATOM     14  C   UNL     1       0.828  10.683  21.323  0.00  0.00    +0.000 C 
ATOM     15  C   UNL     1      -0.635  10.609  21.797  0.00  0.00    +0.000 C 
ENDBRANCH   1  13
BRANCH   4  16
ATOM     16  C   UNL     1       3.558   5.945  17.700  0.00  0.00    +0.000 C 
BRANCH  16  17
ATOM     17  N   UNL     1       5.020   5.946  17.984  0.00  0.00    +0.000 NA
ATOM     18  C   UNL     1       5.475   4.643  18.552  0.00  0.00    +0.000 C 
BRANCH  17  19
ATOM     19  S   UNL     1       5.973   6.401  16.616  0.00  0.00    +0.000 S 
ATOM     20  O   UNL     1       5.045   6.680  15.540  0.00  0.00    +0.000 OA
ATOM     21  O   UNL     1       6.897   7.416  17.091  0.00  0.00    +0.000 OA
BRANCH  19  22
ATOM     22  C   UNL     1       6.866   4.881  16.244  0.00  0.00    +0.000 C 
BRANCH  22  23
ATOM     23  C   UNL     1       6.863   4.652  14.754  0.00  0.00    +0.000 A 
ATOM     24  C   UNL     1       7.745   5.362  13.923  0.00  0.00    +0.000 A 
ATOM     25  C   UNL     1       7.751   5.143  12.545  0.00  0.00    +0.000 A 
ATOM     26  C   UNL     1       6.880   4.212  11.983  0.00  0.00    +0.000 A 
ATOM     27  C   UNL     1       5.999   3.505  12.798  0.00  0.00    +0.000 A 
ATOM     28  C   UNL     1       5.986   3.724  14.176  0.00  0.00    +0.000 A 
ENDBRANCH  22  23
ENDBRANCH  19  22
ENDBRANCH  17  19
ENDBRANCH  16  17
ENDBRANCH   4  16
TORSDOF 6
ENDMDL
MODEL 2
REMARK VINA RESULT:      -7.7      4.445      9.414
REMARK  Name = 
REMARK  8 active torsions:
REMARK  status: ('A' for Active; 'I' for Inactive)
REMARK    1  A    between atoms: C_1  and  C_2
REMARK    2  A    between atoms: N_7  and  C_8
REMARK    3  A    between atoms: C_11  and  C_12
REMARK    4  A    between atoms: C_12  and  N_13
REMARK    5  A    between atoms: N_13  and  C_14
REMARK    6  A    between atoms: N_13  and  S_15
REMARK    7  A    between atoms: S_15  and  C_18
REMARK    8  A    between atoms: C_18  and  C_19
REMARK                            x       y       z     vdW  Elec       q    Type
REMARK                         _______ _______ _______ _____ _____    ______ ____
ROOT
ATOM      1  C   UNL     1       1.767   7.782  20.138  0.00  0.00    +0.000 A 
ATOM      2  C   UNL     1       1.703   8.670  19.052  0.00  0.00    +0.000 A 
ATOM      3  C   UNL     1       1.234   9.982  19.191  0.00  0.00    +0.000 A 
ATOM      4  C   UNL     1       0.803  10.442  20.440  0.00  0.00    +0.000 A 
ATOM      5  C   UNL     1       0.841   9.565  21.525  0.00  0.00    +0.000 A 
ATOM      6  C   UNL     1       1.322   8.261  21.375  0.00  0.00    +0.000 A 
ENDROOT
BRANCH   1  13
ATOM      7  C   UNL     1       2.714   2.258  17.363  0.00  0.00    +0.000 C 
ATOM      8  C   UNL     1       1.946   2.579  18.620  0.00  0.00    +0.000 C 
ATOM      9  O   UNL     1       1.585   1.671  19.370  0.00  0.00    +0.000 OA
ATOM     10  N   UNL     1       1.725   3.912  18.903  0.00  0.00    +0.000 N 
ATOM     11  C   UNL     1       1.116   4.300  20.181  0.00  0.00    +0.000 C 
ATOM     12  C   UNL     1       1.937   5.395  20.888  0.00  0.00    +0.000 C 
ATOM     13  N   UNL     1       2.273   6.507  19.975  0.00  0.00    +0.000 N 
ATOM     14  C   UNL     1       2.851   6.118  18.678  0.00  0.00    +0.000 C 
ATOM     15  C   UNL     1       1.985   5.040  18.001  0.00  0.00    +0.000 C 
ENDBRANCH   1  13
BRANCH   4  16
ATOM     16  C   UNL     1       0.371  11.875  20.637  0.00  0.00    +0.000 C 
BRANCH  16  17
ATOM     17  N   UNL     1      -1.061  12.061  21.004  0.00  0.00    +0.000 NA
ATOM     18  C   UNL     1      -1.214  12.556  22.404  0.00  0.00    +0.000 C 
BRANCH  17  19
ATOM     19  S   UNL     1      -1.919  13.063  19.888  0.00  0.00    +0.000 S 
ATOM     20  O   UNL     1      -2.324  14.245  20.620  0.00  0.00    +0.000 OA
ATOM     21  O   UNL     1      -1.078  13.162  18.709  0.00  0.00    +0.000 OA
BRANCH  19  22
ATOM     22  C   UNL     1      -3.378  12.072  19.521  0.00  0.00    +0.000 C 
BRANCH  22  23
ATOM     23  C   UNL     1      -3.169  11.334  18.223  0.00  0.00    +0.000 A 
ATOM     24  C   UNL     1      -3.995  11.592  17.117  0.00  0.00    +0.000 A 
ATOM     25  C   UNL     1      -3.796  10.918  15.911  0.00  0.00    +0.000 A 
ATOM     26  C   UNL     1      -2.769   9.983  15.797  0.00  0.00    +0.000 A 
ATOM     27  C   UNL     1      -1.946   9.717  16.889  0.00  0.00    +0.000 A 
ATOM     28  C   UNL     1      -2.145  10.385  18.098  0.00  0.00    +0.000 A 
ENDBRANCH  22  23
ENDBRANCH  19  22
ENDBRANCH  17  19
ENDBRANCH  16  17
ENDBRANCH   4  16
TORSDOF 6
ENDMDL
MODEL 3
REMARK VINA RESULT:      -7.7      2.377      4.480
REMARK  Name = 
REMARK  8 active torsions:
REMARK  status: ('A' for Active; 'I' for Inactive)
REMARK    1  A    between atoms: C_1  and  C_2
REMARK    2  A    between atoms: N_7  and  C_8
REMARK    3  A    between atoms: C_11  and  C_12
REMARK    4  A    between atoms: C_12  and  N_13
REMARK    5  A    between atoms: N_13  and  C_14
REMARK    6  A    between atoms: N_13  and  S_15
REMARK    7  A    between atoms: S_15  and  C_18
REMARK    8  A    between atoms: C_18  and  C_19
REMARK                            x       y       z     vdW  Elec       q    Type
REMARK                         _______ _______ _______ _____ _____    ______ ____
ROOT
ATOM      1  C   UNL     1       1.395   8.677  19.316  0.00  0.00    +0.000 A 
ATOM      2  C   UNL     1       1.975   7.565  19.949  0.00  0.00    +0.000 A 
ATOM      3  C   UNL     1       3.055   6.871  19.389  0.00  0.00    +0.000 A 
ATOM      4  C   UNL     1       3.584   7.275  18.158  0.00  0.00    +0.000 A 
ATOM      5  C   UNL     1       3.006   8.366  17.508  0.00  0.00    +0.000 A 
ATOM      6  C   UNL     1       1.936   9.057  18.083  0.00  0.00    +0.000 A 
ENDROOT
BRANCH   1  13
ATOM      7  C   UNL     1      -1.627  13.567  21.778  0.00  0.00    +0.000 C 
ATOM      8  C   UNL     1      -1.086  12.335  22.458  0.00  0.00    +0.000 C 
ATOM      9  O   UNL     1      -1.404  12.082  23.620  0.00  0.00    +0.000 OA
ATOM     10  N   UNL     1      -0.282  11.500  21.707  0.00  0.00    +0.000 N 
ATOM     11  C   UNL     1       0.157  10.213  22.259  0.00  0.00    +0.000 C 
ATOM     12  C   UNL     1      -0.120   9.057  21.278  0.00  0.00    +0.000 C 
ATOM     13  N   UNL     1       0.358   9.364  19.915  0.00  0.00    +0.000 N 
ATOM     14  C   UNL     1      -0.051  10.671  19.374  0.00  0.00    +0.000 C 
ATOM     15  C   UNL     1       0.264  11.795  20.378  0.00  0.00    +0.000 C 
ENDBRANCH   1  13
BRANCH   4  16
ATOM     16  C   UNL     1       4.799   6.597  17.571  0.00  0.00    +0.000 C 
BRANCH  16  17
ATOM     17  N   UNL     1       4.510   5.517  16.587  0.00  0.00    +0.000 NA
ATOM     18  C   UNL     1       5.250   5.721  15.308  0.00  0.00    +0.000 C 
BRANCH  17  19
ATOM     19  S   UNL     1       4.783   3.934  17.224  0.00  0.00    +0.000 S 
ATOM     20  O   UNL     1       5.595   3.231  16.252  0.00  0.00    +0.000 OA
ATOM     21  O   UNL     1       5.243   4.124  18.588  0.00  0.00    +0.000 OA
BRANCH  19  22
ATOM     22  C   UNL     1       3.126   3.226  17.226  0.00  0.00    +0.000 C 
BRANCH  22  23
ATOM     23  C   UNL     1       2.574   3.248  18.628  0.00  0.00    +0.000 A 
ATOM     24  C   UNL     1       3.248   2.589  19.669  0.00  0.00    +0.000 A 
ATOM     25  C   UNL     1       2.745   2.618  20.970  0.00  0.00    +0.000 A 
ATOM     26  C   UNL     1       1.565   3.306  21.246  0.00  0.00    +0.000 A 
ATOM     27  C   UNL     1       0.886   3.960  20.220  0.00  0.00    +0.000 A 
ATOM     28  C   UNL     1       1.384   3.930  18.917  0.00  0.00    +0.000 A 
ENDBRANCH  22  23
ENDBRANCH  19  22
ENDBRANCH  17  19
ENDBRANCH  16  17
ENDBRANCH   4  16
TORSDOF 6
ENDMDL
MODEL 4
REMARK VINA RESULT:      -7.5      2.246      2.953
REMARK  Name = 
REMARK  8 active torsions:
REMARK  status: ('A' for Active; 'I' for Inactive)
REMARK    1  A    between atoms: C_1  and  C_2
REMARK    2  A    between atoms: N_7  and  C_8
REMARK    3  A    between atoms: C_11  and  C_12
REMARK    4  A    between atoms: C_12  and  N_13
REMARK    5  A    between atoms: N_13  and  C_14
REMARK    6  A    between atoms: N_13  and  S_15
REMARK    7  A    between atoms: S_15  and  C_18
REMARK    8  A    between atoms: C_18  and  C_19
REMARK                            x       y       z     vdW  Elec       q    Type
REMARK                         _______ _______ _______ _____ _____    ______ ____
ROOT
ATOM      1  C   UNL     1       1.466   8.814  20.025  0.00  0.00    +0.000 A 
ATOM      2  C   UNL     1       1.840   8.480  18.713  0.00  0.00    +0.000 A 
ATOM      3  C   UNL     1       2.110   7.160  18.331  0.00  0.00    +0.000 A 
ATOM      4  C   UNL     1       2.018   6.127  19.271  0.00  0.00    +0.000 A 
ATOM      5  C   UNL     1       1.667   6.446  20.583  0.00  0.00    +0.000 A 
ATOM      6  C   UNL     1       1.390   7.766  20.949  0.00  0.00    +0.000 A 
ENDROOT
BRANCH   1  13
ATOM      7  C   UNL     1      -1.807  13.536  22.497  0.00  0.00    +0.000 C 
ATOM      8  C   UNL     1      -1.562  13.195  21.049  0.00  0.00    +0.000 C 
ATOM      9  O   UNL     1      -1.845  14.008  20.168  0.00  0.00    +0.000 OA
ATOM     10  N   UNL     1      -0.967  11.979  20.777  0.00  0.00    +0.000 N 
ATOM     11  C   UNL     1      -0.567  11.648  19.404  0.00  0.00    +0.000 C 
ATOM     12  C   UNL     1       0.893  11.159  19.346  0.00  0.00    +0.000 C 
ATOM     13  N   UNL     1       1.167  10.121  20.359  0.00  0.00    +0.000 N 
ATOM     14  C   UNL     1       0.734  10.435  21.731  0.00  0.00    +0.000 C 
ATOM     15  C   UNL     1      -0.735  10.898  21.742  0.00  0.00    +0.000 C 
ENDBRANCH   1  13
BRANCH   4  16
ATOM     16  C   UNL     1       2.222   4.686  18.869  0.00  0.00    +0.000 C 
BRANCH  16  17
ATOM     17  N   UNL     1       2.975   3.855  19.848  0.00  0.00    +0.000 NA
ATOM     18  C   UNL     1       2.123   2.779  20.433  0.00  0.00    +0.000 C 
BRANCH  17  19
ATOM     19  S   UNL     1       4.441   3.209  19.200  0.00  0.00    +0.000 S 
ATOM     20  O   UNL     1       4.994   2.335  20.214  0.00  0.00    +0.000 OA
ATOM     21  O   UNL     1       4.109   2.708  17.878  0.00  0.00    +0.000 OA
BRANCH  19  22
ATOM     22  C   UNL     1       5.480   4.675  19.059  0.00  0.00    +0.000 C 
BRANCH  22  23
ATOM     23  C   UNL     1       5.782   4.936  17.605  0.00  0.00    +0.000 A 
ATOM     24  C   UNL     1       6.897   4.342  16.992  0.00  0.00    +0.000 A 
ATOM     25  C   UNL     1       7.172   4.574  15.643  0.00  0.00    +0.000 A 
ATOM     26  C   UNL     1       6.336   5.400  14.894  0.00  0.00    +0.000 A 
ATOM     27  C   UNL     1       5.230   5.997  15.494  0.00  0.00    +0.000 A 
ATOM     28  C   UNL     1       4.954   5.771  16.843  0.00  0.00    +0.000 A 
ENDBRANCH  22  23
ENDBRANCH  19  22
ENDBRANCH  17  19
ENDBRANCH  16  17
ENDBRANCH   4  16
TORSDOF 6
ENDMDL
MODEL 5
REMARK VINA RESULT:      -7.5      2.469      4.429
REMARK  Name = 
REMARK  8 active torsions:
REMARK  status: ('A' for Active; 'I' for Inactive)
REMARK    1  A    between atoms: C_1  and  C_2
REMARK    2  A    between atoms: N_7  and  C_8
REMARK    3  A    between atoms: C_11  and  C_12
REMARK    4  A    between atoms: C_12  and  N_13
REMARK    5  A    between atoms: N_13  and  C_14
REMARK    6  A    between atoms: N_13  and  S_15
REMARK    7  A    between atoms: S_15  and  C_18
REMARK    8  A    between atoms: C_18  and  C_19
REMARK                            x       y       z     vdW  Elec       q    Type
REMARK                         _______ _______ _______ _____ _____    ______ ____
ROOT
ATOM      1  C   UNL     1       1.197   8.847  19.459  0.00  0.00    +0.000 A 
ATOM      2  C   UNL     1       1.750   7.705  20.061  0.00  0.00    +0.000 A 
ATOM      3  C   UNL     1       2.740   6.939  19.433  0.00  0.00    +0.000 A 
ATOM      4  C   UNL     1       3.203   7.300  18.162  0.00  0.00    +0.000 A 
ATOM      5  C   UNL     1       2.650   8.421  17.543  0.00  0.00    +0.000 A 
ATOM      6  C   UNL     1       1.670   9.184  18.186  0.00  0.00    +0.000 A 
ENDROOT
BRANCH   1  13
ATOM      7  C   UNL     1      -2.623  13.685  20.511  0.00  0.00    +0.000 C 
ATOM      8  C   UNL     1      -1.375  13.272  21.250  0.00  0.00    +0.000 C 
ATOM      9  O   UNL     1      -1.104  13.786  22.335  0.00  0.00    +0.000 OA
ATOM     10  N   UNL     1      -0.607  12.274  20.684  0.00  0.00    +0.000 N 
ATOM     11  C   UNL     1       0.537  11.722  21.420  0.00  0.00    +0.000 C 
ATOM     12  C   UNL     1       0.491  10.183  21.460  0.00  0.00    +0.000 C 
ATOM     13  N   UNL     1       0.252   9.604  20.123  0.00  0.00    +0.000 N 
ATOM     14  C   UNL     1      -0.873  10.181  19.368  0.00  0.00    +0.000 C 
ATOM     15  C   UNL     1      -0.773  11.717  19.337  0.00  0.00    +0.000 C 
ENDBRANCH   1  13
BRANCH   4  16
ATOM     16  C   UNL     1       4.327   6.543  17.497  0.00  0.00    +0.000 C 
BRANCH  16  17
ATOM     17  N   UNL     1       4.266   5.062  17.640  0.00  0.00    +0.000 NA
ATOM     18  C   UNL     1       4.327   4.374  16.317  0.00  0.00    +0.000 C 
BRANCH  17  19
ATOM     19  S   UNL     1       5.457   4.439  18.726  0.00  0.00    +0.000 S 
ATOM     20  O   UNL     1       6.648   4.195  17.939  0.00  0.00    +0.000 OA
ATOM     21  O   UNL     1       5.480   5.347  19.859  0.00  0.00    +0.000 OA
BRANCH  19  22
ATOM     22  C   UNL     1       4.744   2.859  19.218  0.00  0.00    +0.000 C 
BRANCH  22  23
ATOM     23  C   UNL     1       3.281   3.044  19.527  0.00  0.00    +0.000 A 
ATOM     24  C   UNL     1       2.302   2.630  18.610  0.00  0.00    +0.000 A 
ATOM     25  C   UNL     1       0.946   2.792  18.899  0.00  0.00    +0.000 A 
ATOM     26  C   UNL     1       0.554   3.365  20.107  0.00  0.00    +0.000 A 
ATOM     27  C   UNL     1       1.517   3.783  21.022  0.00  0.00    +0.000 A 
ATOM     28  C   UNL     1       2.874   3.628  20.735  0.00  0.00    +0.000 A 
ENDBRANCH  22  23
ENDBRANCH  19  22
ENDBRANCH  17  19
ENDBRANCH  16  17
ENDBRANCH   4  16
TORSDOF 6
ENDMDL
MODEL 6
REMARK VINA RESULT:      -7.5      2.640      4.580
REMARK  Name = 
REMARK  8 active torsions:
REMARK  status: ('A' for Active; 'I' for Inactive)
REMARK    1  A    between atoms: C_1  and  C_2
REMARK    2  A    between atoms: N_7  and  C_8
REMARK    3  A    between atoms: C_11  and  C_12
REMARK    4  A    between atoms: C_12  and  N_13
REMARK    5  A    between atoms: N_13  and  C_14
REMARK    6  A    between atoms: N_13  and  S_15
REMARK    7  A    between atoms: S_15  and  C_18
REMARK    8  A    between atoms: C_18  and  C_19
REMARK                            x       y       z     vdW  Elec       q    Type
REMARK                         _______ _______ _______ _____ _____    ______ ____
ROOT
ATOM      1  C   UNL     1       0.966   9.311  19.341  0.00  0.00    +0.000 A 
ATOM      2  C   UNL     1       1.266   8.352  20.322  0.00  0.00    +0.000 A 
ATOM      3  C   UNL     1       2.209   7.340  20.107  0.00  0.00    +0.000 A 
ATOM      4  C   UNL     1       2.878   7.255  18.881  0.00  0.00    +0.000 A 
ATOM      5  C   UNL     1       2.577   8.189  17.889  0.00  0.00    +0.000 A 
ATOM      6  C   UNL     1       1.642   9.202  18.121  0.00  0.00    +0.000 A 
ENDROOT
BRANCH   1  13
ATOM      7  C   UNL     1      -1.094  15.175  20.042  0.00  0.00    +0.000 C 
ATOM      8  C   UNL     1      -0.889  14.101  21.080  0.00  0.00    +0.000 C 
ATOM      9  O   UNL     1      -1.343  14.247  22.215  0.00  0.00    +0.000 OA
ATOM     10  N   UNL     1      -0.232  12.954  20.683  0.00  0.00    +0.000 N 
ATOM     11  C   UNL     1      -0.129  11.812  21.599  0.00  0.00    +0.000 C 
ATOM     12  C   UNL     1      -0.576  10.503  20.920  0.00  0.00    +0.000 C 
ATOM     13  N   UNL     1       0.061  10.322  19.599  0.00  0.00    +0.000 N 
ATOM     14  C   UNL     1      -0.009  11.479  18.692  0.00  0.00    +0.000 C 
ATOM     15  C   UNL     1       0.466  12.758  19.407  0.00  0.00    +0.000 C 
ENDBRANCH   1  13
BRANCH   4  16
ATOM     16  C   UNL     1       3.958   6.225  18.651  0.00  0.00    +0.000 C 
BRANCH  16  17
ATOM     17  N   UNL     1       4.008   5.655  17.276  0.00  0.00    +0.000 NA
ATOM     18  C   UNL     1       4.834   6.492  16.358  0.00  0.00    +0.000 C 
BRANCH  17  19
ATOM     19  S   UNL     1       4.518   4.004  17.249  0.00  0.00    +0.000 S 
ATOM     20  O   UNL     1       5.097   3.771  15.942  0.00  0.00    +0.000 OA
ATOM     21  O   UNL     1       5.295   3.804  18.459  0.00  0.00    +0.000 OA
BRANCH  19  22
ATOM     22  C   UNL     1       2.956   3.113  17.366  0.00  0.00    +0.000 C 
BRANCH  22  23
ATOM     23  C   UNL     1       2.465   3.150  18.790  0.00  0.00    +0.000 A 
ATOM     24  C   UNL     1       3.182   2.501  19.808  0.00  0.00    +0.000 A 
ATOM     25  C   UNL     1       2.734   2.543  21.129  0.00  0.00    +0.000 A 
ATOM     26  C   UNL     1       1.567   3.236  21.447  0.00  0.00    +0.000 A 
ATOM     27  C   UNL     1       0.846   3.880  20.445  0.00  0.00    +0.000 A 
ATOM     28  C   UNL     1       1.288   3.836  19.122  0.00  0.00    +0.000 A 
ENDBRANCH  22  23
ENDBRANCH  19  22
ENDBRANCH  17  19
ENDBRANCH  16  17
ENDBRANCH   4  16
TORSDOF 6
ENDMDL
MODEL 7
REMARK VINA RESULT:      -7.5      2.324      4.466
REMARK  Name = 
REMARK  8 active torsions:
REMARK  status: ('A' for Active; 'I' for Inactive)
REMARK    1  A    between atoms: C_1  and  C_2
REMARK    2  A    between atoms: N_7  and  C_8
REMARK    3  A    between atoms: C_11  and  C_12
REMARK    4  A    between atoms: C_12  and  N_13
REMARK    5  A    between atoms: N_13  and  C_14
REMARK    6  A    between atoms: N_13  and  S_15
REMARK    7  A    between atoms: S_15  and  C_18
REMARK    8  A    between atoms: C_18  and  C_19
REMARK                            x       y       z     vdW  Elec       q    Type
REMARK                         _______ _______ _______ _____ _____    ______ ____
ROOT
ATOM      1  C   UNL     1       1.283   8.652  19.351  0.00  0.00    +0.000 A 
ATOM      2  C   UNL     1       1.809   9.139  18.143  0.00  0.00    +0.000 A 
ATOM      3  C   UNL     1       2.893   8.524  17.504  0.00  0.00    +0.000 A 
ATOM      4  C   UNL     1       3.491   7.394  18.071  0.00  0.00    +0.000 A 
ATOM      5  C   UNL     1       2.992   6.909  19.281  0.00  0.00    +0.000 A 
ATOM      6  C   UNL     1       1.902   7.525  19.903  0.00  0.00    +0.000 A 
ENDROOT
BRANCH   1  13
ATOM      7  C   UNL     1      -2.274  13.336  21.477  0.00  0.00    +0.000 C 
ATOM      8  C   UNL     1      -1.540  12.266  22.245  0.00  0.00    +0.000 C 
ATOM      9  O   UNL     1      -1.772  12.099  23.443  0.00  0.00    +0.000 OA
ATOM     10  N   UNL     1      -0.662  11.469  21.538  0.00  0.00    +0.000 N 
ATOM     11  C   UNL     1      -0.029  10.316  22.190  0.00  0.00    +0.000 C 
ATOM     12  C   UNL     1      -0.186   9.036  21.347  0.00  0.00    +0.000 C 
ATOM     13  N   UNL     1       0.187   9.257  19.935  0.00  0.00    +0.000 N 
ATOM     14  C   UNL     1      -0.419  10.433  19.290  0.00  0.00    +0.000 C 
ATOM     15  C   UNL     1      -0.218  11.690  20.157  0.00  0.00    +0.000 C 
ENDBRANCH   1  13
BRANCH   4  16
ATOM     16  C   UNL     1       4.606   6.662  17.363  0.00  0.00    +0.000 C 
BRANCH  16  17
ATOM     17  N   UNL     1       4.535   5.176  17.434  0.00  0.00    +0.000 NA
ATOM     18  C   UNL     1       4.731   4.548  16.095  0.00  0.00    +0.000 C 
BRANCH  17  19
ATOM     19  S   UNL     1       5.613   4.504  18.606  0.00  0.00    +0.000 S 
ATOM     20  O   UNL     1       6.846   4.201  17.908  0.00  0.00    +0.000 OA
ATOM     21  O   UNL     1       5.596   5.415  19.736  0.00  0.00    +0.000 OA
BRANCH  19  22
ATOM     22  C   UNL     1       4.793   2.961  19.046  0.00  0.00    +0.000 C 
BRANCH  22  23
ATOM     23  C   UNL     1       3.373   3.249  19.459  0.00  0.00    +0.000 A 
ATOM     24  C   UNL     1       2.339   3.238  18.509  0.00  0.00    +0.000 A 
ATOM     25  C   UNL     1       1.022   3.494  18.892  0.00  0.00    +0.000 A 
ATOM     26  C   UNL     1       0.723   3.762  20.226  0.00  0.00    +0.000 A 
ATOM     27  C   UNL     1       1.741   3.779  21.176  0.00  0.00    +0.000 A 
ATOM     28  C   UNL     1       3.061   3.528  20.797  0.00  0.00    +0.000 A 
ENDBRANCH  22  23
ENDBRANCH  19  22
ENDBRANCH  17  19
ENDBRANCH  16  17
ENDBRANCH   4  16
TORSDOF 6
ENDMDL
MODEL 8
REMARK VINA RESULT:      -7.4      2.577      4.380
REMARK  Name = 
REMARK  8 active torsions:
REMARK  status: ('A' for Active; 'I' for Inactive)
REMARK    1  A    between atoms: C_1  and  C_2
REMARK    2  A    between atoms: N_7  and  C_8
REMARK    3  A    between atoms: C_11  and  C_12
REMARK    4  A    between atoms: C_12  and  N_13
REMARK    5  A    between atoms: N_13  and  C_14
REMARK    6  A    between atoms: N_13  and  S_15
REMARK    7  A    between atoms: S_15  and  C_18
REMARK    8  A    between atoms: C_18  and  C_19
REMARK                            x       y       z     vdW  Elec       q    Type
REMARK                         _______ _______ _______ _____ _____    ______ ____
ROOT
ATOM      1  C   UNL     1       1.184   9.553  18.901  0.00  0.00    +0.000 A 
ATOM      2  C   UNL     1       1.300   8.675  19.991  0.00  0.00    +0.000 A 
ATOM      3  C   UNL     1       2.130   7.548  19.952  0.00  0.00    +0.000 A 
ATOM      4  C   UNL     1       2.869   7.263  18.799  0.00  0.00    +0.000 A 
ATOM      5  C   UNL     1       2.750   8.115  17.701  0.00  0.00    +0.000 A 
ATOM      6  C   UNL     1       1.926   9.244  17.757  0.00  0.00    +0.000 A 
ENDROOT
BRANCH   1  13
ATOM      7  C   UNL     1      -2.735  13.666  21.517  0.00  0.00    +0.000 C 
ATOM      8  C   UNL     1      -2.982  12.686  20.397  0.00  0.00    +0.000 C 
ATOM      9  O   UNL     1      -4.006  12.771  19.719  0.00  0.00    +0.000 OA
ATOM     10  N   UNL     1      -1.997  11.752  20.146  0.00  0.00    +0.000 N 
ATOM     11  C   UNL     1      -2.105  10.866  18.981  0.00  0.00    +0.000 C 
ATOM     12  C   UNL     1      -0.810  10.873  18.146  0.00  0.00    +0.000 C 
ATOM     13  N   UNL     1       0.388  10.679  18.987  0.00  0.00    +0.000 N 
ATOM     14  C   UNL     1       0.481  11.541  20.177  0.00  0.00    +0.000 C 
ATOM     15  C   UNL     1      -0.826  11.485  20.989  0.00  0.00    +0.000 C 
ENDBRANCH   1  13
BRANCH   4  16
ATOM     16  C   UNL     1       3.834   6.102  18.757  0.00  0.00    +0.000 C 
BRANCH  16  17
ATOM     17  N   UNL     1       4.115   5.559  17.398  0.00  0.00    +0.000 NA
ATOM     18  C   UNL     1       4.994   6.470  16.608  0.00  0.00    +0.000 C 
BRANCH  17  19
ATOM     19  S   UNL     1       4.747   3.951  17.432  0.00  0.00    +0.000 S 
ATOM     20  O   UNL     1       5.408   3.740  16.161  0.00  0.00    +0.000 OA
ATOM     21  O   UNL     1       5.473   3.831  18.684  0.00  0.00    +0.000 OA
BRANCH  19  22
ATOM     22  C   UNL     1       3.251   2.949  17.490  0.00  0.00    +0.000 C 
BRANCH  22  23
ATOM     23  C   UNL     1       2.606   3.089  18.845  0.00  0.00    +0.000 A 
ATOM     24  C   UNL     1       3.227   2.558  19.987  0.00  0.00    +0.000 A 
ATOM     25  C   UNL     1       2.637   2.697  21.244  0.00  0.00    +0.000 A 
ATOM     26  C   UNL     1       1.423   3.368  21.373  0.00  0.00    +0.000 A 
ATOM     27  C   UNL     1       0.796   3.895  20.246  0.00  0.00    +0.000 A 
ATOM     28  C   UNL     1       1.381   3.754  18.987  0.00  0.00    +0.000 A 
ENDBRANCH  22  23
ENDBRANCH  19  22
ENDBRANCH  17  19
ENDBRANCH  16  17
ENDBRANCH   4  16
TORSDOF 6
ENDMDL
MODEL 9
REMARK VINA RESULT:      -7.4      2.427      3.093
REMARK  Name = 
REMARK  8 active torsions:
REMARK  status: ('A' for Active; 'I' for Inactive)
REMARK    1  A    between atoms: C_1  and  C_2
REMARK    2  A    between atoms: N_7  and  C_8
REMARK    3  A    between atoms: C_11  and  C_12
REMARK    4  A    between atoms: C_12  and  N_13
REMARK    5  A    between atoms: N_13  and  C_14
REMARK    6  A    between atoms: N_13  and  S_15
REMARK    7  A    between atoms: S_15  and  C_18
REMARK    8  A    between atoms: C_18  and  C_19
REMARK                            x       y       z     vdW  Elec       q    Type
REMARK                         _______ _______ _______ _____ _____    ______ ____
ROOT
ATOM      1  C   UNL     1       1.314   8.966  19.092  0.00  0.00    +0.000 A 
ATOM      2  C   UNL     1       1.196   8.414  20.378  0.00  0.00    +0.000 A 
ATOM      3  C   UNL     1       1.794   7.196  20.721  0.00  0.00    +0.000 A 
ATOM      4  C   UNL     1       2.531   6.485  19.768  0.00  0.00    +0.000 A 
ATOM      5  C   UNL     1       2.642   7.011  18.480  0.00  0.00    +0.000 A 
ATOM      6  C   UNL     1       2.048   8.233  18.153  0.00  0.00    +0.000 A 
ENDROOT
BRANCH   1  13
ATOM      7  C   UNL     1       0.379  15.138  19.472  0.00  0.00    +0.000 C 
ATOM      8  C   UNL     1      -0.519  14.005  19.901  0.00  0.00    +0.000 C 
ATOM      9  O   UNL     1      -1.692  14.228  20.200  0.00  0.00    +0.000 OA
ATOM     10  N   UNL     1       0.017  12.733  19.886  0.00  0.00    +0.000 N 
ATOM     11  C   UNL     1      -0.841  11.572  20.149  0.00  0.00    +0.000 C 
ATOM     12  C   UNL     1      -0.676  10.492  19.062  0.00  0.00    +0.000 C 
ATOM     13  N   UNL     1       0.745  10.190  18.797  0.00  0.00    +0.000 N 
ATOM     14  C   UNL     1       1.615  11.355  18.569  0.00  0.00    +0.000 C 
ATOM     15  C   UNL     1       1.432  12.396  19.690  0.00  0.00    +0.000 C 
ENDBRANCH   1  13
BRANCH   4  16
ATOM     16  C   UNL     1       3.256   5.211  20.132  0.00  0.00    +0.000 C 
BRANCH  16  17
ATOM     17  N   UNL     1       2.555   3.952  19.757  0.00  0.00    +0.000 NA
ATOM     18  C   UNL     1       1.086   4.163  19.598  0.00  0.00    +0.000 C 
BRANCH  17  19
ATOM     19  S   UNL     1       3.234   3.191  18.363  0.00  0.00    +0.000 S 
ATOM     20  O   UNL     1       3.281   1.772  18.647  0.00  0.00    +0.000 OA
ATOM     21  O   UNL     1       2.492   3.703  17.224  0.00  0.00    +0.000 OA
BRANCH  19  22
ATOM     22  C   UNL     1       4.914   3.842  18.346  0.00  0.00    +0.000 C 
BRANCH  22  23
ATOM     23  C   UNL     1       5.252   4.319  16.957  0.00  0.00    +0.000 A 
ATOM     24  C   UNL     1       5.083   5.668  16.607  0.00  0.00    +0.000 A 
ATOM     25  C   UNL     1       5.406   6.113  15.324  0.00  0.00    +0.000 A 
ATOM     26  C   UNL     1       5.902   5.217  14.379  0.00  0.00    +0.000 A 
ATOM     27  C   UNL     1       6.070   3.876  14.715  0.00  0.00    +0.000 A 
ATOM     28  C   UNL     1       5.744   3.425  15.995  0.00  0.00    +0.000 A 
ENDBRANCH  22  23
ENDBRANCH  19  22
ENDBRANCH  17  19
ENDBRANCH  16  17
ENDBRANCH   4  16
TORSDOF 6
ENDMDL
