MODEL 1
REMARK VINA RESULT:      -6.7      0.000      0.000
REMARK  Name = 
REMARK  9 active torsions:
REMARK  status: ('A' for Active; 'I' for Inactive)
REMARK    1  A    between atoms: C_1  and  N_2
REMARK    2  A    between atoms: N_2  and  C_3
REMARK    3  A    between atoms: C_4  and  C_6
REMARK    4  A    between atoms: C_10  and  N_11
REMARK    5  A    between atoms: N_11  and  C_12
REMARK    6  A    between atoms: C_12  and  C_13
REMARK    7  A    between atoms: C_13  and  N_14
REMARK    8  A    between atoms: N_14  and  C_15
REMARK    9  A    between atoms: N_14  and  C_16
REMARK                            x       y       z     vdW  Elec       q    Type
REMARK                         _______ _______ _______ _____ _____    ______ ____
ROOT
ATOM      1  N   UNL     1       2.714   7.309  18.756  0.00  0.00    +0.000 N 
ATOM      2  H   UNL     1       3.332   7.787  18.106  0.00  0.00    +0.000 HD
ENDROOT
BRANCH   1   7
ATOM      3  C   UNL     1       0.393   9.974  19.522  0.00  0.00    +0.000 A 
ATOM      4  C   UNL     1       0.030   9.716  20.838  0.00  0.00    +0.000 A 
ATOM      5  C   UNL     1       0.615   8.630  21.471  0.00  0.00    +0.000 A 
ATOM      6  C   UNL     1       1.546   7.858  20.775  0.00  0.00    +0.000 A 
ATOM      7  C   UNL     1       1.856   8.161  19.449  0.00  0.00    +0.000 A 
ATOM      8  N   UNL     1       1.285   9.211  18.831  0.00  0.00    +0.000 NA
BRANCH   3  12
ATOM      9  C   UNL     1      -0.279  13.585  18.423  0.00  0.00    +0.000 C 
ATOM     10  N   UNL     1       0.407  12.439  18.986  0.00  0.00    +0.000 N 
ATOM     11  C   UNL     1       1.706  12.655  19.598  0.00  0.00    +0.000 C 
ATOM     12  C   UNL     1      -0.189  11.180  18.839  0.00  0.00    +0.000 C 
ATOM     13  O   UNL     1      -1.200  11.024  18.144  0.00  0.00    +0.000 OA
ENDBRANCH   3  12
ENDBRANCH   1   7
BRANCH   1  14
ATOM     14  C   UNL     1       2.189   6.039  18.241  0.00  0.00    +0.000 C 
BRANCH  14  15
ATOM     15  C   UNL     1       3.084   4.780  18.611  0.00  0.00    +0.000 C 
ATOM     16  C   UNL     1       3.035   4.587  20.162  0.00  0.00    +0.000 C 
ATOM     17  C   UNL     1       1.672   4.170  20.719  0.00  0.00    +0.000 C 
ATOM     18  C   UNL     1       1.077   2.970  19.992  0.00  0.00    +0.000 C 
ATOM     19  C   UNL     1       1.057   3.158  18.481  0.00  0.00    +0.000 C 
ATOM     20  C   UNL     1       2.445   3.518  17.945  0.00  0.00    +0.000 C 
BRANCH  15  21
ATOM     21  N   UNL     1       4.497   4.966  18.105  0.00  0.00    +0.000 NA
ATOM     22  C   UNL     1       5.516   4.890  19.162  0.00  0.00    +0.000 C 
ATOM     23  C   UNL     1       4.900   4.061  17.020  0.00  0.00    +0.000 C 
ENDBRANCH  15  21
ENDBRANCH  14  15
ENDBRANCH   1  14
TORSDOF 5
ENDMDL
MODEL 2
REMARK VINA RESULT:      -6.7      3.880      7.026
REMARK  Name = 
REMARK  9 active torsions:
REMARK  status: ('A' for Active; 'I' for Inactive)
REMARK    1  A    between atoms: C_1  and  N_2
REMARK    2  A    between atoms: N_2  and  C_3
REMARK    3  A    between atoms: C_4  and  C_6
REMARK    4  A    between atoms: C_10  and  N_11
REMARK    5  A    between atoms: N_11  and  C_12
REMARK    6  A    between atoms: C_12  and  C_13
REMARK    7  A    between atoms: C_13  and  N_14
REMARK    8  A    between atoms: N_14  and  C_15
REMARK    9  A    between atoms: N_14  and  C_16
REMARK                            x       y       z     vdW  Elec       q    Type
REMARK                         _______ _______ _______ _____ _____    ______ ____
ROOT
ATOM      1  N   UNL     1       4.891   3.553  18.807  0.00  0.00    +0.000 N 
ATOM      2  H   UNL     1       4.405   2.913  18.185  0.00  0.00    +0.000 HD
ENDROOT
BRANCH   1   7
ATOM      3  C   UNL     1       6.810   5.194  16.218  0.00  0.00    +0.000 A 
ATOM      4  C   UNL     1       7.425   6.243  16.889  0.00  0.00    +0.000 A 
ATOM      5  C   UNL     1       7.196   6.365  18.252  0.00  0.00    +0.000 A 
ATOM      6  C   UNL     1       6.379   5.429  18.889  0.00  0.00    +0.000 A 
ATOM      7  C   UNL     1       5.779   4.407  18.154  0.00  0.00    +0.000 A 
ATOM      8  N   UNL     1       5.995   4.292  16.830  0.00  0.00    +0.000 NA
BRANCH   3  12
ATOM      9  C   UNL     1       6.634   3.996  12.581  0.00  0.00    +0.000 C 
ATOM     10  N   UNL     1       6.234   4.251  13.951  0.00  0.00    +0.000 N 
ATOM     11  C   UNL     1       4.936   3.767  14.383  0.00  0.00    +0.000 C 
ATOM     12  C   UNL     1       7.092   5.015  14.753  0.00  0.00    +0.000 C 
ATOM     13  O   UNL     1       8.094   5.564  14.281  0.00  0.00    +0.000 OA
ENDBRANCH   3  12
ENDBRANCH   1   7
BRANCH   1  14
ATOM     14  C   UNL     1       4.043   4.093  19.875  0.00  0.00    +0.000 C 
BRANCH  14  15
ATOM     15  C   UNL     1       2.756   4.858  19.345  0.00  0.00    +0.000 C 
ATOM     16  C   UNL     1       2.357   4.242  17.965  0.00  0.00    +0.000 C 
ATOM     17  C   UNL     1       1.853   2.797  18.024  0.00  0.00    +0.000 C 
ATOM     18  C   UNL     1       0.755   2.595  19.060  0.00  0.00    +0.000 C 
ATOM     19  C   UNL     1       1.143   3.133  20.431  0.00  0.00    +0.000 C 
ATOM     20  C   UNL     1       1.587   4.596  20.350  0.00  0.00    +0.000 C 
BRANCH  15  21
ATOM     21  N   UNL     1       3.025   6.344  19.249  0.00  0.00    +0.000 NA
ATOM     22  C   UNL     1       3.083   6.843  17.867  0.00  0.00    +0.000 C 
ATOM     23  C   UNL     1       2.098   7.200  20.002  0.00  0.00    +0.000 C 
ENDBRANCH  15  21
ENDBRANCH  14  15
ENDBRANCH   1  14
TORSDOF 5
ENDMDL
MODEL 3
REMARK VINA RESULT:      -6.6      4.514      7.141
REMARK  Name = 
REMARK  9 active torsions:
REMARK  status: ('A' for Active; 'I' for Inactive)
REMARK    1  A    between atoms: C_1  and  N_2
REMARK    2  A    between atoms: N_2  and  C_3
REMARK    3  A    between atoms: C_4  and  C_6
REMARK    4  A    between atoms: C_10  and  N_11
REMARK    5  A    between atoms: N_11  and  C_12
REMARK    6  A    between atoms: C_12  and  C_13
REMARK    7  A    between atoms: C_13  and  N_14
REMARK    8  A    between atoms: N_14  and  C_15
REMARK    9  A    between atoms: N_14  and  C_16
REMARK                            x       y       z     vdW  Elec       q    Type
REMARK                         _______ _______ _______ _____ _____    ______ ____
ROOT
ATOM      1  N   UNL     1       5.390   3.706  19.034  0.00  0.00    +0.000 N 
ATOM      2  H   UNL     1       5.116   2.854  18.552  0.00  0.00    +0.000 HD
ENDROOT
BRANCH   1   7
ATOM      3  C   UNL     1       6.983   5.285  16.197  0.00  0.00    +0.000 A 
ATOM      4  C   UNL     1       7.562   6.423  16.745  0.00  0.00    +0.000 A 
ATOM      5  C   UNL     1       7.423   6.628  18.110  0.00  0.00    +0.000 A 
ATOM      6  C   UNL     1       6.730   5.686  18.871  0.00  0.00    +0.000 A 
ATOM      7  C   UNL     1       6.159   4.572  18.257  0.00  0.00    +0.000 A 
ATOM      8  N   UNL     1       6.287   4.374  16.932  0.00  0.00    +0.000 NA
BRANCH   3  12
ATOM      9  C   UNL     1       6.569   3.881  12.654  0.00  0.00    +0.000 C 
ATOM     10  N   UNL     1       6.259   4.219  14.029  0.00  0.00    +0.000 N 
ATOM     11  C   UNL     1       4.985   3.777  14.568  0.00  0.00    +0.000 C 
ATOM     12  C   UNL     1       7.171   5.018  14.730  0.00  0.00    +0.000 C 
ATOM     13  O   UNL     1       8.146   5.526  14.166  0.00  0.00    +0.000 OA
ENDBRANCH   3  12
ENDBRANCH   1   7
BRANCH   1  14
ATOM     14  C   UNL     1       4.332   4.266  19.884  0.00  0.00    +0.000 C 
BRANCH  14  15
ATOM     15  C   UNL     1       2.890   4.227  19.219  0.00  0.00    +0.000 C 
ATOM     16  C   UNL     1       1.900   4.989  20.159  0.00  0.00    +0.000 C 
ATOM     17  C   UNL     1       2.146   6.496  20.271  0.00  0.00    +0.000 C 
ATOM     18  C   UNL     1       2.261   7.180  18.915  0.00  0.00    +0.000 C 
ATOM     19  C   UNL     1       3.266   6.492  18.000  0.00  0.00    +0.000 C 
ATOM     20  C   UNL     1       2.961   4.998  17.860  0.00  0.00    +0.000 C 
BRANCH  15  21
ATOM     21  N   UNL     1       2.457   2.799  18.974  0.00  0.00    +0.000 NA
ATOM     22  C   UNL     1       1.116   2.493  19.493  0.00  0.00    +0.000 C 
ATOM     23  C   UNL     1       2.514   2.355  17.574  0.00  0.00    +0.000 C 
ENDBRANCH  15  21
ENDBRANCH  14  15
ENDBRANCH   1  14
TORSDOF 5
ENDMDL
MODEL 4
REMARK VINA RESULT:      -6.5      0.988      1.263
REMARK  Name = 
REMARK  9 active torsions:
REMARK  status: ('A' for Active; 'I' for Inactive)
REMARK    1  A    between atoms: C_1  and  N_2
REMARK    2  A    between atoms: N_2  and  C_3
REMARK    3  A    between atoms: C_4  and  C_6
REMARK    4  A    between atoms: C_10  and  N_11
REMARK    5  A    between atoms: N_11  and  C_12
REMARK    6  A    between atoms: C_12  and  C_13
REMARK    7  A    between atoms: C_13  and  N_14
REMARK    8  A    between atoms: N_14  and  C_15
REMARK    9  A    between atoms: N_14  and  C_16
REMARK                            x       y       z     vdW  Elec       q    Type
REMARK                         _______ _______ _______ _____ _____    ______ ____
ROOT
ATOM      1  N   UNL     1       2.675   6.993  18.255  0.00  0.00    +0.000 N 
ATOM      2  H   UNL     1       2.899   7.412  17.357  0.00  0.00    +0.000 HD
ENDROOT
BRANCH   1   7
ATOM      3  C   UNL     1       1.042   9.903  19.647  0.00  0.00    +0.000 A 
ATOM      4  C   UNL     1       0.741   9.514  20.946  0.00  0.00    +0.000 A 
ATOM      5  C   UNL     1       1.133   8.246  21.350  0.00  0.00    +0.000 A 
ATOM      6  C   UNL     1       1.819   7.428  20.451  0.00  0.00    +0.000 A 
ATOM      7  C   UNL     1       2.076   7.875  19.155  0.00  0.00    +0.000 A 
ATOM      8  N   UNL     1       1.691   9.102  18.758  0.00  0.00    +0.000 NA
BRANCH   3  12
ATOM      9  C   UNL     1      -0.788  12.871  18.053  0.00  0.00    +0.000 C 
ATOM     10  N   UNL     1      -0.551  11.541  18.578  0.00  0.00    +0.000 N 
ATOM     11  C   UNL     1      -1.628  10.571  18.487  0.00  0.00    +0.000 C 
ATOM     12  C   UNL     1       0.674  11.294  19.211  0.00  0.00    +0.000 C 
ATOM     13  O   UNL     1       1.479  12.206  19.431  0.00  0.00    +0.000 OA
ENDBRANCH   3  12
ENDBRANCH   1   7
BRANCH   1  14
ATOM     14  C   UNL     1       2.156   5.624  18.152  0.00  0.00    +0.000 C 
BRANCH  14  15
ATOM     15  C   UNL     1       3.221   4.506  18.521  0.00  0.00    +0.000 C 
ATOM     16  C   UNL     1       3.205   4.312  20.073  0.00  0.00    +0.000 C 
ATOM     17  C   UNL     1       1.916   3.705  20.634  0.00  0.00    +0.000 C 
ATOM     18  C   UNL     1       1.497   2.431  19.911  0.00  0.00    +0.000 C 
ATOM     19  C   UNL     1       1.446   2.611  18.399  0.00  0.00    +0.000 C 
ATOM     20  C   UNL     1       2.768   3.165  17.859  0.00  0.00    +0.000 C 
BRANCH  15  21
ATOM     21  N   UNL     1       4.592   4.891  18.011  0.00  0.00    +0.000 NA
ATOM     22  C   UNL     1       5.622   4.928  19.060  0.00  0.00    +0.000 C 
ATOM     23  C   UNL     1       5.103   4.072  16.903  0.00  0.00    +0.000 C 
ENDBRANCH  15  21
ENDBRANCH  14  15
ENDBRANCH   1  14
TORSDOF 5
ENDMDL
MODEL 5
REMARK VINA RESULT:      -6.5      2.119      3.719
REMARK  Name = 
REMARK  9 active torsions:
REMARK  status: ('A' for Active; 'I' for Inactive)
REMARK    1  A    between atoms: C_1  and  N_2
REMARK    2  A    between atoms: N_2  and  C_3
REMARK    3  A    between atoms: C_4  and  C_6
REMARK    4  A    between atoms: C_10  and  N_11
REMARK    5  A    between atoms: N_11  and  C_12
REMARK    6  A    between atoms: C_12  and  C_13
REMARK    7  A    between atoms: C_13  and  N_14
REMARK    8  A    between atoms: N_14  and  C_15
REMARK    9  A    between atoms: N_14  and  C_16
REMARK                            x       y       z     vdW  Elec       q    Type
REMARK                         _______ _______ _______ _____ _____    ______ ____
ROOT
ATOM      1  N   UNL     1       3.389   6.540  19.094  0.00  0.00    +0.000 N 
ATOM      2  H   UNL     1       4.147   6.702  19.752  0.00  0.00    +0.000 HD
ENDROOT
BRANCH   1   7
ATOM      3  C   UNL     1       0.826   8.880  20.108  0.00  0.00    +0.000 A 
ATOM      4  C   UNL     1       0.689   9.707  19.001  0.00  0.00    +0.000 A 
ATOM      5  C   UNL     1       1.468   9.434  17.887  0.00  0.00    +0.000 A 
ATOM      6  C   UNL     1       2.337   8.342  17.917  0.00  0.00    +0.000 A 
ATOM      7  C   UNL     1       2.439   7.559  19.067  0.00  0.00    +0.000 A 
ATOM      8  N   UNL     1       1.688   7.827  20.152  0.00  0.00    +0.000 NA
BRANCH   3  12
ATOM      9  C   UNL     1      -0.869  10.546  23.116  0.00  0.00    +0.000 C 
ATOM     10  N   UNL     1      -0.122  10.401  21.883  0.00  0.00    +0.000 N 
ATOM     11  C   UNL     1       0.441  11.598  21.283  0.00  0.00    +0.000 C 
ATOM     12  C   UNL     1      -0.051   9.128  21.304  0.00  0.00    +0.000 C 
ATOM     13  O   UNL     1      -0.706   8.181  21.753  0.00  0.00    +0.000 OA
ENDBRANCH   3  12
ENDBRANCH   1   7
BRANCH   1  14
ATOM     14  C   UNL     1       3.829   5.945  17.826  0.00  0.00    +0.000 C 
BRANCH  14  15
ATOM     15  C   UNL     1       4.322   4.442  17.962  0.00  0.00    +0.000 C 
ATOM     16  C   UNL     1       4.847   3.974  16.565  0.00  0.00    +0.000 C 
ATOM     17  C   UNL     1       6.121   4.675  16.086  0.00  0.00    +0.000 C 
ATOM     18  C   UNL     1       7.232   4.661  17.128  0.00  0.00    +0.000 C 
ATOM     19  C   UNL     1       6.763   5.171  18.484  0.00  0.00    +0.000 C 
ATOM     20  C   UNL     1       5.521   4.414  18.965  0.00  0.00    +0.000 C 
BRANCH  15  21
ATOM     21  N   UNL     1       3.205   3.561  18.475  0.00  0.00    +0.000 NA
ATOM     22  C   UNL     1       1.967   3.664  17.689  0.00  0.00    +0.000 C 
ATOM     23  C   UNL     1       3.539   2.137  18.610  0.00  0.00    +0.000 C 
ENDBRANCH  15  21
ENDBRANCH  14  15
ENDBRANCH   1  14
TORSDOF 5
ENDMDL
MODEL 6
REMARK VINA RESULT:      -6.4      1.900      2.459
REMARK  Name = 
REMARK  9 active torsions:
REMARK  status: ('A' for Active; 'I' for Inactive)
REMARK    1  A    between atoms: C_1  and  N_2
REMARK    2  A    between atoms: N_2  and  C_3
REMARK    3  A    between atoms: C_4  and  C_6
REMARK    4  A    between atoms: C_10  and  N_11
REMARK    5  A    between atoms: N_11  and  C_12
REMARK    6  A    between atoms: C_12  and  C_13
REMARK    7  A    between atoms: C_13  and  N_14
REMARK    8  A    between atoms: N_14  and  C_15
REMARK    9  A    between atoms: N_14  and  C_16
REMARK                            x       y       z     vdW  Elec       q    Type
REMARK                         _______ _______ _______ _____ _____    ______ ____
ROOT
ATOM      1  N   UNL     1       3.121   6.426  19.759  0.00  0.00    +0.000 N 
ATOM      2  H   UNL     1       4.110   6.659  19.771  0.00  0.00    +0.000 HD
ENDROOT
BRANCH   1   7
ATOM      3  C   UNL     1       0.807   9.175  20.170  0.00  0.00    +0.000 A 
ATOM      4  C   UNL     1       0.788   9.769  18.914  0.00  0.00    +0.000 A 
ATOM      5  C   UNL     1       1.559   9.197  17.914  0.00  0.00    +0.000 A 
ATOM      6  C   UNL     1       2.302   8.051  18.200  0.00  0.00    +0.000 A 
ATOM      7  C   UNL     1       2.289   7.511  19.486  0.00  0.00    +0.000 A 
ATOM      8  N   UNL     1       1.547   8.069  20.461  0.00  0.00    +0.000 NA
BRANCH   3  12
ATOM      9  C   UNL     1      -0.763  11.580  22.709  0.00  0.00    +0.000 C 
ATOM     10  N   UNL     1      -0.006  11.113  21.564  0.00  0.00    +0.000 N 
ATOM     11  C   UNL     1       0.703  12.098  20.768  0.00  0.00    +0.000 C 
ATOM     12  C   UNL     1      -0.065   9.749  21.250  0.00  0.00    +0.000 C 
ATOM     13  O   UNL     1      -0.834   8.985  21.846  0.00  0.00    +0.000 OA
ENDBRANCH   3  12
ENDBRANCH   1   7
BRANCH   1  14
ATOM     14  C   UNL     1       2.829   5.133  19.129  0.00  0.00    +0.000 C 
BRANCH  14  15
ATOM     15  C   UNL     1       4.061   4.513  18.342  0.00  0.00    +0.000 C 
ATOM     16  C   UNL     1       4.807   3.530  19.301  0.00  0.00    +0.000 C 
ATOM     17  C   UNL     1       4.020   2.272  19.678  0.00  0.00    +0.000 C 
ATOM     18  C   UNL     1       3.454   1.543  18.467  0.00  0.00    +0.000 C 
ATOM     19  C   UNL     1       2.669   2.467  17.545  0.00  0.00    +0.000 C 
ATOM     20  C   UNL     1       3.501   3.686  17.138  0.00  0.00    +0.000 C 
BRANCH  15  21
ATOM     21  N   UNL     1       4.969   5.609  17.830  0.00  0.00    +0.000 NA
ATOM     22  C   UNL     1       6.364   5.473  18.276  0.00  0.00    +0.000 C 
ATOM     23  C   UNL     1       4.975   5.793  16.373  0.00  0.00    +0.000 C 
ENDBRANCH  15  21
ENDBRANCH  14  15
ENDBRANCH   1  14
TORSDOF 5
ENDMDL
MODEL 7
REMARK VINA RESULT:      -6.4      1.426      3.225
REMARK  Name = 
REMARK  9 active torsions:
REMARK  status: ('A' for Active; 'I' for Inactive)
REMARK    1  A    between atoms: C_1  and  N_2
REMARK    2  A    between atoms: N_2  and  C_3
REMARK    3  A    between atoms: C_4  and  C_6
REMARK    4  A    between atoms: C_10  and  N_11
REMARK    5  A    between atoms: N_11  and  C_12
REMARK    6  A    between atoms: C_12  and  C_13
REMARK    7  A    between atoms: C_13  and  N_14
REMARK    8  A    between atoms: N_14  and  C_15
REMARK    9  A    between atoms: N_14  and  C_16
REMARK                            x       y       z     vdW  Elec       q    Type
REMARK                         _______ _______ _______ _____ _____    ______ ____
ROOT
ATOM      1  N   UNL     1       2.673   6.907  17.817  0.00  0.00    +0.000 N 
ATOM      2  H   UNL     1       2.072   6.127  17.561  0.00  0.00    +0.000 HD
ENDROOT
BRANCH   1   7
ATOM      3  C   UNL     1       1.133   9.703  19.516  0.00  0.00    +0.000 A 
ATOM      4  C   UNL     1       0.942   9.230  20.808  0.00  0.00    +0.000 A 
ATOM      5  C   UNL     1       1.376   7.945  21.099  0.00  0.00    +0.000 A 
ATOM      6  C   UNL     1       1.994   7.194  20.098  0.00  0.00    +0.000 A 
ATOM      7  C   UNL     1       2.142   7.723  18.816  0.00  0.00    +0.000 A 
ATOM      8  N   UNL     1       1.715   8.967  18.530  0.00  0.00    +0.000 NA
BRANCH   3  12
ATOM      9  C   UNL     1      -0.812  12.735  18.204  0.00  0.00    +0.000 C 
ATOM     10  N   UNL     1      -0.528  11.375  18.618  0.00  0.00    +0.000 N 
ATOM     11  C   UNL     1      -1.582  10.386  18.478  0.00  0.00    +0.000 C 
ATOM     12  C   UNL     1       0.719  11.113  19.199  0.00  0.00    +0.000 C 
ATOM     13  O   UNL     1       1.507  12.026  19.470  0.00  0.00    +0.000 OA
ENDBRANCH   3  12
ENDBRANCH   1   7
BRANCH   1  14
ATOM     14  C   UNL     1       4.098   6.559  17.869  0.00  0.00    +0.000 C 
BRANCH  14  15
ATOM     15  C   UNL     1       4.372   4.998  17.963  0.00  0.00    +0.000 C 
ATOM     16  C   UNL     1       4.980   4.528  16.601  0.00  0.00    +0.000 C 
ATOM     17  C   UNL     1       6.381   5.068  16.298  0.00  0.00    +0.000 C 
ATOM     18  C   UNL     1       7.359   4.854  17.446  0.00  0.00    +0.000 C 
ATOM     19  C   UNL     1       6.814   5.360  18.776  0.00  0.00    +0.000 C 
ATOM     20  C   UNL     1       5.440   4.759  19.080  0.00  0.00    +0.000 C 
BRANCH  15  21
ATOM     21  N   UNL     1       3.100   4.255  18.304  0.00  0.00    +0.000 NA
ATOM     22  C   UNL     1       2.725   3.241  17.308  0.00  0.00    +0.000 C 
ATOM     23  C   UNL     1       3.078   3.620  19.629  0.00  0.00    +0.000 C 
ENDBRANCH  15  21
ENDBRANCH  14  15
ENDBRANCH   1  14
TORSDOF 5
ENDMDL
MODEL 8
REMARK VINA RESULT:      -6.4      1.845      3.273
REMARK  Name = 
REMARK  9 active torsions:
REMARK  status: ('A' for Active; 'I' for Inactive)
REMARK    1  A    between atoms: C_1  and  N_2
REMARK    2  A    between atoms: N_2  and  C_3
REMARK    3  A    between atoms: C_4  and  C_6
REMARK    4  A    between atoms: C_10  and  N_11
REMARK    5  A    between atoms: N_11  and  C_12
REMARK    6  A    between atoms: C_12  and  C_13
REMARK    7  A    between atoms: C_13  and  N_14
REMARK    8  A    between atoms: N_14  and  C_15
REMARK    9  A    between atoms: N_14  and  C_16
REMARK                            x       y       z     vdW  Elec       q    Type
REMARK                         _______ _______ _______ _____ _____    ______ ____
ROOT
ATOM      1  N   UNL     1       2.290   6.418  20.140  0.00  0.00    +0.000 N 
ATOM      2  H   UNL     1       2.090   6.359  21.135  0.00  0.00    +0.000 HD
ENDROOT
BRANCH   1   7
ATOM      3  C   UNL     1       1.074   9.797  19.718  0.00  0.00    +0.000 A 
ATOM      4  C   UNL     1       1.475  10.125  18.429  0.00  0.00    +0.000 A 
ATOM      5  C   UNL     1       2.144   9.159  17.693  0.00  0.00    +0.000 A 
ATOM      6  C   UNL     1       2.372   7.906  18.264  0.00  0.00    +0.000 A 
ATOM      7  C   UNL     1       1.957   7.646  19.569  0.00  0.00    +0.000 A 
ATOM      8  N   UNL     1       1.313   8.584  20.288  0.00  0.00    +0.000 NA
BRANCH   3  12
ATOM      9  C   UNL     1      -1.585  12.340  20.793  0.00  0.00    +0.000 C 
ATOM     10  N   UNL     1      -0.952  11.258  20.066  0.00  0.00    +0.000 N 
ATOM     11  C   UNL     1      -1.688  10.650  18.972  0.00  0.00    +0.000 C 
ATOM     12  C   UNL     1       0.299  10.813  20.510  0.00  0.00    +0.000 C 
ATOM     13  O   UNL     1       0.796  11.236  21.560  0.00  0.00    +0.000 OA
ENDBRANCH   3  12
ENDBRANCH   1   7
BRANCH   1  14
ATOM     14  C   UNL     1       3.553   5.776  19.755  0.00  0.00    +0.000 C 
BRANCH  14  15
ATOM     15  C   UNL     1       3.370   4.327  19.132  0.00  0.00    +0.000 C 
ATOM     16  C   UNL     1       3.072   4.487  17.606  0.00  0.00    +0.000 C 
ATOM     17  C   UNL     1       4.235   5.035  16.774  0.00  0.00    +0.000 C 
ATOM     18  C   UNL     1       5.537   4.280  17.009  0.00  0.00    +0.000 C 
ATOM     19  C   UNL     1       5.883   4.163  18.487  0.00  0.00    +0.000 C 
ATOM     20  C   UNL     1       4.723   3.559  19.285  0.00  0.00    +0.000 C 
BRANCH  15  21
ATOM     21  N   UNL     1       2.271   3.575  19.851  0.00  0.00    +0.000 NA
ATOM     22  C   UNL     1       1.529   2.648  18.984  0.00  0.00    +0.000 C 
ATOM     23  C   UNL     1       2.694   2.836  21.048  0.00  0.00    +0.000 C 
ENDBRANCH  15  21
ENDBRANCH  14  15
ENDBRANCH   1  14
TORSDOF 5
ENDMDL
MODEL 9
REMARK VINA RESULT:      -6.4      1.873      2.575
REMARK  Name = 
REMARK  9 active torsions:
REMARK  status: ('A' for Active; 'I' for Inactive)
REMARK    1  A    between atoms: C_1  and  N_2
REMARK    2  A    between atoms: N_2  and  C_3
REMARK    3  A    between atoms: C_4  and  C_6
REMARK    4  A    between atoms: C_10  and  N_11
REMARK    5  A    between atoms: N_11  and  C_12
REMARK    6  A    between atoms: C_12  and  C_13
REMARK    7  A    between atoms: C_13  and  N_14
REMARK    8  A    between atoms: N_14  and  C_15
REMARK    9  A    between atoms: N_14  and  C_16
REMARK                            x       y       z     vdW  Elec       q    Type
REMARK                         _______ _______ _______ _____ _____    ______ ____
ROOT
ATOM      1  N   UNL     1       3.445   6.685  18.971  0.00  0.00    +0.000 N 
ATOM      2  H   UNL     1       3.854   6.524  18.055  0.00  0.00    +0.000 HD
ENDROOT
BRANCH   1   7
ATOM      3  C   UNL     1       0.778   8.862  20.076  0.00  0.00    +0.000 A 
ATOM      4  C   UNL     1       0.529   9.656  18.964  0.00  0.00    +0.000 A 
ATOM      5  C   UNL     1       1.269   9.415  17.816  0.00  0.00    +0.000 A 
ATOM      6  C   UNL     1       2.213   8.387  17.820  0.00  0.00    +0.000 A 
ATOM      7  C   UNL     1       2.425   7.636  18.976  0.00  0.00    +0.000 A 
ATOM      8  N   UNL     1       1.713   7.872  20.093  0.00  0.00    +0.000 NA
BRANCH   3  12
ATOM      9  C   UNL     1      -0.814  10.438  23.187  0.00  0.00    +0.000 C 
ATOM     10  N   UNL     1      -0.113  10.331  21.923  0.00  0.00    +0.000 N 
ATOM     11  C   UNL     1       0.414  11.548  21.331  0.00  0.00    +0.000 C 
ATOM     12  C   UNL     1      -0.054   9.073  21.310  0.00  0.00    +0.000 C 
ATOM     13  O   UNL     1      -0.682   8.108  21.761  0.00  0.00    +0.000 OA
ENDBRANCH   3  12
ENDBRANCH   1   7
BRANCH   1  14
ATOM     14  C   UNL     1       3.275   5.459  19.762  0.00  0.00    +0.000 C 
BRANCH  14  15
ATOM     15  C   UNL     1       3.667   4.134  18.979  0.00  0.00    +0.000 C 
ATOM     16  C   UNL     1       3.274   2.909  19.868  0.00  0.00    +0.000 C 
ATOM     17  C   UNL     1       1.769   2.714  20.070  0.00  0.00    +0.000 C 
ATOM     18  C   UNL     1       0.990   2.721  18.761  0.00  0.00    +0.000 C 
ATOM     19  C   UNL     1       1.309   3.938  17.902  0.00  0.00    +0.000 C 
ATOM     20  C   UNL     1       2.816   4.076  17.668  0.00  0.00    +0.000 C 
BRANCH  15  21
ATOM     21  N   UNL     1       5.139   4.138  18.633  0.00  0.00    +0.000 NA
ATOM     22  C   UNL     1       5.406   4.305  17.196  0.00  0.00    +0.000 C 
ATOM     23  C   UNL     1       5.955   5.118  19.362  0.00  0.00    +0.000 C 
ENDBRANCH  15  21
ENDBRANCH  14  15
ENDBRANCH   1  14
TORSDOF 5
ENDMDL
