MODEL 1
REMARK VINA RESULT:      -6.9      0.000      0.000
REMARK  Name = 
REMARK  11 active torsions:
REMARK  status: ('A' for Active; 'I' for Inactive)
REMARK    1  A    between atoms: C_1  and  C_2
REMARK    2  A    between atoms: C_2  and  C_3
REMARK    3  A    between atoms: C_6  and  N_7
REMARK    4  A    between atoms: C_8  and  C_10
REMARK    5  A    between atoms: C_10  and  S_11
REMARK    6  A    between atoms: S_11  and  C_12
REMARK    7  A    between atoms: C_16  and  C_17
REMARK    8  A    between atoms: C_17  and  O_19
REMARK    9  A    between atoms: O_19  and  C_20
REMARK   10  A    between atoms: N_26  and  C_27
REMARK   11  A    between atoms: C_27  and  C_28
REMARK                            x       y       z     vdW  Elec       q    Type
REMARK                         _______ _______ _______ _____ _____    ______ ____
ROOT
ATOM      1  C   UNL     1      -4.079  12.803  20.483  0.00  0.00    +0.000 A 
ATOM      2  N   UNL     1      -2.805  12.554  20.511  0.00  0.00    +0.000 NA
ATOM      3  C   UNL     1      -2.284  11.707  19.514  0.00  0.00    +0.000 A 
ATOM      4  C   UNL     1      -1.015  11.144  19.661  0.00  0.00    +0.000 A 
ATOM      5  C   UNL     1      -0.487  10.286  18.677  0.00  0.00    +0.000 A 
ATOM      6  C   UNL     1      -1.230  10.008  17.521  0.00  0.00    +0.000 A 
ATOM      7  C   UNL     1      -2.494  10.575  17.359  0.00  0.00    +0.000 A 
ATOM      8  C   UNL     1      -3.009  11.399  18.366  0.00  0.00    +0.000 A 
ATOM      9  C   UNL     1      -4.386  11.895  18.297  0.00  0.00    +0.000 A 
ATOM     10  O   UNL     1      -4.963  11.923  17.213  0.00  0.00    +0.000 OA
ATOM     11  N   UNL     1      -4.929  12.327  19.499  0.00  0.00    +0.000 N 
ENDROOT
BRANCH   5  12
ATOM     12  C   UNL     1       0.858   9.696  18.911  0.00  0.00    +0.000 C 
ATOM     13  O   UNL     1       1.253   9.362  20.022  0.00  0.00    +0.000 OA
BRANCH  12  14
ATOM     14  O   UNL     1       1.560   9.588  17.762  0.00  0.00    +0.000 OA
ATOM     15  C   UNL     1       2.430   8.449  17.723  0.00  0.00    +0.000 C 
ENDBRANCH  12  14
ENDBRANCH   5  12
BRANCH   1  16
ATOM     16  S   UNL     1      -4.784  13.859  21.703  0.00  0.00    +0.000 S 
BRANCH  16  17
ATOM     17  C   UNL     1      -4.352  15.511  21.094  0.00  0.00    +0.000 C 
BRANCH  17  19
ATOM     18  N   UNL     1      -2.245  15.814  19.866  0.00  0.00    +0.000 N 
ATOM     19  C   UNL     1      -2.837  15.714  21.120  0.00  0.00    +0.000 C 
ATOM     20  O   UNL     1      -2.242  15.729  22.196  0.00  0.00    +0.000 OA
ATOM     21  H   UNL     1      -2.867  15.818  19.066  0.00  0.00    +0.000 HD
BRANCH  18  25
ATOM     22  C   UNL     1       1.870  16.344  18.927  0.00  0.00    +0.000 A 
ATOM     23  C   UNL     1       1.350  15.057  19.073  0.00  0.00    +0.000 A 
ATOM     24  C   UNL     1      -0.000  14.862  19.395  0.00  0.00    +0.000 A 
ATOM     25  C   UNL     1      -0.861  15.945  19.579  0.00  0.00    +0.000 A 
ATOM     26  C   UNL     1      -0.333  17.237  19.456  0.00  0.00    +0.000 A 
ATOM     27  C   UNL     1       1.020  17.436  19.134  0.00  0.00    +0.000 A 
BRANCH  22  29
ATOM     28  C   UNL     1       3.676  15.538  17.408  0.00  0.00    +0.000 C 
ATOM     29  C   UNL     1       3.296  16.549  18.482  0.00  0.00    +0.000 C 
ENDBRANCH  22  29
ENDBRANCH  18  25
ENDBRANCH  17  19
ENDBRANCH  16  17
ENDBRANCH   1  16
BRANCH  11  30
ATOM     30  C   UNL     1      -6.390  12.347  19.563  0.00  0.00    +0.000 C 
BRANCH  30  31
ATOM     31  C   UNL     1      -6.920  10.998  19.941  0.00  0.00    +0.000 A 
ATOM     32  C   UNL     1      -6.882   9.765  19.320  0.00  0.00    +0.000 A 
ATOM     33  C   UNL     1      -7.489   8.843  20.207  0.00  0.00    +0.000 A 
ATOM     34  C   UNL     1      -7.861   9.568  21.314  0.00  0.00    +0.000 A 
ATOM     35  O   UNL     1      -7.524  10.878  21.163  0.00  0.00    +0.000 OA
ENDBRANCH  30  31
ENDBRANCH  11  30
TORSDOF 9
ENDMDL
MODEL 2
REMARK VINA RESULT:      -6.9      5.061      8.989
REMARK  Name = 
REMARK  11 active torsions:
REMARK  status: ('A' for Active; 'I' for Inactive)
REMARK    1  A    between atoms: C_1  and  C_2
REMARK    2  A    between atoms: C_2  and  C_3
REMARK    3  A    between atoms: C_6  and  N_7
REMARK    4  A    between atoms: C_8  and  C_10
REMARK    5  A    between atoms: C_10  and  S_11
REMARK    6  A    between atoms: S_11  and  C_12
REMARK    7  A    between atoms: C_16  and  C_17
REMARK    8  A    between atoms: C_17  and  O_19
REMARK    9  A    between atoms: O_19  and  C_20
REMARK   10  A    between atoms: N_26  and  C_27
REMARK   11  A    between atoms: C_27  and  C_28
REMARK                            x       y       z     vdW  Elec       q    Type
REMARK                         _______ _______ _______ _____ _____    ______ ____
ROOT
ATOM      1  C   UNL     1       2.554   7.007  18.751  0.00  0.00    +0.000 A 
ATOM      2  N   UNL     1       3.611   7.157  18.011  0.00  0.00    +0.000 NA
ATOM      3  C   UNL     1       4.114   6.016  17.355  0.00  0.00    +0.000 A 
ATOM      4  C   UNL     1       5.400   6.026  16.815  0.00  0.00    +0.000 A 
ATOM      5  C   UNL     1       5.920   4.888  16.167  0.00  0.00    +0.000 A 
ATOM      6  C   UNL     1       5.130   3.737  16.037  0.00  0.00    +0.000 A 
ATOM      7  C   UNL     1       3.839   3.722  16.562  0.00  0.00    +0.000 A 
ATOM      8  C   UNL     1       3.358   4.854  17.230  0.00  0.00    +0.000 A 
ATOM      9  C   UNL     1       2.064   4.826  17.917  0.00  0.00    +0.000 A 
ATOM     10  O   UNL     1       1.234   3.977  17.604  0.00  0.00    +0.000 OA
ATOM     11  N   UNL     1       1.873   5.809  18.878  0.00  0.00    +0.000 N 
ENDROOT
BRANCH   5  12
ATOM     12  C   UNL     1       7.310   4.955  15.642  0.00  0.00    +0.000 C 
ATOM     13  O   UNL     1       7.592   5.482  14.572  0.00  0.00    +0.000 OA
BRANCH  12  14
ATOM     14  O   UNL     1       8.188   4.367  16.483  0.00  0.00    +0.000 OA
ATOM     15  C   UNL     1       7.881   4.567  17.869  0.00  0.00    +0.000 C 
ENDBRANCH  12  14
ENDBRANCH   5  12
BRANCH   1  16
ATOM     16  S   UNL     1       1.880   8.400  19.592  0.00  0.00    +0.000 S 
BRANCH  16  17
ATOM     17  C   UNL     1       1.448   9.515  18.229  0.00  0.00    +0.000 C 
BRANCH  17  19
ATOM     18  N   UNL     1      -0.861  10.027  17.556  0.00  0.00    +0.000 N 
ATOM     19  C   UNL     1       0.125  10.226  18.516  0.00  0.00    +0.000 C 
ATOM     20  O   UNL     1       0.021  10.943  19.510  0.00  0.00    +0.000 OA
ATOM     21  H   UNL     1      -0.643   9.381  16.805  0.00  0.00    +0.000 HD
BRANCH  18  25
ATOM     22  C   UNL     1      -4.730  11.777  17.306  0.00  0.00    +0.000 A 
ATOM     23  C   UNL     1      -3.979  11.912  18.474  0.00  0.00    +0.000 A 
ATOM     24  C   UNL     1      -2.707  11.333  18.581  0.00  0.00    +0.000 A 
ATOM     25  C   UNL     1      -2.157  10.603  17.526  0.00  0.00    +0.000 A 
ATOM     26  C   UNL     1      -2.921  10.447  16.361  0.00  0.00    +0.000 A 
ATOM     27  C   UNL     1      -4.196  11.026  16.252  0.00  0.00    +0.000 A 
BRANCH  22  29
ATOM     28  C   UNL     1      -7.103  11.862  18.065  0.00  0.00    +0.000 C 
ATOM     29  C   UNL     1      -6.052  12.485  17.157  0.00  0.00    +0.000 C 
ENDBRANCH  22  29
ENDBRANCH  18  25
ENDBRANCH  17  19
ENDBRANCH  16  17
ENDBRANCH   1  16
BRANCH  11  30
ATOM     30  C   UNL     1       0.858   5.517  19.889  0.00  0.00    +0.000 C 
BRANCH  30  31
ATOM     31  C   UNL     1       1.232   4.300  20.677  0.00  0.00    +0.000 A 
ATOM     32  C   UNL     1       0.707   3.024  20.745  0.00  0.00    +0.000 A 
ATOM     33  C   UNL     1       1.544   2.285  21.615  0.00  0.00    +0.000 A 
ATOM     34  C   UNL     1       2.528   3.152  22.027  0.00  0.00    +0.000 A 
ATOM     35  O   UNL     1       2.347   4.379  21.467  0.00  0.00    +0.000 OA
ENDBRANCH  30  31
ENDBRANCH  11  30
TORSDOF 9
ENDMDL
MODEL 3
REMARK VINA RESULT:      -6.8      3.377      7.679
REMARK  Name = 
REMARK  11 active torsions:
REMARK  status: ('A' for Active; 'I' for Inactive)
REMARK    1  A    between atoms: C_1  and  C_2
REMARK    2  A    between atoms: C_2  and  C_3
REMARK    3  A    between atoms: C_6  and  N_7
REMARK    4  A    between atoms: C_8  and  C_10
REMARK    5  A    between atoms: C_10  and  S_11
REMARK    6  A    between atoms: S_11  and  C_12
REMARK    7  A    between atoms: C_16  and  C_17
REMARK    8  A    between atoms: C_17  and  O_19
REMARK    9  A    between atoms: O_19  and  C_20
REMARK   10  A    between atoms: N_26  and  C_27
REMARK   11  A    between atoms: C_27  and  C_28
REMARK                            x       y       z     vdW  Elec       q    Type
REMARK                         _______ _______ _______ _____ _____    ______ ____
ROOT
ATOM      1  C   UNL     1      -0.042  12.312  21.217  0.00  0.00    +0.000 A 
ATOM      2  N   UNL     1       1.231  12.565  21.181  0.00  0.00    +0.000 NA
ATOM      3  C   UNL     1       1.656  13.660  20.403  0.00  0.00    +0.000 A 
ATOM      4  C   UNL     1       3.001  13.799  20.059  0.00  0.00    +0.000 A 
ATOM      5  C   UNL     1       3.437  14.882  19.272  0.00  0.00    +0.000 A 
ATOM      6  C   UNL     1       2.518  15.850  18.845  0.00  0.00    +0.000 A 
ATOM      7  C   UNL     1       1.174  15.727  19.193  0.00  0.00    +0.000 A 
ATOM      8  C   UNL     1       0.760  14.624  19.949  0.00  0.00    +0.000 A 
ATOM      9  C   UNL     1      -0.661  14.386  20.212  0.00  0.00    +0.000 A 
ATOM     10  O   UNL     1      -1.457  15.317  20.116  0.00  0.00    +0.000 OA
ATOM     11  N   UNL     1      -0.995  13.090  20.583  0.00  0.00    +0.000 N 
ENDROOT
BRANCH   5  12
ATOM     12  C   UNL     1       4.880  14.953  18.916  0.00  0.00    +0.000 C 
ATOM     13  O   UNL     1       5.291  14.790  17.773  0.00  0.00    +0.000 OA
BRANCH  12  14
ATOM     14  O   UNL     1       5.647  15.210  19.998  0.00  0.00    +0.000 OA
ATOM     15  C   UNL     1       6.417  16.414  19.886  0.00  0.00    +0.000 C 
ENDBRANCH  12  14
ENDBRANCH   5  12
BRANCH   1  16
ATOM     16  S   UNL     1      -0.630  10.958  22.177  0.00  0.00    +0.000 S 
BRANCH  16  17
ATOM     17  C   UNL     1       0.848   9.921  22.346  0.00  0.00    +0.000 C 
BRANCH  17  19
ATOM     18  N   UNL     1       1.855   8.131  20.995  0.00  0.00    +0.000 N 
ATOM     19  C   UNL     1       0.683   8.619  21.561  0.00  0.00    +0.000 C 
ATOM     20  O   UNL     1      -0.434   8.120  21.436  0.00  0.00    +0.000 OA
ATOM     21  H   UNL     1       2.709   8.631  21.211  0.00  0.00    +0.000 HD
BRANCH  18  25
ATOM     22  C   UNL     1       2.239   4.785  18.395  0.00  0.00    +0.000 A 
ATOM     23  C   UNL     1       1.836   4.596  19.719  0.00  0.00    +0.000 A 
ATOM     24  C   UNL     1       1.717   5.684  20.594  0.00  0.00    +0.000 A 
ATOM     25  C   UNL     1       1.996   6.984  20.170  0.00  0.00    +0.000 A 
ATOM     26  C   UNL     1       2.423   7.171  18.848  0.00  0.00    +0.000 A 
ATOM     27  C   UNL     1       2.545   6.083  17.969  0.00  0.00    +0.000 A 
BRANCH  22  29
ATOM     28  C   UNL     1       2.198   2.302  18.175  0.00  0.00    +0.000 C 
ATOM     29  C   UNL     1       2.269   3.628  17.430  0.00  0.00    +0.000 C 
ENDBRANCH  22  29
ENDBRANCH  18  25
ENDBRANCH  17  19
ENDBRANCH  16  17
ENDBRANCH   1  16
BRANCH  11  30
ATOM     30  C   UNL     1      -2.390  12.708  20.366  0.00  0.00    +0.000 C 
BRANCH  30  31
ATOM     31  C   UNL     1      -2.562  12.086  19.014  0.00  0.00    +0.000 A 
ATOM     32  C   UNL     1      -1.688  11.840  17.974  0.00  0.00    +0.000 A 
ATOM     33  C   UNL     1      -2.423  11.151  16.979  0.00  0.00    +0.000 A 
ATOM     34  C   UNL     1      -3.700  11.019  17.470  0.00  0.00    +0.000 A 
ATOM     35  O   UNL     1      -3.797  11.586  18.703  0.00  0.00    +0.000 OA
ENDBRANCH  30  31
ENDBRANCH  11  30
TORSDOF 9
ENDMDL
MODEL 4
REMARK VINA RESULT:      -6.7      6.146     10.003
REMARK  Name = 
REMARK  11 active torsions:
REMARK  status: ('A' for Active; 'I' for Inactive)
REMARK    1  A    between atoms: C_1  and  C_2
REMARK    2  A    between atoms: C_2  and  C_3
REMARK    3  A    between atoms: C_6  and  N_7
REMARK    4  A    between atoms: C_8  and  C_10
REMARK    5  A    between atoms: C_10  and  S_11
REMARK    6  A    between atoms: S_11  and  C_12
REMARK    7  A    between atoms: C_16  and  C_17
REMARK    8  A    between atoms: C_17  and  O_19
REMARK    9  A    between atoms: O_19  and  C_20
REMARK   10  A    between atoms: N_26  and  C_27
REMARK   11  A    between atoms: C_27  and  C_28
REMARK                            x       y       z     vdW  Elec       q    Type
REMARK                         _______ _______ _______ _____ _____    ______ ____
ROOT
ATOM      1  C   UNL     1       4.192   6.566  17.055  0.00  0.00    +0.000 A 
ATOM      2  N   UNL     1       3.768   7.794  17.074  0.00  0.00    +0.000 NA
ATOM      3  C   UNL     1       2.849   8.150  18.081  0.00  0.00    +0.000 A 
ATOM      4  C   UNL     1       2.116   9.333  17.978  0.00  0.00    +0.000 A 
ATOM      5  C   UNL     1       1.186   9.695  18.971  0.00  0.00    +0.000 A 
ATOM      6  C   UNL     1       1.006   8.873  20.093  0.00  0.00    +0.000 A 
ATOM      7  C   UNL     1       1.743   7.695  20.211  0.00  0.00    +0.000 A 
ATOM      8  C   UNL     1       2.637   7.342  19.194  0.00  0.00    +0.000 A 
ATOM      9  C   UNL     1       3.321   6.046  19.214  0.00  0.00    +0.000 A 
ATOM     10  O   UNL     1       3.422   5.433  20.274  0.00  0.00    +0.000 OA
ATOM     11  N   UNL     1       3.833   5.618  17.997  0.00  0.00    +0.000 N 
ENDROOT
BRANCH   5  12
ATOM     12  C   UNL     1       0.415  10.953  18.784  0.00  0.00    +0.000 C 
ATOM     13  O   UNL     1      -0.775  10.966  18.491  0.00  0.00    +0.000 OA
BRANCH  12  14
ATOM     14  O   UNL     1       1.190  12.043  18.973  0.00  0.00    +0.000 OA
ATOM     15  C   UNL     1       1.284  12.455  20.342  0.00  0.00    +0.000 C 
ENDBRANCH  12  14
ENDBRANCH   5  12
BRANCH   1  16
ATOM     16  S   UNL     1       5.344   6.067  15.820  0.00  0.00    +0.000 S 
BRANCH  16  17
ATOM     17  C   UNL     1       6.761   5.509  16.804  0.00  0.00    +0.000 C 
BRANCH  17  19
ATOM     18  N   UNL     1       7.640   7.768  17.210  0.00  0.00    +0.000 N 
ATOM     19  C   UNL     1       7.186   6.592  17.797  0.00  0.00    +0.000 C 
ATOM     20  O   UNL     1       7.150   6.361  19.004  0.00  0.00    +0.000 OA
ATOM     21  H   UNL     1       7.580   7.827  16.200  0.00  0.00    +0.000 HD
BRANCH  18  25
ATOM     22  C   UNL     1       9.192  11.275  19.052  0.00  0.00    +0.000 A 
ATOM     23  C   UNL     1       9.377  10.030  19.657  0.00  0.00    +0.000 A 
ATOM     24  C   UNL     1       8.863   8.865  19.073  0.00  0.00    +0.000 A 
ATOM     25  C   UNL     1       8.151   8.914  17.873  0.00  0.00    +0.000 A 
ATOM     26  C   UNL     1       7.944  10.166  17.278  0.00  0.00    +0.000 A 
ATOM     27  C   UNL     1       8.458  11.336  17.862  0.00  0.00    +0.000 A 
BRANCH  22  29
ATOM     28  C   UNL     1      11.237  12.208  20.129  0.00  0.00    +0.000 C 
ATOM     29  C   UNL     1       9.832  12.512  19.629  0.00  0.00    +0.000 C 
ENDBRANCH  22  29
ENDBRANCH  18  25
ENDBRANCH  17  19
ENDBRANCH  16  17
ENDBRANCH   1  16
BRANCH  11  30
ATOM     30  C   UNL     1       4.057   4.178  17.875  0.00  0.00    +0.000 C 
BRANCH  30  31
ATOM     31  C   UNL     1       2.851   3.416  18.331  0.00  0.00    +0.000 A 
ATOM     32  C   UNL     1       1.510   3.496  18.009  0.00  0.00    +0.000 A 
ATOM     33  C   UNL     1       0.860   2.451  18.710  0.00  0.00    +0.000 A 
ATOM     34  C   UNL     1       1.842   1.798  19.418  0.00  0.00    +0.000 A 
ATOM     35  O   UNL     1       3.053   2.377  19.198  0.00  0.00    +0.000 OA
ENDBRANCH  30  31
ENDBRANCH  11  30
TORSDOF 9
ENDMDL
MODEL 5
REMARK VINA RESULT:      -6.7      3.402      6.102
REMARK  Name = 
REMARK  11 active torsions:
REMARK  status: ('A' for Active; 'I' for Inactive)
REMARK    1  A    between atoms: C_1  and  C_2
REMARK    2  A    between atoms: C_2  and  C_3
REMARK    3  A    between atoms: C_6  and  N_7
REMARK    4  A    between atoms: C_8  and  C_10
REMARK    5  A    between atoms: C_10  and  S_11
REMARK    6  A    between atoms: S_11  and  C_12
REMARK    7  A    between atoms: C_16  and  C_17
REMARK    8  A    between atoms: C_17  and  O_19
REMARK    9  A    between atoms: O_19  and  C_20
REMARK   10  A    between atoms: N_26  and  C_27
REMARK   11  A    between atoms: C_27  and  C_28
REMARK                            x       y       z     vdW  Elec       q    Type
REMARK                         _______ _______ _______ _____ _____    ______ ____
ROOT
ATOM      1  C   UNL     1       0.841  10.094  20.607  0.00  0.00    +0.000 A 
ATOM      2  N   UNL     1       1.241   8.991  21.164  0.00  0.00    +0.000 NA
ATOM      3  C   UNL     1       1.648   7.943  20.315  0.00  0.00    +0.000 A 
ATOM      4  C   UNL     1       1.780   6.646  20.812  0.00  0.00    +0.000 A 
ATOM      5  C   UNL     1       2.175   5.587  19.972  0.00  0.00    +0.000 A 
ATOM      6  C   UNL     1       2.465   5.836  18.623  0.00  0.00    +0.000 A 
ATOM      7  C   UNL     1       2.348   7.131  18.120  0.00  0.00    +0.000 A 
ATOM      8  C   UNL     1       1.922   8.160  18.968  0.00  0.00    +0.000 A 
ATOM      9  C   UNL     1       1.651   9.501  18.442  0.00  0.00    +0.000 A 
ATOM     10  O   UNL     1       2.145   9.839  17.370  0.00  0.00    +0.000 OA
ATOM     11  N   UNL     1       0.851  10.307  19.240  0.00  0.00    +0.000 N 
ENDROOT
BRANCH   5  12
ATOM     12  C   UNL     1       2.265   4.223  20.559  0.00  0.00    +0.000 C 
ATOM     13  O   UNL     1       2.180   4.011  21.763  0.00  0.00    +0.000 OA
BRANCH  12  14
ATOM     14  O   UNL     1       2.453   3.284  19.607  0.00  0.00    +0.000 OA
ATOM     15  C   UNL     1       3.665   2.534  19.766  0.00  0.00    +0.000 C 
ENDBRANCH  12  14
ENDBRANCH   5  12
BRANCH   1  16
ATOM     16  S   UNL     1       0.324  11.438  21.620  0.00  0.00    +0.000 S 
BRANCH  16  17
ATOM     17  C   UNL     1      -1.030  10.712  22.582  0.00  0.00    +0.000 C 
BRANCH  17  19
ATOM     18  N   UNL     1      -2.382  12.435  21.467  0.00  0.00    +0.000 N 
ATOM     19  C   UNL     1      -2.236  11.652  22.607  0.00  0.00    +0.000 C 
ATOM     20  O   UNL     1      -2.952  11.700  23.605  0.00  0.00    +0.000 OA
ATOM     21  H   UNL     1      -1.733  12.262  20.708  0.00  0.00    +0.000 HD
BRANCH  18  25
ATOM     22  C   UNL     1      -5.252  15.519  20.874  0.00  0.00    +0.000 A 
ATOM     23  C   UNL     1      -5.623  14.182  20.715  0.00  0.00    +0.000 A 
ATOM     24  C   UNL     1      -4.689  13.153  20.893  0.00  0.00    +0.000 A 
ATOM     25  C   UNL     1      -3.364  13.432  21.233  0.00  0.00    +0.000 A 
ATOM     26  C   UNL     1      -2.986  14.775  21.369  0.00  0.00    +0.000 A 
ATOM     27  C   UNL     1      -3.920  15.809  21.189  0.00  0.00    +0.000 A 
BRANCH  22  29
ATOM     28  C   UNL     1      -5.745  17.790  19.972  0.00  0.00    +0.000 C 
ATOM     29  C   UNL     1      -6.281  16.617  20.780  0.00  0.00    +0.000 C 
ENDBRANCH  22  29
ENDBRANCH  18  25
ENDBRANCH  17  19
ENDBRANCH  16  17
ENDBRANCH   1  16
BRANCH  11  30
ATOM     30  C   UNL     1       0.172  11.405  18.551  0.00  0.00    +0.000 C 
BRANCH  30  31
ATOM     31  C   UNL     1      -1.196  10.984  18.109  0.00  0.00    +0.000 A 
ATOM     32  C   UNL     1      -1.657   9.911  17.371  0.00  0.00    +0.000 A 
ATOM     33  C   UNL     1      -3.070  10.010  17.349  0.00  0.00    +0.000 A 
ATOM     34  C   UNL     1      -3.385  11.135  18.073  0.00  0.00    +0.000 A 
ATOM     35  O   UNL     1      -2.256  11.736  18.536  0.00  0.00    +0.000 OA
ENDBRANCH  30  31
ENDBRANCH  11  30
TORSDOF 9
ENDMDL
MODEL 6
REMARK VINA RESULT:      -6.7      3.418      6.217
REMARK  Name = 
REMARK  11 active torsions:
REMARK  status: ('A' for Active; 'I' for Inactive)
REMARK    1  A    between atoms: C_1  and  C_2
REMARK    2  A    between atoms: C_2  and  C_3
REMARK    3  A    between atoms: C_6  and  N_7
REMARK    4  A    between atoms: C_8  and  C_10
REMARK    5  A    between atoms: C_10  and  S_11
REMARK    6  A    between atoms: S_11  and  C_12
REMARK    7  A    between atoms: C_16  and  C_17
REMARK    8  A    between atoms: C_17  and  O_19
REMARK    9  A    between atoms: O_19  and  C_20
REMARK   10  A    between atoms: N_26  and  C_27
REMARK   11  A    between atoms: C_27  and  C_28
REMARK                            x       y       z     vdW  Elec       q    Type
REMARK                         _______ _______ _______ _____ _____    ______ ____
ROOT
ATOM      1  C   UNL     1       0.836  10.252  20.666  0.00  0.00    +0.000 A 
ATOM      2  N   UNL     1       1.274   9.151  21.197  0.00  0.00    +0.000 NA
ATOM      3  C   UNL     1       1.654   8.113  20.324  0.00  0.00    +0.000 A 
ATOM      4  C   UNL     1       1.824   6.815  20.808  0.00  0.00    +0.000 A 
ATOM      5  C   UNL     1       2.192   5.765  19.944  0.00  0.00    +0.000 A 
ATOM      6  C   UNL     1       2.415   6.025  18.585  0.00  0.00    +0.000 A 
ATOM      7  C   UNL     1       2.260   7.320  18.095  0.00  0.00    +0.000 A 
ATOM      8  C   UNL     1       1.862   8.340  18.967  0.00  0.00    +0.000 A 
ATOM      9  C   UNL     1       1.551   9.680  18.462  0.00  0.00    +0.000 A 
ATOM     10  O   UNL     1       1.990  10.029  17.370  0.00  0.00    +0.000 OA
ATOM     11  N   UNL     1       0.779  10.473  19.300  0.00  0.00    +0.000 N 
ENDROOT
BRANCH   5  12
ATOM     12  C   UNL     1       2.326   4.400  20.519  0.00  0.00    +0.000 C 
ATOM     13  O   UNL     1       1.503   3.919  21.290  0.00  0.00    +0.000 OA
BRANCH  12  14
ATOM     14  O   UNL     1       3.449   3.787  20.088  0.00  0.00    +0.000 OA
ATOM     15  C   UNL     1       3.224   2.475  19.556  0.00  0.00    +0.000 C 
ENDBRANCH  12  14
ENDBRANCH   5  12
BRANCH   1  16
ATOM     16  S   UNL     1       0.351  11.586  21.709  0.00  0.00    +0.000 S 
BRANCH  16  17
ATOM     17  C   UNL     1      -0.953  10.839  22.725  0.00  0.00    +0.000 C 
BRANCH  17  19
ATOM     18  N   UNL     1      -2.411  12.312  21.403  0.00  0.00    +0.000 N 
ATOM     19  C   UNL     1      -2.248  11.644  22.612  0.00  0.00    +0.000 C 
ATOM     20  O   UNL     1      -3.020  11.696  23.568  0.00  0.00    +0.000 OA
ATOM     21  H   UNL     1      -1.707  12.148  20.693  0.00  0.00    +0.000 HD
BRANCH  18  25
ATOM     22  C   UNL     1      -5.616  14.822  20.168  0.00  0.00    +0.000 A 
ATOM     23  C   UNL     1      -4.622  15.325  21.009  0.00  0.00    +0.000 A 
ATOM     24  C   UNL     1      -3.565  14.510  21.438  0.00  0.00    +0.000 A 
ATOM     25  C   UNL     1      -3.476  13.176  21.038  0.00  0.00    +0.000 A 
ATOM     26  C   UNL     1      -4.486  12.664  20.212  0.00  0.00    +0.000 A 
ATOM     27  C   UNL     1      -5.547  13.478  19.782  0.00  0.00    +0.000 A 
BRANCH  22  29
ATOM     28  C   UNL     1      -7.356  15.105  18.405  0.00  0.00    +0.000 C 
ATOM     29  C   UNL     1      -6.694  15.726  19.628  0.00  0.00    +0.000 C 
ENDBRANCH  22  29
ENDBRANCH  18  25
ENDBRANCH  17  19
ENDBRANCH  16  17
ENDBRANCH   1  16
BRANCH  11  30
ATOM     30  C   UNL     1       0.056  11.565  18.650  0.00  0.00    +0.000 C 
BRANCH  30  31
ATOM     31  C   UNL     1      -1.262  11.086  18.124  0.00  0.00    +0.000 A 
ATOM     32  C   UNL     1      -1.993   9.932  18.329  0.00  0.00    +0.000 A 
ATOM     33  C   UNL     1      -3.208  10.087  17.617  0.00  0.00    +0.000 A 
ATOM     34  C   UNL     1      -3.144  11.324  17.021  0.00  0.00    +0.000 A 
ATOM     35  O   UNL     1      -1.967  11.938  17.319  0.00  0.00    +0.000 OA
ENDBRANCH  30  31
ENDBRANCH  11  30
TORSDOF 9
ENDMDL
MODEL 7
REMARK VINA RESULT:      -6.5      3.721      6.677
REMARK  Name = 
REMARK  11 active torsions:
REMARK  status: ('A' for Active; 'I' for Inactive)
REMARK    1  A    between atoms: C_1  and  C_2
REMARK    2  A    between atoms: C_2  and  C_3
REMARK    3  A    between atoms: C_6  and  N_7
REMARK    4  A    between atoms: C_8  and  C_10
REMARK    5  A    between atoms: C_10  and  S_11
REMARK    6  A    between atoms: S_11  and  C_12
REMARK    7  A    between atoms: C_16  and  C_17
REMARK    8  A    between atoms: C_17  and  O_19
REMARK    9  A    between atoms: O_19  and  C_20
REMARK   10  A    between atoms: N_26  and  C_27
REMARK   11  A    between atoms: C_27  and  C_28
REMARK                            x       y       z     vdW  Elec       q    Type
REMARK                         _______ _______ _______ _____ _____    ______ ____
ROOT
ATOM      1  C   UNL     1       1.213   9.550  20.464  0.00  0.00    +0.000 A 
ATOM      2  N   UNL     1       1.508   8.401  20.992  0.00  0.00    +0.000 NA
ATOM      3  C   UNL     1       1.805   7.338  20.117  0.00  0.00    +0.000 A 
ATOM      4  C   UNL     1       1.815   6.023  20.584  0.00  0.00    +0.000 A 
ATOM      5  C   UNL     1       2.098   4.950  19.717  0.00  0.00    +0.000 A 
ATOM      6  C   UNL     1       2.397   5.201  18.370  0.00  0.00    +0.000 A 
ATOM      7  C   UNL     1       2.402   6.512  17.897  0.00  0.00    +0.000 A 
ATOM      8  C   UNL     1       2.086   7.558  18.771  0.00  0.00    +0.000 A 
ATOM      9  C   UNL     1       1.940   8.930  18.278  0.00  0.00    +0.000 A 
ATOM     10  O   UNL     1       2.455   9.243  17.207  0.00  0.00    +0.000 OA
ATOM     11  N   UNL     1       1.230   9.792  19.102  0.00  0.00    +0.000 N 
ENDROOT
BRANCH   5  12
ATOM     12  C   UNL     1       2.061   3.571  20.273  0.00  0.00    +0.000 C 
ATOM     13  O   UNL     1       3.034   3.039  20.795  0.00  0.00    +0.000 OA
BRANCH  12  14
ATOM     14  O   UNL     1       0.844   3.007  20.123  0.00  0.00    +0.000 OA
ATOM     15  C   UNL     1       0.713   2.227  18.927  0.00  0.00    +0.000 C 
ENDBRANCH  12  14
ENDBRANCH   5  12
BRANCH   1  16
ATOM     16  S   UNL     1       0.837  10.914  21.512  0.00  0.00    +0.000 S 
BRANCH  16  17
ATOM     17  C   UNL     1      -0.802  10.482  22.154  0.00  0.00    +0.000 C 
BRANCH  17  19
ATOM     18  N   UNL     1      -2.667  12.052  21.834  0.00  0.00    +0.000 N 
ATOM     19  C   UNL     1      -1.551  11.738  22.602  0.00  0.00    +0.000 C 
ATOM     20  O   UNL     1      -1.121  12.401  23.544  0.00  0.00    +0.000 OA
ATOM     21  H   UNL     1      -2.921  11.392  21.108  0.00  0.00    +0.000 HD
BRANCH  18  25
ATOM     22  C   UNL     1      -5.328  15.337  22.304  0.00  0.00    +0.000 A 
ATOM     23  C   UNL     1      -4.315  15.393  21.345  0.00  0.00    +0.000 A 
ATOM     24  C   UNL     1      -3.421  14.326  21.184  0.00  0.00    +0.000 A 
ATOM     25  C   UNL     1      -3.515  13.181  21.976  0.00  0.00    +0.000 A 
ATOM     26  C   UNL     1      -4.517  13.135  22.955  0.00  0.00    +0.000 A 
ATOM     27  C   UNL     1      -5.414  14.203  23.120  0.00  0.00    +0.000 A 
BRANCH  22  29
ATOM     28  C   UNL     1      -7.547  15.992  23.233  0.00  0.00    +0.000 C 
ATOM     29  C   UNL     1      -6.349  16.441  22.407  0.00  0.00    +0.000 C 
ENDBRANCH  22  29
ENDBRANCH  18  25
ENDBRANCH  17  19
ENDBRANCH  16  17
ENDBRANCH   1  16
BRANCH  11  30
ATOM     30  C   UNL     1       0.654  10.965  18.445  0.00  0.00    +0.000 C 
BRANCH  30  31
ATOM     31  C   UNL     1      -0.801  10.748  18.159  0.00  0.00    +0.000 A 
ATOM     32  C   UNL     1      -1.481   9.828  17.386  0.00  0.00    +0.000 A 
ATOM     33  C   UNL     1      -2.862  10.078  17.575  0.00  0.00    +0.000 A 
ATOM     34  C   UNL     1      -2.941  11.135  18.451  0.00  0.00    +0.000 A 
ATOM     35  O   UNL     1      -1.697  11.552  18.810  0.00  0.00    +0.000 OA
ENDBRANCH  30  31
ENDBRANCH  11  30
TORSDOF 9
ENDMDL
MODEL 8
REMARK VINA RESULT:      -6.5      3.574      5.603
REMARK  Name = 
REMARK  11 active torsions:
REMARK  status: ('A' for Active; 'I' for Inactive)
REMARK    1  A    between atoms: C_1  and  C_2
REMARK    2  A    between atoms: C_2  and  C_3
REMARK    3  A    between atoms: C_6  and  N_7
REMARK    4  A    between atoms: C_8  and  C_10
REMARK    5  A    between atoms: C_10  and  S_11
REMARK    6  A    between atoms: S_11  and  C_12
REMARK    7  A    between atoms: C_16  and  C_17
REMARK    8  A    between atoms: C_17  and  O_19
REMARK    9  A    between atoms: O_19  and  C_20
REMARK   10  A    between atoms: N_26  and  C_27
REMARK   11  A    between atoms: C_27  and  C_28
REMARK                            x       y       z     vdW  Elec       q    Type
REMARK                         _______ _______ _______ _____ _____    ______ ____
ROOT
ATOM      1  C   UNL     1      -3.305  12.920  21.352  0.00  0.00    +0.000 A 
ATOM      2  N   UNL     1      -2.699  12.604  20.248  0.00  0.00    +0.000 NA
ATOM      3  C   UNL     1      -3.496  12.196  19.161  0.00  0.00    +0.000 A 
ATOM      4  C   UNL     1      -2.918  11.546  18.069  0.00  0.00    +0.000 A 
ATOM      5  C   UNL     1      -3.705  11.121  16.982  0.00  0.00    +0.000 A 
ATOM      6  C   UNL     1      -5.085  11.373  16.977  0.00  0.00    +0.000 A 
ATOM      7  C   UNL     1      -5.670  12.032  18.058  0.00  0.00    +0.000 A 
ATOM      8  C   UNL     1      -4.870  12.415  19.141  0.00  0.00    +0.000 A 
ATOM      9  C   UNL     1      -5.471  12.980  20.352  0.00  0.00    +0.000 A 
ATOM     10  O   UNL     1      -6.595  13.472  20.295  0.00  0.00    +0.000 OA
ATOM     11  N   UNL     1      -4.682  12.928  21.493  0.00  0.00    +0.000 N 
ENDROOT
BRANCH   5  12
ATOM     12  C   UNL     1      -3.030  10.407  15.865  0.00  0.00    +0.000 C 
ATOM     13  O   UNL     1      -2.279   9.456  16.043  0.00  0.00    +0.000 OA
BRANCH  12  14
ATOM     14  O   UNL     1      -3.351  10.942  14.667  0.00  0.00    +0.000 OA
ATOM     15  C   UNL     1      -3.641   9.966  13.658  0.00  0.00    +0.000 C 
ENDBRANCH  12  14
ENDBRANCH   5  12
BRANCH   1  16
ATOM     16  S   UNL     1      -2.358  13.442  22.742  0.00  0.00    +0.000 S 
BRANCH  16  17
ATOM     17  C   UNL     1      -1.456  11.935  23.195  0.00  0.00    +0.000 C 
BRANCH  17  19
ATOM     18  N   UNL     1      -0.636  10.348  21.507  0.00  0.00    +0.000 N 
ATOM     19  C   UNL     1      -0.430  11.580  22.118  0.00  0.00    +0.000 C 
ATOM     20  O   UNL     1       0.507  12.343  21.893  0.00  0.00    +0.000 OA
ATOM     21  H   UNL     1      -1.473   9.841  21.772  0.00  0.00    +0.000 HD
BRANCH  18  25
ATOM     22  C   UNL     1       1.920   8.466  18.674  0.00  0.00    +0.000 A 
ATOM     23  C   UNL     1       1.115   9.537  18.282  0.00  0.00    +0.000 A 
ATOM     24  C   UNL     1       0.257  10.162  19.197  0.00  0.00    +0.000 A 
ATOM     25  C   UNL     1       0.181   9.732  20.523  0.00  0.00    +0.000 A 
ATOM     26  C   UNL     1       0.972   8.642  20.911  0.00  0.00    +0.000 A 
ATOM     27  C   UNL     1       1.832   8.013  19.995  0.00  0.00    +0.000 A 
BRANCH  22  29
ATOM     28  C   UNL     1       3.182   6.405  18.063  0.00  0.00    +0.000 C 
ATOM     29  C   UNL     1       2.914   7.862  17.715  0.00  0.00    +0.000 C 
ENDBRANCH  22  29
ENDBRANCH  18  25
ENDBRANCH  17  19
ENDBRANCH  16  17
ENDBRANCH   1  16
BRANCH  11  30
ATOM     30  C   UNL     1      -5.400  13.009  22.765  0.00  0.00    +0.000 C 
BRANCH  30  31
ATOM     31  C   UNL     1      -5.623  14.438  23.155  0.00  0.00    +0.000 A 
ATOM     32  C   UNL     1      -6.539  15.391  22.754  0.00  0.00    +0.000 A 
ATOM     33  C   UNL     1      -6.299  16.543  23.543  0.00  0.00    +0.000 A 
ATOM     34  C   UNL     1      -5.252  16.225  24.375  0.00  0.00    +0.000 A 
ATOM     35  O   UNL     1      -4.831  14.951  24.146  0.00  0.00    +0.000 OA
ENDBRANCH  30  31
ENDBRANCH  11  30
TORSDOF 9
ENDMDL
MODEL 9
REMARK VINA RESULT:      -6.5      4.046      6.826
REMARK  Name = 
REMARK  11 active torsions:
REMARK  status: ('A' for Active; 'I' for Inactive)
REMARK    1  A    between atoms: C_1  and  C_2
REMARK    2  A    between atoms: C_2  and  C_3
REMARK    3  A    between atoms: C_6  and  N_7
REMARK    4  A    between atoms: C_8  and  C_10
REMARK    5  A    between atoms: C_10  and  S_11
REMARK    6  A    between atoms: S_11  and  C_12
REMARK    7  A    between atoms: C_16  and  C_17
REMARK    8  A    between atoms: C_17  and  O_19
REMARK    9  A    between atoms: O_19  and  C_20
REMARK   10  A    between atoms: N_26  and  C_27
REMARK   11  A    between atoms: C_27  and  C_28
REMARK                            x       y       z     vdW  Elec       q    Type
REMARK                         _______ _______ _______ _____ _____    ______ ____
ROOT
ATOM      1  C   UNL     1       1.205   9.341  20.659  0.00  0.00    +0.000 A 
ATOM      2  N   UNL     1       1.474   8.129  21.041  0.00  0.00    +0.000 NA
ATOM      3  C   UNL     1       1.750   7.176  20.040  0.00  0.00    +0.000 A 
ATOM      4  C   UNL     1       1.730   5.814  20.342  0.00  0.00    +0.000 A 
ATOM      5  C   UNL     1       1.992   4.851  19.349  0.00  0.00    +0.000 A 
ATOM      6  C   UNL     1       2.301   5.259  18.043  0.00  0.00    +0.000 A 
ATOM      7  C   UNL     1       2.336   6.618  17.736  0.00  0.00    +0.000 A 
ATOM      8  C   UNL     1       2.040   7.555  18.733  0.00  0.00    +0.000 A 
ATOM      9  C   UNL     1       1.926   8.980  18.413  0.00  0.00    +0.000 A 
ATOM     10  O   UNL     1       2.451   9.412  17.389  0.00  0.00    +0.000 OA
ATOM     11  N   UNL     1       1.232   9.749  19.336  0.00  0.00    +0.000 N 
ENDROOT
BRANCH   5  12
ATOM     12  C   UNL     1       1.924   3.415  19.730  0.00  0.00    +0.000 C 
ATOM     13  O   UNL     1       2.542   2.539  19.136  0.00  0.00    +0.000 OA
BRANCH  12  14
ATOM     14  O   UNL     1       1.107   3.220  20.788  0.00  0.00    +0.000 OA
ATOM     15  C   UNL     1       1.740   2.562  21.893  0.00  0.00    +0.000 C 
ENDBRANCH  12  14
ENDBRANCH   5  12
BRANCH   1  16
ATOM     16  S   UNL     1       0.857  10.574  21.867  0.00  0.00    +0.000 S 
BRANCH  16  17
ATOM     17  C   UNL     1      -0.926  10.376  22.132  0.00  0.00    +0.000 C 
BRANCH  17  19
ATOM     18  N   UNL     1      -2.534  11.877  23.229  0.00  0.00    +0.000 N 
ATOM     19  C   UNL     1      -1.614  11.740  22.195  0.00  0.00    +0.000 C 
ATOM     20  O   UNL     1      -1.366  12.588  21.340  0.00  0.00    +0.000 OA
ATOM     21  H   UNL     1      -2.609  11.103  23.879  0.00  0.00    +0.000 HD
BRANCH  18  25
ATOM     22  C   UNL     1      -5.083  15.217  23.893  0.00  0.00    +0.000 A 
ATOM     23  C   UNL     1      -3.794  15.208  24.427  0.00  0.00    +0.000 A 
ATOM     24  C   UNL     1      -2.943  14.112  24.231  0.00  0.00    +0.000 A 
ATOM     25  C   UNL     1      -3.360  13.000  23.498  0.00  0.00    +0.000 A 
ATOM     26  C   UNL     1      -4.663  12.998  22.981  0.00  0.00    +0.000 A 
ATOM     27  C   UNL     1      -5.517  14.095  23.177  0.00  0.00    +0.000 A 
BRANCH  22  29
ATOM     28  C   UNL     1      -5.149  17.708  23.796  0.00  0.00    +0.000 C 
ATOM     29  C   UNL     1      -5.958  16.438  24.020  0.00  0.00    +0.000 C 
ENDBRANCH  22  29
ENDBRANCH  18  25
ENDBRANCH  17  19
ENDBRANCH  16  17
ENDBRANCH   1  16
BRANCH  11  30
ATOM     30  C   UNL     1       0.684  11.007  18.829  0.00  0.00    +0.000 C 
BRANCH  30  31
ATOM     31  C   UNL     1      -0.726  10.816  18.359  0.00  0.00    +0.000 A 
ATOM     32  C   UNL     1      -1.548   9.710  18.275  0.00  0.00    +0.000 A 
ATOM     33  C   UNL     1      -2.808  10.172  17.822  0.00  0.00    +0.000 A 
ATOM     34  C   UNL     1      -2.678  11.531  17.657  0.00  0.00    +0.000 A 
ATOM     35  O   UNL     1      -1.418  11.933  17.976  0.00  0.00    +0.000 OA
ENDBRANCH  30  31
ENDBRANCH  11  30
TORSDOF 9
ENDMDL
