MODEL 1
REMARK VINA RESULT:      -6.9      0.000      0.000
REMARK  Name = 
REMARK  9 active torsions:
REMARK  status: ('A' for Active; 'I' for Inactive)
REMARK    1  A    between atoms: C_1  and  C_2
REMARK    2  A    between atoms: C_2  and  O_3
REMARK    3  A    between atoms: O_3  and  C_4
REMARK    4  A    between atoms: C_4  and  C_6
REMARK    5  A    between atoms: C_6  and  S_7
REMARK    6  A    between atoms: S_7  and  C_8
REMARK    7  A    between atoms: C_10  and  C_11
REMARK    8  A    between atoms: C_19  and  O_20
REMARK    9  A    between atoms: O_20  and  C_21
REMARK                            x       y       z     vdW  Elec       q    Type
REMARK                         _______ _______ _______ _____ _____    ______ ____
ROOT
ATOM      1  C   UNL     1       5.403   5.096  17.684  0.00  0.00    +0.000 A 
ATOM      2  N   UNL     1       5.489   4.927  16.346  0.00  0.00    +0.000 NA
ATOM      3  C   UNL     1       6.693   4.691  15.797  0.00  0.00    +0.000 A 
ATOM      4  N   UNL     1       7.830   4.610  16.511  0.00  0.00    +0.000 NA
ATOM      5  C   UNL     1       7.705   4.789  17.840  0.00  0.00    +0.000 A 
ATOM      6  C   UNL     1       6.519   5.033  18.509  0.00  0.00    +0.000 A 
ENDROOT
BRANCH   3   7
ATOM      7  C   UNL     1       6.762   4.502  14.328  0.00  0.00    +0.000 A 
ATOM      8  C   UNL     1       5.968   3.557  13.673  0.00  0.00    +0.000 A 
ATOM      9  C   UNL     1       6.066   3.417  12.290  0.00  0.00    +0.000 A 
ATOM     10  C   UNL     1       6.957   4.216  11.587  0.00  0.00    +0.000 A 
ATOM     11  C   UNL     1       7.713   5.131  12.295  0.00  0.00    +0.000 A 
ATOM     12  N   UNL     1       7.632   5.293  13.633  0.00  0.00    +0.000 NA
ENDBRANCH   3   7
BRANCH   6  13
ATOM     13  O   UNL     1       6.667   5.208  19.849  0.00  0.00    +0.000 OA
ATOM     14  C   UNL     1       7.953   5.517  20.365  0.00  0.00    +0.000 C 
ENDBRANCH   6  13
BRANCH   1  15
ATOM     15  S   UNL     1       3.754   5.497  18.217  0.00  0.00    +0.000 S 
BRANCH  15  16
ATOM     16  C   UNL     1       3.057   3.815  18.376  0.00  0.00    +0.000 C 
BRANCH  16  17
ATOM     17  C   UNL     1       1.553   3.858  18.204  0.00  0.00    +0.000 C 
ATOM     18  O   UNL     1       0.968   4.296  17.225  0.00  0.00    +0.000 OA
BRANCH  17  19
ATOM     19  O   UNL     1       0.947   3.488  19.372  0.00  0.00    +0.000 OA
BRANCH  19  21
ATOM     20  C   UNL     1       1.541   2.729  21.545  0.00  0.00    +0.000 C 
ATOM     21  C   UNL     1       1.605   2.415  20.061  0.00  0.00    +0.000 C 
ENDBRANCH  19  21
ENDBRANCH  17  19
ENDBRANCH  16  17
ENDBRANCH  15  16
ENDBRANCH   1  15
TORSDOF 7
ENDMDL
MODEL 2
REMARK VINA RESULT:      -6.9      1.672      1.898
REMARK  Name = 
REMARK  9 active torsions:
REMARK  status: ('A' for Active; 'I' for Inactive)
REMARK    1  A    between atoms: C_1  and  C_2
REMARK    2  A    between atoms: C_2  and  O_3
REMARK    3  A    between atoms: O_3  and  C_4
REMARK    4  A    between atoms: C_4  and  C_6
REMARK    5  A    between atoms: C_6  and  S_7
REMARK    6  A    between atoms: S_7  and  C_8
REMARK    7  A    between atoms: C_10  and  C_11
REMARK    8  A    between atoms: C_19  and  O_20
REMARK    9  A    between atoms: O_20  and  C_21
REMARK                            x       y       z     vdW  Elec       q    Type
REMARK                         _______ _______ _______ _____ _____    ______ ____
ROOT
ATOM      1  C   UNL     1       4.484   3.882  17.451  0.00  0.00    +0.000 A 
ATOM      2  N   UNL     1       5.020   3.782  16.215  0.00  0.00    +0.000 NA
ATOM      3  C   UNL     1       5.813   4.771  15.769  0.00  0.00    +0.000 A 
ATOM      4  N   UNL     1       6.111   5.865  16.492  0.00  0.00    +0.000 NA
ATOM      5  C   UNL     1       5.554   5.932  17.717  0.00  0.00    +0.000 A 
ATOM      6  C   UNL     1       4.728   4.973  18.276  0.00  0.00    +0.000 A 
ENDROOT
BRANCH   3   7
ATOM      7  C   UNL     1       6.395   4.637  14.413  0.00  0.00    +0.000 A 
ATOM      8  C   UNL     1       5.875   3.737  13.478  0.00  0.00    +0.000 A 
ATOM      9  C   UNL     1       6.455   3.647  12.214  0.00  0.00    +0.000 A 
ATOM     10  C   UNL     1       7.543   4.452  11.907  0.00  0.00    +0.000 A 
ATOM     11  C   UNL     1       8.008   5.320  12.875  0.00  0.00    +0.000 A 
ATOM     12  N   UNL     1       7.461   5.433  14.105  0.00  0.00    +0.000 NA
ENDBRANCH   3   7
BRANCH   6  13
ATOM     13  O   UNL     1       4.272   5.293  19.516  0.00  0.00    +0.000 OA
ATOM     14  C   UNL     1       3.196   6.212  19.638  0.00  0.00    +0.000 C 
ENDBRANCH   6  13
BRANCH   1  15
ATOM     15  S   UNL     1       3.385   2.535  17.831  0.00  0.00    +0.000 S 
BRANCH  15  16
ATOM     16  C   UNL     1       1.798   3.439  17.917  0.00  0.00    +0.000 C 
BRANCH  16  17
ATOM     17  C   UNL     1       0.916   2.836  18.991  0.00  0.00    +0.000 C 
ATOM     18  O   UNL     1       0.195   1.861  18.847  0.00  0.00    +0.000 OA
BRANCH  17  19
ATOM     19  O   UNL     1       0.921   3.643  20.095  0.00  0.00    +0.000 OA
BRANCH  19  21
ATOM     20  C   UNL     1       2.623   2.737  21.488  0.00  0.00    +0.000 C 
ATOM     21  C   UNL     1       1.126   2.944  21.331  0.00  0.00    +0.000 C 
ENDBRANCH  19  21
ENDBRANCH  17  19
ENDBRANCH  16  17
ENDBRANCH  15  16
ENDBRANCH   1  15
TORSDOF 7
ENDMDL
MODEL 3
REMARK VINA RESULT:      -6.8      3.786      6.966
REMARK  Name = 
REMARK  9 active torsions:
REMARK  status: ('A' for Active; 'I' for Inactive)
REMARK    1  A    between atoms: C_1  and  C_2
REMARK    2  A    between atoms: C_2  and  O_3
REMARK    3  A    between atoms: O_3  and  C_4
REMARK    4  A    between atoms: C_4  and  C_6
REMARK    5  A    between atoms: C_6  and  S_7
REMARK    6  A    between atoms: S_7  and  C_8
REMARK    7  A    between atoms: C_10  and  C_11
REMARK    8  A    between atoms: C_19  and  O_20
REMARK    9  A    between atoms: O_20  and  C_21
REMARK                            x       y       z     vdW  Elec       q    Type
REMARK                         _______ _______ _______ _____ _____    ______ ____
ROOT
ATOM      1  C   UNL     1       4.022   4.593  17.948  0.00  0.00    +0.000 A 
ATOM      2  N   UNL     1       3.489   5.835  17.939  0.00  0.00    +0.000 NA
ATOM      3  C   UNL     1       2.796   6.252  19.013  0.00  0.00    +0.000 A 
ATOM      4  N   UNL     1       2.603   5.497  20.109  0.00  0.00    +0.000 NA
ATOM      5  C   UNL     1       3.144   4.264  20.079  0.00  0.00    +0.000 A 
ATOM      6  C   UNL     1       3.877   3.735  19.031  0.00  0.00    +0.000 A 
ENDROOT
BRANCH   3   7
ATOM      7  C   UNL     1       2.226   7.620  18.983  0.00  0.00    +0.000 A 
ATOM      8  C   UNL     1       2.298   8.419  17.838  0.00  0.00    +0.000 A 
ATOM      9  C   UNL     1       1.746   9.698  17.858  0.00  0.00    +0.000 A 
ATOM     10  C   UNL     1       1.138  10.159  19.017  0.00  0.00    +0.000 A 
ATOM     11  C   UNL     1       1.101   9.319  20.113  0.00  0.00    +0.000 A 
ATOM     12  N   UNL     1       1.620   8.073  20.120  0.00  0.00    +0.000 NA
ENDBRANCH   3   7
BRANCH   6  13
ATOM     13  O   UNL     1       4.288   2.456  19.236  0.00  0.00    +0.000 OA
ATOM     14  C   UNL     1       3.572   1.395  18.619  0.00  0.00    +0.000 C 
ENDBRANCH   6  13
BRANCH   1  15
ATOM     15  S   UNL     1       4.814   4.178  16.411  0.00  0.00    +0.000 S 
BRANCH  15  16
ATOM     16  C   UNL     1       5.682   5.750  16.070  0.00  0.00    +0.000 C 
BRANCH  16  17
ATOM     17  C   UNL     1       7.138   5.637  16.471  0.00  0.00    +0.000 C 
ATOM     18  O   UNL     1       7.677   4.624  16.891  0.00  0.00    +0.000 OA
BRANCH  17  19
ATOM     19  O   UNL     1       7.717   6.875  16.452  0.00  0.00    +0.000 OA
BRANCH  19  21
ATOM     20  C   UNL     1       8.314   8.254  18.295  0.00  0.00    +0.000 C 
ATOM     21  C   UNL     1       7.170   7.794  17.408  0.00  0.00    +0.000 C 
ENDBRANCH  19  21
ENDBRANCH  17  19
ENDBRANCH  16  17
ENDBRANCH  15  16
ENDBRANCH   1  15
TORSDOF 7
ENDMDL
MODEL 4
REMARK VINA RESULT:      -6.8      3.079      6.620
REMARK  Name = 
REMARK  9 active torsions:
REMARK  status: ('A' for Active; 'I' for Inactive)
REMARK    1  A    between atoms: C_1  and  C_2
REMARK    2  A    between atoms: C_2  and  O_3
REMARK    3  A    between atoms: O_3  and  C_4
REMARK    4  A    between atoms: C_4  and  C_6
REMARK    5  A    between atoms: C_6  and  S_7
REMARK    6  A    between atoms: S_7  and  C_8
REMARK    7  A    between atoms: C_10  and  C_11
REMARK    8  A    between atoms: C_19  and  O_20
REMARK    9  A    between atoms: O_20  and  C_21
REMARK                            x       y       z     vdW  Elec       q    Type
REMARK                         _______ _______ _______ _____ _____    ______ ____
ROOT
ATOM      1  C   UNL     1       5.545   5.892  17.240  0.00  0.00    +0.000 A 
ATOM      2  N   UNL     1       4.488   5.232  17.762  0.00  0.00    +0.000 NA
ATOM      3  C   UNL     1       4.575   4.753  19.015  0.00  0.00    +0.000 A 
ATOM      4  N   UNL     1       5.664   4.899  19.789  0.00  0.00    +0.000 NA
ATOM      5  C   UNL     1       6.699   5.558  19.234  0.00  0.00    +0.000 A 
ATOM      6  C   UNL     1       6.717   6.093  17.958  0.00  0.00    +0.000 A 
ENDROOT
BRANCH   3   7
ATOM      7  C   UNL     1       3.400   4.038  19.568  0.00  0.00    +0.000 A 
ATOM      8  C   UNL     1       2.659   4.559  20.632  0.00  0.00    +0.000 A 
ATOM      9  C   UNL     1       1.561   3.851  21.116  0.00  0.00    +0.000 A 
ATOM     10  C   UNL     1       1.225   2.636  20.536  0.00  0.00    +0.000 A 
ATOM     11  C   UNL     1       1.999   2.177  19.487  0.00  0.00    +0.000 A 
ATOM     12  N   UNL     1       3.063   2.846  18.993  0.00  0.00    +0.000 NA
ENDBRANCH   3   7
BRANCH   6  13
ATOM     13  O   UNL     1       7.895   6.684  17.625  0.00  0.00    +0.000 OA
ATOM     14  C   UNL     1       8.000   8.098  17.692  0.00  0.00    +0.000 C 
ENDBRANCH   6  13
BRANCH   1  15
ATOM     15  S   UNL     1       5.289   6.363  15.544  0.00  0.00    +0.000 S 
BRANCH  15  16
ATOM     16  C   UNL     1       5.347   4.718  14.749  0.00  0.00    +0.000 C 
BRANCH  16  17
ATOM     17  C   UNL     1       6.680   4.524  14.056  0.00  0.00    +0.000 C 
ATOM     18  O   UNL     1       7.598   5.329  14.055  0.00  0.00    +0.000 OA
BRANCH  17  19
ATOM     19  O   UNL     1       6.640   3.388  13.296  0.00  0.00    +0.000 OA
BRANCH  19  21
ATOM     20  C   UNL     1       5.805   2.123  11.464  0.00  0.00    +0.000 C 
ATOM     21  C   UNL     1       5.668   3.420  12.242  0.00  0.00    +0.000 C 
ENDBRANCH  19  21
ENDBRANCH  17  19
ENDBRANCH  16  17
ENDBRANCH  15  16
ENDBRANCH   1  15
TORSDOF 7
ENDMDL
MODEL 5
REMARK VINA RESULT:      -6.8      3.038      7.194
REMARK  Name = 
REMARK  9 active torsions:
REMARK  status: ('A' for Active; 'I' for Inactive)
REMARK    1  A    between atoms: C_1  and  C_2
REMARK    2  A    between atoms: C_2  and  O_3
REMARK    3  A    between atoms: O_3  and  C_4
REMARK    4  A    between atoms: C_4  and  C_6
REMARK    5  A    between atoms: C_6  and  S_7
REMARK    6  A    between atoms: S_7  and  C_8
REMARK    7  A    between atoms: C_10  and  C_11
REMARK    8  A    between atoms: C_19  and  O_20
REMARK    9  A    between atoms: O_20  and  C_21
REMARK                            x       y       z     vdW  Elec       q    Type
REMARK                         _______ _______ _______ _____ _____    ______ ____
ROOT
ATOM      1  C   UNL     1       6.191   4.317  17.462  0.00  0.00    +0.000 A 
ATOM      2  N   UNL     1       5.307   4.077  18.455  0.00  0.00    +0.000 NA
ATOM      3  C   UNL     1       4.017   3.868  18.140  0.00  0.00    +0.000 A 
ATOM      4  N   UNL     1       3.551   3.880  16.879  0.00  0.00    +0.000 NA
ATOM      5  C   UNL     1       4.460   4.127  15.917  0.00  0.00    +0.000 A 
ATOM      6  C   UNL     1       5.809   4.352  16.127  0.00  0.00    +0.000 A 
ENDROOT
BRANCH   3   7
ATOM      7  C   UNL     1       3.066   3.601  19.246  0.00  0.00    +0.000 A 
ATOM      8  C   UNL     1       1.746   4.057  19.204  0.00  0.00    +0.000 A 
ATOM      9  C   UNL     1       0.889   3.779  20.267  0.00  0.00    +0.000 A 
ATOM     10  C   UNL     1       1.364   3.058  21.354  0.00  0.00    +0.000 A 
ATOM     11  C   UNL     1       2.680   2.638  21.333  0.00  0.00    +0.000 A 
ATOM     12  N   UNL     1       3.529   2.885  20.313  0.00  0.00    +0.000 NA
ENDBRANCH   3   7
BRANCH   6  13
ATOM     13  O   UNL     1       6.509   4.608  14.989  0.00  0.00    +0.000 OA
ATOM     14  C   UNL     1       6.161   3.919  13.797  0.00  0.00    +0.000 C 
ENDBRANCH   6  13
BRANCH   1  15
ATOM     15  S   UNL     1       7.824   4.669  18.070  0.00  0.00    +0.000 S 
BRANCH  15  16
ATOM     16  C   UNL     1       7.521   6.284  18.870  0.00  0.00    +0.000 C 
BRANCH  16  17
ATOM     17  C   UNL     1       7.850   7.409  17.909  0.00  0.00    +0.000 C 
ATOM     18  O   UNL     1       7.656   7.385  16.704  0.00  0.00    +0.000 OA
BRANCH  17  19
ATOM     19  O   UNL     1       8.545   8.385  18.567  0.00  0.00    +0.000 OA
BRANCH  19  21
ATOM     20  C   UNL     1       9.432  10.591  18.509  0.00  0.00    +0.000 C 
ATOM     21  C   UNL     1       8.253   9.716  18.119  0.00  0.00    +0.000 C 
ENDBRANCH  19  21
ENDBRANCH  17  19
ENDBRANCH  16  17
ENDBRANCH  15  16
ENDBRANCH   1  15
TORSDOF 7
ENDMDL
MODEL 6
REMARK VINA RESULT:      -6.7      3.242      5.566
REMARK  Name = 
REMARK  9 active torsions:
REMARK  status: ('A' for Active; 'I' for Inactive)
REMARK    1  A    between atoms: C_1  and  C_2
REMARK    2  A    between atoms: C_2  and  O_3
REMARK    3  A    between atoms: O_3  and  C_4
REMARK    4  A    between atoms: C_4  and  C_6
REMARK    5  A    between atoms: C_6  and  S_7
REMARK    6  A    between atoms: S_7  and  C_8
REMARK    7  A    between atoms: C_10  and  C_11
REMARK    8  A    between atoms: C_19  and  O_20
REMARK    9  A    between atoms: O_20  and  C_21
REMARK                            x       y       z     vdW  Elec       q    Type
REMARK                         _______ _______ _______ _____ _____    ______ ____
ROOT
ATOM      1  C   UNL     1       4.219   4.365  17.682  0.00  0.00    +0.000 A 
ATOM      2  N   UNL     1       3.407   5.291  18.238  0.00  0.00    +0.000 NA
ATOM      3  C   UNL     1       3.528   6.574  17.855  0.00  0.00    +0.000 A 
ATOM      4  N   UNL     1       4.417   6.992  16.938  0.00  0.00    +0.000 NA
ATOM      5  C   UNL     1       5.213   6.042  16.410  0.00  0.00    +0.000 A 
ATOM      6  C   UNL     1       5.172   4.696  16.728  0.00  0.00    +0.000 A 
ENDROOT
BRANCH   3   7
ATOM      7  C   UNL     1       2.622   7.572  18.473  0.00  0.00    +0.000 A 
ATOM      8  C   UNL     1       2.128   8.660  17.749  0.00  0.00    +0.000 A 
ATOM      9  C   UNL     1       1.278   9.571  18.373  0.00  0.00    +0.000 A 
ATOM     10  C   UNL     1       0.940   9.383  19.706  0.00  0.00    +0.000 A 
ATOM     11  C   UNL     1       1.463   8.287  20.364  0.00  0.00    +0.000 A 
ATOM     12  N   UNL     1       2.282   7.385  19.782  0.00  0.00    +0.000 NA
ENDBRANCH   3   7
BRANCH   6  13
ATOM     13  O   UNL     1       6.102   3.947  16.077  0.00  0.00    +0.000 OA
ATOM     14  C   UNL     1       6.609   4.408  14.833  0.00  0.00    +0.000 C 
ENDBRANCH   6  13
BRANCH   1  15
ATOM     15  S   UNL     1       3.986   2.745  18.380  0.00  0.00    +0.000 S 
BRANCH  15  16
ATOM     16  C   UNL     1       2.385   2.301  17.619  0.00  0.00    +0.000 C 
BRANCH  16  17
ATOM     17  C   UNL     1       1.314   2.200  18.685  0.00  0.00    +0.000 C 
ATOM     18  O   UNL     1       0.121   2.042  18.474  0.00  0.00    +0.000 OA
BRANCH  17  19
ATOM     19  O   UNL     1       1.857   2.476  19.909  0.00  0.00    +0.000 OA
BRANCH  19  21
ATOM     20  C   UNL     1       2.255   4.217  21.479  0.00  0.00    +0.000 C 
ATOM     21  C   UNL     1       1.205   3.541  20.614  0.00  0.00    +0.000 C 
ENDBRANCH  19  21
ENDBRANCH  17  19
ENDBRANCH  16  17
ENDBRANCH  15  16
ENDBRANCH   1  15
TORSDOF 7
ENDMDL
MODEL 7
REMARK VINA RESULT:      -6.7      3.443      5.853
REMARK  Name = 
REMARK  9 active torsions:
REMARK  status: ('A' for Active; 'I' for Inactive)
REMARK    1  A    between atoms: C_1  and  C_2
REMARK    2  A    between atoms: C_2  and  O_3
REMARK    3  A    between atoms: O_3  and  C_4
REMARK    4  A    between atoms: C_4  and  C_6
REMARK    5  A    between atoms: C_6  and  S_7
REMARK    6  A    between atoms: S_7  and  C_8
REMARK    7  A    between atoms: C_10  and  C_11
REMARK    8  A    between atoms: C_19  and  O_20
REMARK    9  A    between atoms: O_20  and  C_21
REMARK                            x       y       z     vdW  Elec       q    Type
REMARK                         _______ _______ _______ _____ _____    ______ ____
ROOT
ATOM      1  C   UNL     1       3.398   4.359  17.288  0.00  0.00    +0.000 A 
ATOM      2  N   UNL     1       2.670   5.347  17.855  0.00  0.00    +0.000 NA
ATOM      3  C   UNL     1       3.211   6.572  17.963  0.00  0.00    +0.000 A 
ATOM      4  N   UNL     1       4.447   6.877  17.531  0.00  0.00    +0.000 NA
ATOM      5  C   UNL     1       5.144   5.866  16.977  0.00  0.00    +0.000 A 
ATOM      6  C   UNL     1       4.685   4.571  16.813  0.00  0.00    +0.000 A 
ENDROOT
BRANCH   3   7
ATOM      7  C   UNL     1       2.391   7.641  18.583  0.00  0.00    +0.000 A 
ATOM      8  C   UNL     1       1.916   8.724  17.838  0.00  0.00    +0.000 A 
ATOM      9  C   UNL     1       1.148   9.704  18.465  0.00  0.00    +0.000 A 
ATOM     10  C   UNL     1       0.871   9.588  19.819  0.00  0.00    +0.000 A 
ATOM     11  C   UNL     1       1.371   8.493  20.497  0.00  0.00    +0.000 A 
ATOM     12  N   UNL     1       2.111   7.525  19.914  0.00  0.00    +0.000 NA
ENDBRANCH   3   7
BRANCH   6  13
ATOM     13  O   UNL     1       5.595   3.731  16.252  0.00  0.00    +0.000 OA
ATOM     14  C   UNL     1       5.955   3.914  14.891  0.00  0.00    +0.000 C 
ENDBRANCH   6  13
BRANCH   1  15
ATOM     15  S   UNL     1       2.563   2.789  17.322  0.00  0.00    +0.000 S 
BRANCH  15  16
ATOM     16  C   UNL     1       3.746   1.825  18.328  0.00  0.00    +0.000 C 
BRANCH  16  17
ATOM     17  C   UNL     1       4.003   2.529  19.644  0.00  0.00    +0.000 C 
ATOM     18  O   UNL     1       5.074   2.996  19.996  0.00  0.00    +0.000 OA
BRANCH  17  19
ATOM     19  O   UNL     1       2.901   2.418  20.446  0.00  0.00    +0.000 OA
BRANCH  19  21
ATOM     20  C   UNL     1       1.057   3.908  20.625  0.00  0.00    +0.000 C 
ATOM     21  C   UNL     1       2.491   3.651  21.054  0.00  0.00    +0.000 C 
ENDBRANCH  19  21
ENDBRANCH  17  19
ENDBRANCH  16  17
ENDBRANCH  15  16
ENDBRANCH   1  15
TORSDOF 7
ENDMDL
MODEL 8
REMARK VINA RESULT:      -6.7      3.875      7.059
REMARK  Name = 
REMARK  9 active torsions:
REMARK  status: ('A' for Active; 'I' for Inactive)
REMARK    1  A    between atoms: C_1  and  C_2
REMARK    2  A    between atoms: C_2  and  O_3
REMARK    3  A    between atoms: O_3  and  C_4
REMARK    4  A    between atoms: C_4  and  C_6
REMARK    5  A    between atoms: C_6  and  S_7
REMARK    6  A    between atoms: S_7  and  C_8
REMARK    7  A    between atoms: C_10  and  C_11
REMARK    8  A    between atoms: C_19  and  O_20
REMARK    9  A    between atoms: O_20  and  C_21
REMARK                            x       y       z     vdW  Elec       q    Type
REMARK                         _______ _______ _______ _____ _____    ______ ____
ROOT
ATOM      1  C   UNL     1       4.603   4.935  18.567  0.00  0.00    +0.000 A 
ATOM      2  N   UNL     1       4.040   6.164  18.552  0.00  0.00    +0.000 NA
ATOM      3  C   UNL     1       2.825   6.328  19.100  0.00  0.00    +0.000 A 
ATOM      4  N   UNL     1       2.130   5.331  19.674  0.00  0.00    +0.000 NA
ATOM      5  C   UNL     1       2.720   4.120  19.666  0.00  0.00    +0.000 A 
ATOM      6  C   UNL     1       3.965   3.838  19.133  0.00  0.00    +0.000 A 
ENDROOT
BRANCH   3   7
ATOM      7  C   UNL     1       2.231   7.686  19.078  0.00  0.00    +0.000 A 
ATOM      8  C   UNL     1       2.347   8.518  17.960  0.00  0.00    +0.000 A 
ATOM      9  C   UNL     1       1.770   9.786  17.985  0.00  0.00    +0.000 A 
ATOM     10  C   UNL     1       1.093  10.203  19.123  0.00  0.00    +0.000 A 
ATOM     11  C   UNL     1       1.014   9.332  20.192  0.00  0.00    +0.000 A 
ATOM     12  N   UNL     1       1.557   8.096  20.193  0.00  0.00    +0.000 NA
ENDBRANCH   3   7
BRANCH   6  13
ATOM     13  O   UNL     1       4.321   2.530  19.224  0.00  0.00    +0.000 OA
ATOM     14  C   UNL     1       3.582   1.562  18.494  0.00  0.00    +0.000 C 
ENDBRANCH   6  13
BRANCH   1  15
ATOM     15  S   UNL     1       6.161   4.885  17.710  0.00  0.00    +0.000 S 
BRANCH  15  16
ATOM     16  C   UNL     1       5.668   3.955  16.215  0.00  0.00    +0.000 C 
BRANCH  16  17
ATOM     17  C   UNL     1       6.427   4.470  15.010  0.00  0.00    +0.000 C 
ATOM     18  O   UNL     1       7.500   5.053  15.048  0.00  0.00    +0.000 OA
BRANCH  17  19
ATOM     19  O   UNL     1       5.655   4.334  13.890  0.00  0.00    +0.000 OA
BRANCH  19  21
ATOM     20  C   UNL     1       5.213   3.112  11.899  0.00  0.00    +0.000 C 
ATOM     21  C   UNL     1       6.304   3.648  12.810  0.00  0.00    +0.000 C 
ENDBRANCH  19  21
ENDBRANCH  17  19
ENDBRANCH  16  17
ENDBRANCH  15  16
ENDBRANCH   1  15
TORSDOF 7
ENDMDL
MODEL 9
REMARK VINA RESULT:      -6.7      3.005      6.619
REMARK  Name = 
REMARK  9 active torsions:
REMARK  status: ('A' for Active; 'I' for Inactive)
REMARK    1  A    between atoms: C_1  and  C_2
REMARK    2  A    between atoms: C_2  and  O_3
REMARK    3  A    between atoms: O_3  and  C_4
REMARK    4  A    between atoms: C_4  and  C_6
REMARK    5  A    between atoms: C_6  and  S_7
REMARK    6  A    between atoms: S_7  and  C_8
REMARK    7  A    between atoms: C_10  and  C_11
REMARK    8  A    between atoms: C_19  and  O_20
REMARK    9  A    between atoms: O_20  and  C_21
REMARK                            x       y       z     vdW  Elec       q    Type
REMARK                         _______ _______ _______ _____ _____    ______ ____
ROOT
ATOM      1  C   UNL     1       5.459   5.568  16.583  0.00  0.00    +0.000 A 
ATOM      2  N   UNL     1       4.422   4.926  17.165  0.00  0.00    +0.000 NA
ATOM      3  C   UNL     1       4.417   4.780  18.501  0.00  0.00    +0.000 A 
ATOM      4  N   UNL     1       5.392   5.245  19.301  0.00  0.00    +0.000 NA
ATOM      5  C   UNL     1       6.411   5.875  18.685  0.00  0.00    +0.000 A 
ATOM      6  C   UNL     1       6.517   6.084  17.321  0.00  0.00    +0.000 A 
ENDROOT
BRANCH   3   7
ATOM      7  C   UNL     1       3.267   4.077  19.118  0.00  0.00    +0.000 A 
ATOM      8  C   UNL     1       2.493   4.675  20.117  0.00  0.00    +0.000 A 
ATOM      9  C   UNL     1       1.420   3.976  20.665  0.00  0.00    +0.000 A 
ATOM     10  C   UNL     1       1.141   2.694  20.214  0.00  0.00    +0.000 A 
ATOM     11  C   UNL     1       1.945   2.161  19.224  0.00  0.00    +0.000 A 
ATOM     12  N   UNL     1       2.985   2.818  18.670  0.00  0.00    +0.000 NA
ENDBRANCH   3   7
BRANCH   6  13
ATOM     13  O   UNL     1       7.659   6.720  16.948  0.00  0.00    +0.000 OA
ATOM     14  C   UNL     1       7.940   8.003  17.486  0.00  0.00    +0.000 C 
ENDBRANCH   6  13
BRANCH   1  15
ATOM     15  S   UNL     1       5.346   5.579  14.808  0.00  0.00    +0.000 S 
BRANCH  15  16
ATOM     16  C   UNL     1       6.292   4.062  14.424  0.00  0.00    +0.000 C 
BRANCH  16  17
ATOM     17  C   UNL     1       6.171   3.734  12.950  0.00  0.00    +0.000 C 
ATOM     18  O   UNL     1       7.098   3.709  12.155  0.00  0.00    +0.000 OA
BRANCH  17  19
ATOM     19  O   UNL     1       4.851   3.633  12.610  0.00  0.00    +0.000 OA
BRANCH  19  21
ATOM     20  C   UNL     1       3.558   3.585  10.614  0.00  0.00    +0.000 C 
ATOM     21  C   UNL     1       4.607   2.851  11.432  0.00  0.00    +0.000 C 
ENDBRANCH  19  21
ENDBRANCH  17  19
ENDBRANCH  16  17
ENDBRANCH  15  16
ENDBRANCH   1  15
TORSDOF 7
ENDMDL
