MODEL 1
REMARK VINA RESULT:      -6.8      0.000      0.000
REMARK  Name = 
REMARK  11 active torsions:
REMARK  status: ('A' for Active; 'I' for Inactive)
REMARK    1  A    between atoms: C_1  and  C_2
REMARK    2  A    between atoms: C_2  and  C_3
REMARK    3  A    between atoms: C_3  and  C_4
REMARK    4  A    between atoms: C_4  and  C_5
REMARK    5  A    between atoms: C_5  and  C_6
REMARK    6  A    between atoms: C_6  and  C_7
REMARK    7  A    between atoms: C_7  and  C_8
REMARK    8  A    between atoms: C_10  and  O_11
REMARK    9  A    between atoms: C_12  and  O_13
REMARK   10  A    between atoms: C_14  and  C_15
REMARK   11  A    between atoms: C_15  and  O_16
REMARK                            x       y       z     vdW  Elec       q    Type
REMARK                         _______ _______ _______ _____ _____    ______ ____
ROOT
ATOM      1  C   UNK A   0       4.503   4.061  17.866  0.00  0.00    +0.000 C 
ATOM      2  C   UNK A   1       5.416   4.283  19.081  0.00  0.00    +0.000 C 
ATOM      3  C   UNK A   1       6.443   5.388  18.825  0.00  0.00    +0.000 C 
ATOM      4  C   UNK A   1       7.236   5.108  17.538  0.00  0.00    +0.000 C 
ATOM      5  C   UNK A   1       6.279   4.876  16.355  0.00  0.00    +0.000 C 
ATOM      6  N   UNK A   1       5.282   3.810  16.639  0.00  0.00    +0.000 NA
ATOM      7  H   UNK A   1       5.746   2.904  16.705  0.00  0.00    +0.000 HD
ENDROOT
BRANCH   3   8
ATOM      8  O   UNK A   1       7.326   5.464  19.945  0.00  0.00    +0.000 OA
ATOM      9  H   UNK A   1       7.367   6.406  20.197  0.00  0.00    +0.000 HD
ENDBRANCH   3   8
BRANCH   4  10
ATOM     10  O   UNK A   1       8.085   3.967  17.760  0.00  0.00    +0.000 OA
ATOM     11  H   UNK A   1       8.319   3.596  16.891  0.00  0.00    +0.000 HD
ENDBRANCH   4  10
BRANCH   1  12
ATOM     12  C   UNK A   0       3.501   5.223  17.721  0.00  0.00    +0.000 C 
BRANCH  12  13
ATOM     13  C   UNK A   0       2.163   4.967  18.415  0.00  0.00    +0.000 C 
BRANCH  13  14
ATOM     14  C   UNK A   0       1.500   3.718  17.835  0.00  0.00    +0.000 C 
BRANCH  14  15
ATOM     15  C   UNK A   0       0.952   2.820  18.940  0.00  0.00    +0.000 C 
BRANCH  15  16
ATOM     16  C   UNK A   0       0.817   3.596  20.248  0.00  0.00    +0.000 C 
BRANCH  16  18
ATOM     17  C   UNK A   0       2.874   2.662  21.346  0.00  0.00    +0.000 C 
ATOM     18  C   UNK A   0       1.362   2.791  21.425  0.00  0.00    +0.000 C 
ENDBRANCH  16  18
ENDBRANCH  15  16
ENDBRANCH  14  15
ENDBRANCH  13  14
ENDBRANCH  12  13
ENDBRANCH   1  12
BRANCH   5  19
ATOM     19  C   UNK A   1       7.058   4.523  15.071  0.00  0.00    +0.000 C 
BRANCH  19  20
ATOM     20  O   UNK A   1       7.829   5.642  14.633  0.00  0.00    +0.000 OA
ATOM     21  H   UNK A   1       8.349   5.921  15.412  0.00  0.00    +0.000 HD
ENDBRANCH  19  20
ENDBRANCH   5  19
TORSDOF 10
ENDMDL
MODEL 2
REMARK VINA RESULT:      -6.5      1.290      2.788
REMARK  Name = 
REMARK  11 active torsions:
REMARK  status: ('A' for Active; 'I' for Inactive)
REMARK    1  A    between atoms: C_1  and  C_2
REMARK    2  A    between atoms: C_2  and  C_3
REMARK    3  A    between atoms: C_3  and  C_4
REMARK    4  A    between atoms: C_4  and  C_5
REMARK    5  A    between atoms: C_5  and  C_6
REMARK    6  A    between atoms: C_6  and  C_7
REMARK    7  A    between atoms: C_7  and  C_8
REMARK    8  A    between atoms: C_10  and  O_11
REMARK    9  A    between atoms: C_12  and  O_13
REMARK   10  A    between atoms: C_14  and  C_15
REMARK   11  A    between atoms: C_15  and  O_16
REMARK                            x       y       z     vdW  Elec       q    Type
REMARK                         _______ _______ _______ _____ _____    ______ ____
ROOT
ATOM      1  C   UNK A   0       4.369   4.858  17.338  0.00  0.00    +0.000 C 
ATOM      2  C   UNK A   1       4.808   4.559  15.897  0.00  0.00    +0.000 C 
ATOM      3  C   UNK A   1       6.167   3.856  15.853  0.00  0.00    +0.000 C 
ATOM      4  C   UNK A   1       7.222   4.657  16.634  0.00  0.00    +0.000 C 
ATOM      5  C   UNK A   1       6.729   4.946  18.064  0.00  0.00    +0.000 C 
ATOM      6  N   UNK A   1       5.399   5.612  18.076  0.00  0.00    +0.000 NA
ATOM      7  H   UNK A   1       5.475   6.555  17.694  0.00  0.00    +0.000 HD
ENDROOT
BRANCH   3   8
ATOM      8  O   UNK A   1       6.566   3.711  14.489  0.00  0.00    +0.000 OA
ATOM      9  H   UNK A   1       5.913   4.205  13.959  0.00  0.00    +0.000 HD
ENDBRANCH   3   8
BRANCH   4  10
ATOM     10  O   UNK A   1       7.499   5.874  15.918  0.00  0.00    +0.000 OA
ATOM     11  H   UNK A   1       7.956   6.481  16.525  0.00  0.00    +0.000 HD
ENDBRANCH   4  10
BRANCH   1  12
ATOM     12  C   UNK A   0       3.938   3.562  18.053  0.00  0.00    +0.000 C 
BRANCH  12  13
ATOM     13  C   UNK A   0       2.664   2.942  17.478  0.00  0.00    +0.000 C 
BRANCH  13  14
ATOM     14  C   UNK A   0       1.436   3.705  17.974  0.00  0.00    +0.000 C 
BRANCH  14  15
ATOM     15  C   UNK A   0       0.908   3.114  19.278  0.00  0.00    +0.000 C 
BRANCH  15  16
ATOM     16  C   UNK A   0       0.898   4.167  20.383  0.00  0.00    +0.000 C 
BRANCH  16  18
ATOM     17  C   UNK A   0       2.409   2.642  21.686  0.00  0.00    +0.000 C 
ATOM     18  C   UNK A   0       2.153   4.074  21.246  0.00  0.00    +0.000 C 
ENDBRANCH  16  18
ENDBRANCH  15  16
ENDBRANCH  14  15
ENDBRANCH  13  14
ENDBRANCH  12  13
ENDBRANCH   1  12
BRANCH   5  19
ATOM     19  C   UNK A   1       7.744   5.810  18.838  0.00  0.00    +0.000 C 
BRANCH  19  20
ATOM     20  O   UNK A   1       7.733   5.470  20.224  0.00  0.00    +0.000 OA
ATOM     21  H   UNK A   1       8.550   4.955  20.373  0.00  0.00    +0.000 HD
ENDBRANCH  19  20
ENDBRANCH   5  19
TORSDOF 10
ENDMDL
MODEL 3
REMARK VINA RESULT:      -6.3      1.030      1.581
REMARK  Name = 
REMARK  11 active torsions:
REMARK  status: ('A' for Active; 'I' for Inactive)
REMARK    1  A    between atoms: C_1  and  C_2
REMARK    2  A    between atoms: C_2  and  C_3
REMARK    3  A    between atoms: C_3  and  C_4
REMARK    4  A    between atoms: C_4  and  C_5
REMARK    5  A    between atoms: C_5  and  C_6
REMARK    6  A    between atoms: C_6  and  C_7
REMARK    7  A    between atoms: C_7  and  C_8
REMARK    8  A    between atoms: C_10  and  O_11
REMARK    9  A    between atoms: C_12  and  O_13
REMARK   10  A    between atoms: C_14  and  C_15
REMARK   11  A    between atoms: C_15  and  O_16
REMARK                            x       y       z     vdW  Elec       q    Type
REMARK                         _______ _______ _______ _____ _____    ______ ____
ROOT
ATOM      1  C   UNK A   0       4.590   4.006  17.995  0.00  0.00    +0.000 C 
ATOM      2  C   UNK A   1       5.560   4.228  19.165  0.00  0.00    +0.000 C 
ATOM      3  C   UNK A   1       6.540   5.369  18.880  0.00  0.00    +0.000 C 
ATOM      4  C   UNK A   1       7.271   5.142  17.547  0.00  0.00    +0.000 C 
ATOM      5  C   UNK A   1       6.259   4.908  16.411  0.00  0.00    +0.000 C 
ATOM      6  N   UNK A   1       5.309   3.807  16.722  0.00  0.00    +0.000 NA
ATOM      7  H   UNK A   1       5.801   2.913  16.742  0.00  0.00    +0.000 HD
ENDROOT
BRANCH   3   8
ATOM      8  O   UNK A   1       7.479   5.447  19.954  0.00  0.00    +0.000 OA
ATOM      9  H   UNK A   1       8.115   6.146  19.711  0.00  0.00    +0.000 HD
ENDBRANCH   3   8
BRANCH   4  10
ATOM     10  O   UNK A   1       8.163   4.022  17.696  0.00  0.00    +0.000 OA
ATOM     11  H   UNK A   1       7.672   3.306  18.135  0.00  0.00    +0.000 HD
ENDBRANCH   4  10
BRANCH   1  12
ATOM     12  C   UNK A   0       3.549   5.142  17.931  0.00  0.00    +0.000 C 
BRANCH  12  13
ATOM     13  C   UNK A   0       3.379   5.890  19.253  0.00  0.00    +0.000 C 
BRANCH  13  14
ATOM     14  C   UNK A   0       2.021   5.563  19.873  0.00  0.00    +0.000 C 
BRANCH  14  15
ATOM     15  C   UNK A   0       2.178   4.720  21.134  0.00  0.00    +0.000 C 
BRANCH  15  16
ATOM     16  C   UNK A   0       1.962   3.240  20.825  0.00  0.00    +0.000 C 
BRANCH  16  18
ATOM     17  C   UNK A   0       1.184   2.208  18.672  0.00  0.00    +0.000 C 
ATOM     18  C   UNK A   0       0.783   3.042  19.877  0.00  0.00    +0.000 C 
ENDBRANCH  16  18
ENDBRANCH  15  16
ENDBRANCH  14  15
ENDBRANCH  13  14
ENDBRANCH  12  13
ENDBRANCH   1  12
BRANCH   5  19
ATOM     19  C   UNK A   1       6.977   4.607  15.080  0.00  0.00    +0.000 C 
BRANCH  19  20
ATOM     20  O   UNK A   1       6.342   3.520  14.407  0.00  0.00    +0.000 OA
ATOM     21  H   UNK A   1       7.000   2.798  14.398  0.00  0.00    +0.000 HD
ENDBRANCH  19  20
ENDBRANCH   5  19
TORSDOF 10
ENDMDL
MODEL 4
REMARK VINA RESULT:      -6.3      1.042      1.414
REMARK  Name = 
REMARK  11 active torsions:
REMARK  status: ('A' for Active; 'I' for Inactive)
REMARK    1  A    between atoms: C_1  and  C_2
REMARK    2  A    between atoms: C_2  and  C_3
REMARK    3  A    between atoms: C_3  and  C_4
REMARK    4  A    between atoms: C_4  and  C_5
REMARK    5  A    between atoms: C_5  and  C_6
REMARK    6  A    between atoms: C_6  and  C_7
REMARK    7  A    between atoms: C_7  and  C_8
REMARK    8  A    between atoms: C_10  and  O_11
REMARK    9  A    between atoms: C_12  and  O_13
REMARK   10  A    between atoms: C_14  and  C_15
REMARK   11  A    between atoms: C_15  and  O_16
REMARK                            x       y       z     vdW  Elec       q    Type
REMARK                         _______ _______ _______ _____ _____    ______ ____
ROOT
ATOM      1  C   UNK A   0       4.631   4.832  18.113  0.00  0.00    +0.000 C 
ATOM      2  C   UNK A   1       5.783   4.838  19.129  0.00  0.00    +0.000 C 
ATOM      3  C   UNK A   1       6.925   5.754  18.686  0.00  0.00    +0.000 C 
ATOM      4  C   UNK A   1       7.396   5.393  17.268  0.00  0.00    +0.000 C 
ATOM      5  C   UNK A   1       6.205   5.385  16.291  0.00  0.00    +0.000 C 
ATOM      6  N   UNK A   1       5.104   4.501  16.756  0.00  0.00    +0.000 NA
ATOM      7  H   UNK A   1       5.399   3.524  16.724  0.00  0.00    +0.000 HD
ENDROOT
BRANCH   3   8
ATOM      8  O   UNK A   1       8.004   5.626  19.614  0.00  0.00    +0.000 OA
ATOM      9  H   UNK A   1       7.948   6.398  20.207  0.00  0.00    +0.000 HD
ENDBRANCH   3   8
BRANCH   4  10
ATOM     10  O   UNK A   1       8.050   4.112  17.311  0.00  0.00    +0.000 OA
ATOM     11  H   UNK A   1       8.364   3.968  18.220  0.00  0.00    +0.000 HD
ENDBRANCH   4  10
BRANCH   1  12
ATOM     12  C   UNK A   0       3.848   6.159  18.175  0.00  0.00    +0.000 C 
BRANCH  12  13
ATOM     13  C   UNK A   0       2.466   6.023  18.814  0.00  0.00    +0.000 C 
BRANCH  13  14
ATOM     14  C   UNK A   0       1.809   4.715  18.377  0.00  0.00    +0.000 C 
BRANCH  14  15
ATOM     15  C   UNK A   0       1.216   3.970  19.569  0.00  0.00    +0.000 C 
BRANCH  15  16
ATOM     16  C   UNK A   0       1.416   2.464  19.418  0.00  0.00    +0.000 C 
BRANCH  16  18
ATOM     17  C   UNK A   0       3.506   1.471  18.438  0.00  0.00    +0.000 C 
ATOM     18  C   UNK A   0       2.172   2.134  18.134  0.00  0.00    +0.000 C 
ENDBRANCH  16  18
ENDBRANCH  15  16
ENDBRANCH  14  15
ENDBRANCH  13  14
ENDBRANCH  12  13
ENDBRANCH   1  12
BRANCH   5  19
ATOM     19  C   UNK A   1       6.648   4.954  14.878  0.00  0.00    +0.000 C 
BRANCH  19  20
ATOM     20  O   UNK A   1       7.929   5.505  14.569  0.00  0.00    +0.000 OA
ATOM     21  H   UNK A   1       7.976   5.523  13.593  0.00  0.00    +0.000 HD
ENDBRANCH  19  20
ENDBRANCH   5  19
TORSDOF 10
ENDMDL
MODEL 5
REMARK VINA RESULT:      -6.2      1.543      2.604
REMARK  Name = 
REMARK  11 active torsions:
REMARK  status: ('A' for Active; 'I' for Inactive)
REMARK    1  A    between atoms: C_1  and  C_2
REMARK    2  A    between atoms: C_2  and  C_3
REMARK    3  A    between atoms: C_3  and  C_4
REMARK    4  A    between atoms: C_4  and  C_5
REMARK    5  A    between atoms: C_5  and  C_6
REMARK    6  A    between atoms: C_6  and  C_7
REMARK    7  A    between atoms: C_7  and  C_8
REMARK    8  A    between atoms: C_10  and  O_11
REMARK    9  A    between atoms: C_12  and  O_13
REMARK   10  A    between atoms: C_14  and  C_15
REMARK   11  A    between atoms: C_15  and  O_16
REMARK                            x       y       z     vdW  Elec       q    Type
REMARK                         _______ _______ _______ _____ _____    ______ ____
ROOT
ATOM      1  C   UNK A   0       4.346   5.576  17.116  0.00  0.00    +0.000 C 
ATOM      2  C   UNK A   1       4.756   4.877  15.810  0.00  0.00    +0.000 C 
ATOM      3  C   UNK A   1       5.961   3.957  16.014  0.00  0.00    +0.000 C 
ATOM      4  C   UNK A   1       7.128   4.720  16.663  0.00  0.00    +0.000 C 
ATOM      5  C   UNK A   1       6.664   5.415  17.956  0.00  0.00    +0.000 C 
ATOM      6  N   UNK A   1       5.481   6.288  17.731  0.00  0.00    +0.000 NA
ATOM      7  H   UNK A   1       5.739   7.088  17.153  0.00  0.00    +0.000 HD
ENDROOT
BRANCH   3   8
ATOM      8  O   UNK A   1       6.357   3.430  14.747  0.00  0.00    +0.000 OA
ATOM      9  H   UNK A   1       7.060   2.778  14.929  0.00  0.00    +0.000 HD
ENDBRANCH   3   8
BRANCH   4  10
ATOM     10  O   UNK A   1       7.643   5.669  15.711  0.00  0.00    +0.000 OA
ATOM     11  H   UNK A   1       7.181   5.527  14.867  0.00  0.00    +0.000 HD
ENDBRANCH   4  10
BRANCH   1  12
ATOM     12  C   UNK A   0       3.665   4.578  18.074  0.00  0.00    +0.000 C 
BRANCH  12  13
ATOM     13  C   UNK A   0       2.412   3.926  17.488  0.00  0.00    +0.000 C 
BRANCH  13  14
ATOM     14  C   UNK A   0       2.483   2.409  17.651  0.00  0.00    +0.000 C 
BRANCH  14  15
ATOM     15  C   UNK A   0       2.001   1.979  19.033  0.00  0.00    +0.000 C 
BRANCH  15  16
ATOM     16  C   UNK A   0       0.824   2.840  19.486  0.00  0.00    +0.000 C 
BRANCH  16  18
ATOM     17  C   UNK A   0       2.239   2.807  21.562  0.00  0.00    +0.000 C 
ATOM     18  C   UNK A   0       1.119   3.519  20.821  0.00  0.00    +0.000 C 
ENDBRANCH  16  18
ENDBRANCH  15  16
ENDBRANCH  14  15
ENDBRANCH  13  14
ENDBRANCH  12  13
ENDBRANCH   1  12
BRANCH   5  19
ATOM     19  C   UNK A   1       7.804   6.244  18.581  0.00  0.00    +0.000 C 
BRANCH  19  20
ATOM     20  O   UNK A   1       7.900   7.518  17.944  0.00  0.00    +0.000 OA
ATOM     21  H   UNK A   1       7.634   8.169  18.621  0.00  0.00    +0.000 HD
ENDBRANCH  19  20
ENDBRANCH   5  19
TORSDOF 10
ENDMDL
MODEL 6
REMARK VINA RESULT:      -6.1      1.290      2.785
REMARK  Name = 
REMARK  11 active torsions:
REMARK  status: ('A' for Active; 'I' for Inactive)
REMARK    1  A    between atoms: C_1  and  C_2
REMARK    2  A    between atoms: C_2  and  C_3
REMARK    3  A    between atoms: C_3  and  C_4
REMARK    4  A    between atoms: C_4  and  C_5
REMARK    5  A    between atoms: C_5  and  C_6
REMARK    6  A    between atoms: C_6  and  C_7
REMARK    7  A    between atoms: C_7  and  C_8
REMARK    8  A    between atoms: C_10  and  O_11
REMARK    9  A    between atoms: C_12  and  O_13
REMARK   10  A    between atoms: C_14  and  C_15
REMARK   11  A    between atoms: C_15  and  O_16
REMARK                            x       y       z     vdW  Elec       q    Type
REMARK                         _______ _______ _______ _____ _____    ______ ____
ROOT
ATOM      1  C   UNK A   0       4.506   5.389  16.801  0.00  0.00    +0.000 C 
ATOM      2  C   UNK A   1       5.396   5.591  15.566  0.00  0.00    +0.000 C 
ATOM      3  C   UNK A   1       6.771   4.944  15.747  0.00  0.00    +0.000 C 
ATOM      4  C   UNK A   1       7.441   5.438  17.040  0.00  0.00    +0.000 C 
ATOM      5  C   UNK A   1       6.505   5.230  18.244  0.00  0.00    +0.000 C 
ATOM      6  N   UNK A   1       5.171   5.853  18.033  0.00  0.00    +0.000 NA
ATOM      7  H   UNK A   1       5.256   6.870  18.015  0.00  0.00    +0.000 HD
ENDROOT
BRANCH   3   8
ATOM      8  O   UNK A   1       7.583   5.264  14.615  0.00  0.00    +0.000 OA
ATOM      9  H   UNK A   1       8.271   5.876  14.937  0.00  0.00    +0.000 HD
ENDBRANCH   3   8
BRANCH   4  10
ATOM     10  O   UNK A   1       7.790   6.825  16.877  0.00  0.00    +0.000 OA
ATOM     11  H   UNK A   1       7.099   7.245  16.336  0.00  0.00    +0.000 HD
ENDBRANCH   4  10
BRANCH   1  12
ATOM     12  C   UNK A   0       4.021   3.928  16.887  0.00  0.00    +0.000 C 
BRANCH  12  13
ATOM     13  C   UNK A   0       2.926   3.709  17.931  0.00  0.00    +0.000 C 
BRANCH  13  14
ATOM     14  C   UNK A   0       2.370   2.290  17.821  0.00  0.00    +0.000 C 
BRANCH  14  15
ATOM     15  C   UNK A   0       1.418   1.979  18.972  0.00  0.00    +0.000 C 
BRANCH  15  16
ATOM     16  C   UNK A   0       0.967   3.265  19.661  0.00  0.00    +0.000 C 
BRANCH  16  18
ATOM     17  C   UNK A   0       2.569   2.609  21.482  0.00  0.00    +0.000 C 
ATOM     18  C   UNK A   0       1.202   3.195  21.167  0.00  0.00    +0.000 C 
ENDBRANCH  16  18
ENDBRANCH  15  16
ENDBRANCH  14  15
ENDBRANCH  13  14
ENDBRANCH  12  13
ENDBRANCH   1  12
BRANCH   5  19
ATOM     19  C   UNK A   1       7.132   5.786  19.539  0.00  0.00    +0.000 C 
BRANCH  19  20
ATOM     20  O   UNK A   1       8.467   5.303  19.691  0.00  0.00    +0.000 OA
ATOM     21  H   UNK A   1       9.045   6.044  19.423  0.00  0.00    +0.000 HD
ENDBRANCH  19  20
ENDBRANCH   5  19
TORSDOF 10
ENDMDL
MODEL 7
REMARK VINA RESULT:      -6.1      1.388      2.659
REMARK  Name = 
REMARK  11 active torsions:
REMARK  status: ('A' for Active; 'I' for Inactive)
REMARK    1  A    between atoms: C_1  and  C_2
REMARK    2  A    between atoms: C_2  and  C_3
REMARK    3  A    between atoms: C_3  and  C_4
REMARK    4  A    between atoms: C_4  and  C_5
REMARK    5  A    between atoms: C_5  and  C_6
REMARK    6  A    between atoms: C_6  and  C_7
REMARK    7  A    between atoms: C_7  and  C_8
REMARK    8  A    between atoms: C_10  and  O_11
REMARK    9  A    between atoms: C_12  and  O_13
REMARK   10  A    between atoms: C_14  and  C_15
REMARK   11  A    between atoms: C_15  and  O_16
REMARK                            x       y       z     vdW  Elec       q    Type
REMARK                         _______ _______ _______ _____ _____    ______ ____
ROOT
ATOM      1  C   UNK A   0       4.463   5.933  17.452  0.00  0.00    +0.000 C 
ATOM      2  C   UNK A   1       4.772   5.034  16.246  0.00  0.00    +0.000 C 
ATOM      3  C   UNK A   1       5.715   3.888  16.620  0.00  0.00    +0.000 C 
ATOM      4  C   UNK A   1       6.989   4.426  17.291  0.00  0.00    +0.000 C 
ATOM      5  C   UNK A   1       6.628   5.334  18.481  0.00  0.00    +0.000 C 
ATOM      6  N   UNK A   1       5.697   6.426  18.093  0.00  0.00    +0.000 NA
ATOM      7  H   UNK A   1       6.167   7.085  17.471  0.00  0.00    +0.000 HD
ENDROOT
BRANCH   3   8
ATOM      8  O   UNK A   1       6.049   3.162  15.435  0.00  0.00    +0.000 OA
ATOM      9  H   UNK A   1       6.689   3.713  14.947  0.00  0.00    +0.000 HD
ENDBRANCH   3   8
BRANCH   4  10
ATOM     10  O   UNK A   1       7.765   5.134  16.307  0.00  0.00    +0.000 OA
ATOM     11  H   UNK A   1       8.706   4.978  16.500  0.00  0.00    +0.000 HD
ENDBRANCH   4  10
BRANCH   1  12
ATOM     12  C   UNK A   0       3.515   5.217  18.434  0.00  0.00    +0.000 C 
BRANCH  12  13
ATOM     13  C   UNK A   0       2.037   5.368  18.075  0.00  0.00    +0.000 C 
BRANCH  13  14
ATOM     14  C   UNK A   0       1.446   4.012  17.691  0.00  0.00    +0.000 C 
BRANCH  14  15
ATOM     15  C   UNK A   0       1.540   3.021  18.847  0.00  0.00    +0.000 C 
BRANCH  15  16
ATOM     16  C   UNK A   0       0.821   3.562  20.081  0.00  0.00    +0.000 C 
BRANCH  16  18
ATOM     17  C   UNK A   0       2.781   2.717  21.403  0.00  0.00    +0.000 C 
ATOM     18  C   UNK A   0       1.267   2.832  21.344  0.00  0.00    +0.000 C 
ENDBRANCH  16  18
ENDBRANCH  15  16
ENDBRANCH  14  15
ENDBRANCH  13  14
ENDBRANCH  12  13
ENDBRANCH   1  12
BRANCH   5  19
ATOM     19  C   UNK A   1       7.893   5.940  19.122  0.00  0.00    +0.000 C 
BRANCH  19  20
ATOM     20  O   UNK A   1       8.058   5.452  20.454  0.00  0.00    +0.000 OA
ATOM     21  H   UNK A   1       7.906   4.489  20.399  0.00  0.00    +0.000 HD
ENDBRANCH  19  20
ENDBRANCH   5  19
TORSDOF 10
ENDMDL
MODEL 8
REMARK VINA RESULT:      -6.0      3.084      6.043
REMARK  Name = 
REMARK  11 active torsions:
REMARK  status: ('A' for Active; 'I' for Inactive)
REMARK    1  A    between atoms: C_1  and  C_2
REMARK    2  A    between atoms: C_2  and  C_3
REMARK    3  A    between atoms: C_3  and  C_4
REMARK    4  A    between atoms: C_4  and  C_5
REMARK    5  A    between atoms: C_5  and  C_6
REMARK    6  A    between atoms: C_6  and  C_7
REMARK    7  A    between atoms: C_7  and  C_8
REMARK    8  A    between atoms: C_10  and  O_11
REMARK    9  A    between atoms: C_12  and  O_13
REMARK   10  A    between atoms: C_14  and  C_15
REMARK   11  A    between atoms: C_15  and  O_16
REMARK                            x       y       z     vdW  Elec       q    Type
REMARK                         _______ _______ _______ _____ _____    ______ ____
ROOT
ATOM      1  C   UNK A   0       5.808   5.690  16.396  0.00  0.00    +0.000 C 
ATOM      2  C   UNK A   1       6.584   6.053  17.670  0.00  0.00    +0.000 C 
ATOM      3  C   UNK A   1       6.506   4.941  18.718  0.00  0.00    +0.000 C 
ATOM      4  C   UNK A   1       5.043   4.567  19.009  0.00  0.00    +0.000 C 
ATOM      5  C   UNK A   1       4.304   4.228  17.702  0.00  0.00    +0.000 C 
ATOM      6  N   UNK A   1       4.412   5.318  16.696  0.00  0.00    +0.000 NA
ATOM      7  H   UNK A   1       3.898   6.140  17.012  0.00  0.00    +0.000 HD
ENDROOT
BRANCH   3   8
ATOM      8  O   UNK A   1       7.149   5.389  19.913  0.00  0.00    +0.000 OA
ATOM      9  H   UNK A   1       6.438   5.681  20.514  0.00  0.00    +0.000 HD
ENDBRANCH   3   8
BRANCH   4  10
ATOM     10  O   UNK A   1       4.416   5.663  19.699  0.00  0.00    +0.000 OA
ATOM     11  H   UNK A   1       4.943   6.463  19.532  0.00  0.00    +0.000 HD
ENDBRANCH   4  10
BRANCH   1  12
ATOM     12  C   UNK A   0       6.562   4.613  15.590  0.00  0.00    +0.000 C 
BRANCH  12  13
ATOM     13  C   UNK A   0       5.729   3.996  14.466  0.00  0.00    +0.000 C 
BRANCH  13  14
ATOM     14  C   UNK A   0       6.560   3.895  13.189  0.00  0.00    +0.000 C 
BRANCH  14  15
ATOM     15  C   UNK A   0       5.810   3.133  12.100  0.00  0.00    +0.000 C 
BRANCH  15  16
ATOM     16  C   UNK A   0       4.427   3.738  11.874  0.00  0.00    +0.000 C 
BRANCH  16  18
ATOM     17  C   UNK A   0       3.039   4.041   9.802  0.00  0.00    +0.000 C 
ATOM     18  C   UNK A   0       3.699   3.036  10.731  0.00  0.00    +0.000 C 
ENDBRANCH  16  18
ENDBRANCH  15  16
ENDBRANCH  14  15
ENDBRANCH  13  14
ENDBRANCH  12  13
ENDBRANCH   1  12
BRANCH   5  19
ATOM     19  C   UNK A   1       2.817   3.920  17.968  0.00  0.00    +0.000 C 
BRANCH  19  20
ATOM     20  O   UNK A   1       2.049   5.123  17.952  0.00  0.00    +0.000 OA
ATOM     21  H   UNK A   1       2.018   5.425  18.880  0.00  0.00    +0.000 HD
ENDBRANCH  19  20
ENDBRANCH   5  19
TORSDOF 10
ENDMDL
MODEL 9
REMARK VINA RESULT:      -6.0      1.764      3.111
REMARK  Name = 
REMARK  11 active torsions:
REMARK  status: ('A' for Active; 'I' for Inactive)
REMARK    1  A    between atoms: C_1  and  C_2
REMARK    2  A    between atoms: C_2  and  C_3
REMARK    3  A    between atoms: C_3  and  C_4
REMARK    4  A    between atoms: C_4  and  C_5
REMARK    5  A    between atoms: C_5  and  C_6
REMARK    6  A    between atoms: C_6  and  C_7
REMARK    7  A    between atoms: C_7  and  C_8
REMARK    8  A    between atoms: C_10  and  O_11
REMARK    9  A    between atoms: C_12  and  O_13
REMARK   10  A    between atoms: C_14  and  C_15
REMARK   11  A    between atoms: C_15  and  O_16
REMARK                            x       y       z     vdW  Elec       q    Type
REMARK                         _______ _______ _______ _____ _____    ______ ____
ROOT
ATOM      1  C   UNK A   0       4.443   5.135  18.370  0.00  0.00    +0.000 C 
ATOM      2  C   UNK A   1       4.286   5.994  17.107  0.00  0.00    +0.000 C 
ATOM      3  C   UNK A   1       5.521   5.912  16.208  0.00  0.00    +0.000 C 
ATOM      4  C   UNK A   1       6.795   6.257  16.997  0.00  0.00    +0.000 C 
ATOM      5  C   UNK A   1       6.899   5.383  18.260  0.00  0.00    +0.000 C 
ATOM      6  N   UNK A   1       5.678   5.468  19.104  0.00  0.00    +0.000 NA
ATOM      7  H   UNK A   1       5.595   6.401  19.510  0.00  0.00    +0.000 HD
ENDROOT
BRANCH   3   8
ATOM      8  O   UNK A   1       5.356   6.818  15.115  0.00  0.00    +0.000 OA
ATOM      9  H   UNK A   1       5.508   7.711  15.475  0.00  0.00    +0.000 HD
ENDBRANCH   3   8
BRANCH   4  10
ATOM     10  O   UNK A   1       6.767   7.657  17.328  0.00  0.00    +0.000 OA
ATOM     11  H   UNK A   1       7.672   7.927  17.563  0.00  0.00    +0.000 HD
ENDBRANCH   4  10
BRANCH   1  12
ATOM     12  C   UNK A   0       4.330   3.637  18.024  0.00  0.00    +0.000 C 
BRANCH  12  13
ATOM     13  C   UNK A   0       4.270   2.729  19.253  0.00  0.00    +0.000 C 
BRANCH  13  14
ATOM     14  C   UNK A   0       3.079   1.778  19.147  0.00  0.00    +0.000 C 
BRANCH  14  15
ATOM     15  C   UNK A   0       2.019   2.324  18.195  0.00  0.00    +0.000 C 
BRANCH  15  16
ATOM     16  C   UNK A   0       0.728   2.639  18.947  0.00  0.00    +0.000 C 
BRANCH  16  18
ATOM     17  C   UNK A   0       1.220   4.560  20.489  0.00  0.00    +0.000 C 
ATOM     18  C   UNK A   0       1.017   3.057  20.386  0.00  0.00    +0.000 C 
ENDBRANCH  16  18
ENDBRANCH  15  16
ENDBRANCH  14  15
ENDBRANCH  13  14
ENDBRANCH  12  13
ENDBRANCH   1  12
BRANCH   5  19
ATOM     19  C   UNK A   1       8.134   5.765  19.101  0.00  0.00    +0.000 C 
BRANCH  19  20
ATOM     20  O   UNK A   1       7.921   5.439  20.474  0.00  0.00    +0.000 OA
ATOM     21  H   UNK A   1       7.540   4.540  20.473  0.00  0.00    +0.000 HD
ENDBRANCH  19  20
ENDBRANCH   5  19
TORSDOF 10
ENDMDL
