MODEL 1
REMARK VINA RESULT:      -8.4      0.000      0.000
REMARK  Name = 
REMARK  5 active torsions:
REMARK  status: ('A' for Active; 'I' for Inactive)
REMARK    1  A    between atoms: C_1  and  C_2
REMARK    2  A    between atoms: N_5  and  C_6
REMARK    3  A    between atoms: C_6  and  C_7
REMARK    4  A    between atoms: C_7  and  C_8
REMARK    5  A    between atoms: C_8  and  N_9
REMARK                            x       y       z     vdW  Elec       q    Type
REMARK                         _______ _______ _______ _____ _____    ______ ____
ROOT
ATOM      1  C   UNL     1       8.082   7.675  18.183  0.00  0.00    +0.000 C 
ATOM      2  C   UNL     1       7.172   6.768  17.411  0.00  0.00    +0.000 A 
ATOM      3  N   UNL     1       5.997   6.438  18.000  0.00  0.00    +0.000 NA
ATOM      4  C   UNL     1       5.131   5.621  17.354  0.00  0.00    +0.000 A 
ATOM      5  N   UNL     1       3.910   5.282  17.896  0.00  0.00    +0.000 N 
ATOM      6  C   UNL     1       5.533   5.166  16.108  0.00  0.00    +0.000 A 
ATOM      7  O   UNL     1       4.854   4.335  15.265  0.00  0.00    +0.000 OA
ATOM      8  C   UNL     1       5.631   4.201  14.154  0.00  0.00    +0.000 A 
ATOM      9  C   UNL     1       5.299   3.446  13.034  0.00  0.00    +0.000 A 
ATOM     10  C   UNL     1       6.224   3.447  11.980  0.00  0.00    +0.000 A 
ATOM     11  C   UNL     1       7.415   4.174  12.070  0.00  0.00    +0.000 A 
ATOM     12  C   UNL     1       7.724   4.922  13.213  0.00  0.00    +0.000 A 
ATOM     13  C   UNL     1       6.809   4.934  14.283  0.00  0.00    +0.000 A 
ATOM     14  C   UNL     1       6.742   5.550  15.559  0.00  0.00    +0.000 A 
ATOM     15  N   UNL     1       7.608   6.371  16.198  0.00  0.00    +0.000 NA
ATOM     16  H   UNL     1       3.387   4.555  17.425  0.00  0.00    +0.000 HD
ENDROOT
BRANCH   5  17
ATOM     17  C   UNL     1       3.577   5.696  19.238  0.00  0.00    +0.000 C 
BRANCH  17  18
ATOM     18  C   UNL     1       2.131   5.346  19.578  0.00  0.00    +0.000 C 
BRANCH  18  19
ATOM     19  C   UNL     1       1.534   4.240  18.688  0.00  0.00    +0.000 C 
BRANCH  19  20
ATOM     20  N   UNL     1       1.457   2.971  19.422  0.00  0.00    +0.000 NA
ATOM     21  C   UNL     1       1.160   3.101  20.863  0.00  0.00    +0.000 C 
ATOM     22  C   UNL     1       2.377   3.277  21.786  0.00  0.00    +0.000 C 
ATOM     23  O   UNL     1       3.386   2.296  21.534  0.00  0.00    +0.000 OA
ATOM     24  C   UNL     1       3.807   2.369  20.169  0.00  0.00    +0.000 C 
ATOM     25  C   UNL     1       2.634   2.103  19.219  0.00  0.00    +0.000 C 
ENDBRANCH  19  20
ENDBRANCH  18  19
ENDBRANCH  17  18
ENDBRANCH   5  17
TORSDOF 4
ENDMDL
MODEL 2
REMARK VINA RESULT:      -8.4      3.707      7.954
REMARK  Name = 
REMARK  5 active torsions:
REMARK  status: ('A' for Active; 'I' for Inactive)
REMARK    1  A    between atoms: C_1  and  C_2
REMARK    2  A    between atoms: N_5  and  C_6
REMARK    3  A    between atoms: C_6  and  C_7
REMARK    4  A    between atoms: C_7  and  C_8
REMARK    5  A    between atoms: C_8  and  N_9
REMARK                            x       y       z     vdW  Elec       q    Type
REMARK                         _______ _______ _______ _____ _____    ______ ____
ROOT
ATOM      1  C   UNL     1       6.829   4.632  14.047  0.00  0.00    +0.000 C 
ATOM      2  C   UNL     1       6.196   4.977  15.361  0.00  0.00    +0.000 A 
ATOM      3  N   UNL     1       6.799   5.944  16.094  0.00  0.00    +0.000 NA
ATOM      4  C   UNL     1       6.275   6.301  17.291  0.00  0.00    +0.000 A 
ATOM      5  N   UNL     1       6.832   7.301  18.059  0.00  0.00    +0.000 N 
ATOM      6  C   UNL     1       5.134   5.620  17.688  0.00  0.00    +0.000 A 
ATOM      7  O   UNL     1       4.424   5.784  18.841  0.00  0.00    +0.000 OA
ATOM      8  C   UNL     1       3.373   4.921  18.767  0.00  0.00    +0.000 A 
ATOM      9  C   UNL     1       2.386   4.779  19.738  0.00  0.00    +0.000 A 
ATOM     10  C   UNL     1       1.373   3.847  19.471  0.00  0.00    +0.000 A 
ATOM     11  C   UNL     1       1.373   3.105  18.286  0.00  0.00    +0.000 A 
ATOM     12  C   UNL     1       2.382   3.267  17.329  0.00  0.00    +0.000 A 
ATOM     13  C   UNL     1       3.410   4.196  17.577  0.00  0.00    +0.000 A 
ATOM     14  C   UNL     1       4.562   4.650  16.886  0.00  0.00    +0.000 A 
ATOM     15  N   UNL     1       5.079   4.294  15.687  0.00  0.00    +0.000 NA
ATOM     16  H   UNL     1       6.476   7.407  19.000  0.00  0.00    +0.000 HD
ENDROOT
BRANCH   5  17
ATOM     17  C   UNL     1       8.076   7.911  17.655  0.00  0.00    +0.000 C 
BRANCH  17  18
ATOM     18  C   UNL     1       8.040   9.423  17.864  0.00  0.00    +0.000 C 
BRANCH  18  19
ATOM     19  C   UNL     1       9.043   9.929  18.917  0.00  0.00    +0.000 C 
BRANCH  19  20
ATOM     20  N   UNL     1       9.322  11.357  18.719  0.00  0.00    +0.000 NA
ATOM     21  C   UNL     1      10.448  11.653  17.811  0.00  0.00    +0.000 C 
ATOM     22  C   UNL     1      11.837  11.724  18.465  0.00  0.00    +0.000 C 
ATOM     23  O   UNL     1      11.844  12.571  19.617  0.00  0.00    +0.000 OA
ATOM     24  C   UNL     1      10.889  12.100  20.573  0.00  0.00    +0.000 C 
ATOM     25  C   UNL     1       9.474  12.106  19.983  0.00  0.00    +0.000 C 
ENDBRANCH  19  20
ENDBRANCH  18  19
ENDBRANCH  17  18
ENDBRANCH   5  17
TORSDOF 4
ENDMDL
MODEL 3
REMARK VINA RESULT:      -8.4      4.373      6.505
REMARK  Name = 
REMARK  5 active torsions:
REMARK  status: ('A' for Active; 'I' for Inactive)
REMARK    1  A    between atoms: C_1  and  C_2
REMARK    2  A    between atoms: N_5  and  C_6
REMARK    3  A    between atoms: C_6  and  C_7
REMARK    4  A    between atoms: C_7  and  C_8
REMARK    5  A    between atoms: C_8  and  N_9
REMARK                            x       y       z     vdW  Elec       q    Type
REMARK                         _______ _______ _______ _____ _____    ______ ____
ROOT
ATOM      1  C   UNL     1       1.633   2.971  21.308  0.00  0.00    +0.000 C 
ATOM      2  C   UNL     1       2.159   4.057  20.420  0.00  0.00    +0.000 A 
ATOM      3  N   UNL     1       1.816   5.328  20.742  0.00  0.00    +0.000 NA
ATOM      4  C   UNL     1       2.260   6.354  19.978  0.00  0.00    +0.000 A 
ATOM      5  N   UNL     1       1.967   7.667  20.282  0.00  0.00    +0.000 N 
ATOM      6  C   UNL     1       3.045   6.012  18.888  0.00  0.00    +0.000 A 
ATOM      7  O   UNL     1       3.606   6.849  17.968  0.00  0.00    +0.000 OA
ATOM      8  C   UNL     1       4.311   6.057  17.113  0.00  0.00    +0.000 A 
ATOM      9  C   UNL     1       5.053   6.516  16.028  0.00  0.00    +0.000 A 
ATOM     10  C   UNL     1       5.726   5.545  15.274  0.00  0.00    +0.000 A 
ATOM     11  C   UNL     1       5.643   4.189  15.607  0.00  0.00    +0.000 A 
ATOM     12  C   UNL     1       4.884   3.758  16.702  0.00  0.00    +0.000 A 
ATOM     13  C   UNL     1       4.199   4.716  17.473  0.00  0.00    +0.000 A 
ATOM     14  C   UNL     1       3.368   4.694  18.622  0.00  0.00    +0.000 A 
ATOM     15  N   UNL     1       2.931   3.666  19.386  0.00  0.00    +0.000 NA
ATOM     16  H   UNL     1       2.206   8.362  19.587  0.00  0.00    +0.000 HD
ENDROOT
BRANCH   5  17
ATOM     17  C   UNL     1       1.062   7.970  21.365  0.00  0.00    +0.000 C 
BRANCH  17  18
ATOM     18  C   UNL     1       1.141   9.446  21.749  0.00  0.00    +0.000 C 
BRANCH  18  19
ATOM     19  C   UNL     1       0.034  10.312  21.122  0.00  0.00    +0.000 C 
BRANCH  19  20
ATOM     20  N   UNL     1       0.144  10.311  19.658  0.00  0.00    +0.000 NA
ATOM     21  C   UNL     1       1.041  11.342  19.099  0.00  0.00    +0.000 C 
ATOM     22  C   UNL     1       0.395  12.705  18.804  0.00  0.00    +0.000 C 
ATOM     23  O   UNL     1      -0.808  12.574  18.041  0.00  0.00    +0.000 OA
ATOM     24  C   UNL     1      -1.740  11.745  18.742  0.00  0.00    +0.000 C 
ATOM     25  C   UNL     1      -1.163  10.343  18.971  0.00  0.00    +0.000 C 
ENDBRANCH  19  20
ENDBRANCH  18  19
ENDBRANCH  17  18
ENDBRANCH   5  17
TORSDOF 4
ENDMDL
MODEL 4
REMARK VINA RESULT:      -8.3      1.576      2.224
REMARK  Name = 
REMARK  5 active torsions:
REMARK  status: ('A' for Active; 'I' for Inactive)
REMARK    1  A    between atoms: C_1  and  C_2
REMARK    2  A    between atoms: N_5  and  C_6
REMARK    3  A    between atoms: C_6  and  C_7
REMARK    4  A    between atoms: C_7  and  C_8
REMARK    5  A    between atoms: C_8  and  N_9
REMARK                            x       y       z     vdW  Elec       q    Type
REMARK                         _______ _______ _______ _____ _____    ______ ____
ROOT
ATOM      1  C   UNL     1       8.060   6.301  19.229  0.00  0.00    +0.000 C 
ATOM      2  C   UNL     1       7.336   5.473  18.210  0.00  0.00    +0.000 A 
ATOM      3  N   UNL     1       6.392   4.621  18.677  0.00  0.00    +0.000 NA
ATOM      4  C   UNL     1       5.702   3.845  17.807  0.00  0.00    +0.000 A 
ATOM      5  N   UNL     1       4.709   2.986  18.228  0.00  0.00    +0.000 N 
ATOM      6  C   UNL     1       6.035   3.981  16.468  0.00  0.00    +0.000 A 
ATOM      7  O   UNL     1       5.500   3.317  15.403  0.00  0.00    +0.000 OA
ATOM      8  C   UNL     1       6.120   3.810  14.296  0.00  0.00    +0.000 A 
ATOM      9  C   UNL     1       5.856   3.412  12.989  0.00  0.00    +0.000 A 
ATOM     10  C   UNL     1       6.587   4.052  11.978  0.00  0.00    +0.000 A 
ATOM     11  C   UNL     1       7.533   5.035  12.287  0.00  0.00    +0.000 A 
ATOM     12  C   UNL     1       7.780   5.411  13.613  0.00  0.00    +0.000 A 
ATOM     13  C   UNL     1       7.057   4.781  14.643  0.00  0.00    +0.000 A 
ATOM     14  C   UNL     1       7.003   4.879  16.057  0.00  0.00    +0.000 A 
ATOM     15  N   UNL     1       7.690   5.661  16.922  0.00  0.00    +0.000 NA
ATOM     16  H   UNL     1       4.346   2.336  17.542  0.00  0.00    +0.000 HD
ENDROOT
BRANCH   5  17
ATOM     17  C   UNL     1       4.467   2.801  19.639  0.00  0.00    +0.000 C 
BRANCH  17  18
ATOM     18  C   UNL     1       3.010   2.431  19.901  0.00  0.00    +0.000 C 
BRANCH  18  19
ATOM     19  C   UNL     1       2.117   2.495  18.648  0.00  0.00    +0.000 C 
BRANCH  19  20
ATOM     20  N   UNL     1       1.223   3.657  18.709  0.00  0.00    +0.000 NA
ATOM     21  C   UNL     1       1.607   4.786  17.837  0.00  0.00    +0.000 C 
ATOM     22  C   UNL     1       2.577   5.809  18.451  0.00  0.00    +0.000 C 
ATOM     23  O   UNL     1       2.142   6.252  19.740  0.00  0.00    +0.000 OA
ATOM     24  C   UNL     1       2.008   5.133  20.620  0.00  0.00    +0.000 C 
ATOM     25  C   UNL     1       0.974   4.136  20.085  0.00  0.00    +0.000 C 
ENDBRANCH  19  20
ENDBRANCH  18  19
ENDBRANCH  17  18
ENDBRANCH   5  17
TORSDOF 4
ENDMDL
MODEL 5
REMARK VINA RESULT:      -8.3      3.722      7.839
REMARK  Name = 
REMARK  5 active torsions:
REMARK  status: ('A' for Active; 'I' for Inactive)
REMARK    1  A    between atoms: C_1  and  C_2
REMARK    2  A    between atoms: N_5  and  C_6
REMARK    3  A    between atoms: C_6  and  C_7
REMARK    4  A    between atoms: C_7  and  C_8
REMARK    5  A    between atoms: C_8  and  N_9
REMARK                            x       y       z     vdW  Elec       q    Type
REMARK                         _______ _______ _______ _____ _____    ______ ____
ROOT
ATOM      1  C   UNL     1       6.769   4.580  13.977  0.00  0.00    +0.000 C 
ATOM      2  C   UNL     1       6.121   4.949  15.277  0.00  0.00    +0.000 A 
ATOM      3  N   UNL     1       6.660   5.994  15.951  0.00  0.00    +0.000 NA
ATOM      4  C   UNL     1       6.121   6.377  17.133  0.00  0.00    +0.000 A 
ATOM      5  N   UNL     1       6.612   7.453  17.842  0.00  0.00    +0.000 N 
ATOM      6  C   UNL     1       5.032   5.642  17.576  0.00  0.00    +0.000 A 
ATOM      7  O   UNL     1       4.319   5.818  18.726  0.00  0.00    +0.000 OA
ATOM      8  C   UNL     1       3.330   4.883  18.708  0.00  0.00    +0.000 A 
ATOM      9  C   UNL     1       2.361   4.726  19.695  0.00  0.00    +0.000 A 
ATOM     10  C   UNL     1       1.413   3.714  19.487  0.00  0.00    +0.000 A 
ATOM     11  C   UNL     1       1.456   2.911  18.343  0.00  0.00    +0.000 A 
ATOM     12  C   UNL     1       2.446   3.090  17.370  0.00  0.00    +0.000 A 
ATOM     13  C   UNL     1       3.409   4.100  17.558  0.00  0.00    +0.000 A 
ATOM     14  C   UNL     1       4.523   4.594  16.833  0.00  0.00    +0.000 A 
ATOM     15  N   UNL     1       5.055   4.211  15.649  0.00  0.00    +0.000 NA
ATOM     16  H   UNL     1       6.255   7.584  18.779  0.00  0.00    +0.000 HD
ENDROOT
BRANCH   5  17
ATOM     17  C   UNL     1       7.809   8.124  17.394  0.00  0.00    +0.000 C 
BRANCH  17  18
ATOM     18  C   UNL     1       8.526   8.802  18.559  0.00  0.00    +0.000 C 
BRANCH  18  19
ATOM     19  C   UNL     1       8.911  10.267  18.284  0.00  0.00    +0.000 C 
BRANCH  19  20
ATOM     20  N   UNL     1       9.982  10.699  19.191  0.00  0.00    +0.000 NA
ATOM     21  C   UNL     1       9.526  11.181  20.510  0.00  0.00    +0.000 C 
ATOM     22  C   UNL     1       9.186  12.678  20.597  0.00  0.00    +0.000 C 
ATOM     23  O   UNL     1      10.229  13.496  20.060  0.00  0.00    +0.000 OA
ATOM     24  C   UNL     1      10.473  13.140  18.696  0.00  0.00    +0.000 C 
ATOM     25  C   UNL     1      10.909  11.675  18.582  0.00  0.00    +0.000 C 
ENDBRANCH  19  20
ENDBRANCH  18  19
ENDBRANCH  17  18
ENDBRANCH   5  17
TORSDOF 4
ENDMDL
MODEL 6
REMARK VINA RESULT:      -8.2      0.902      1.341
REMARK  Name = 
REMARK  5 active torsions:
REMARK  status: ('A' for Active; 'I' for Inactive)
REMARK    1  A    between atoms: C_1  and  C_2
REMARK    2  A    between atoms: N_5  and  C_6
REMARK    3  A    between atoms: C_6  and  C_7
REMARK    4  A    between atoms: C_7  and  C_8
REMARK    5  A    between atoms: C_8  and  N_9
REMARK                            x       y       z     vdW  Elec       q    Type
REMARK                         _______ _______ _______ _____ _____    ______ ____
ROOT
ATOM      1  C   UNL     1       8.118   7.411  18.324  0.00  0.00    +0.000 C 
ATOM      2  C   UNL     1       7.153   6.598  17.514  0.00  0.00    +0.000 A 
ATOM      3  N   UNL     1       5.940   6.360  18.069  0.00  0.00    +0.000 NA
ATOM      4  C   UNL     1       5.024   5.632  17.388  0.00  0.00    +0.000 A 
ATOM      5  N   UNL     1       3.765   5.390  17.895  0.00  0.00    +0.000 N 
ATOM      6  C   UNL     1       5.415   5.165  16.143  0.00  0.00    +0.000 A 
ATOM      7  O   UNL     1       4.690   4.410  15.269  0.00  0.00    +0.000 OA
ATOM      8  C   UNL     1       5.479   4.230  14.174  0.00  0.00    +0.000 A 
ATOM      9  C   UNL     1       5.112   3.525  13.032  0.00  0.00    +0.000 A 
ATOM     10  C   UNL     1       6.059   3.465  12.000  0.00  0.00    +0.000 A 
ATOM     11  C   UNL     1       7.306   4.085  12.131  0.00  0.00    +0.000 A 
ATOM     12  C   UNL     1       7.648   4.784  13.295  0.00  0.00    +0.000 A 
ATOM     13  C   UNL     1       6.712   4.856  14.344  0.00  0.00    +0.000 A 
ATOM     14  C   UNL     1       6.666   5.453  15.629  0.00  0.00    +0.000 A 
ATOM     15  N   UNL     1       7.583   6.186  16.304  0.00  0.00    +0.000 NA
ATOM     16  H   UNL     1       3.193   4.719  17.398  0.00  0.00    +0.000 HD
ENDROOT
BRANCH   5  17
ATOM     17  C   UNL     1       3.436   5.807  19.237  0.00  0.00    +0.000 C 
BRANCH  17  18
ATOM     18  C   UNL     1       2.160   5.126  19.726  0.00  0.00    +0.000 C 
BRANCH  18  19
ATOM     19  C   UNL     1       2.290   4.495  21.124  0.00  0.00    +0.000 C 
BRANCH  19  20
ATOM     20  N   UNL     1       2.230   3.030  21.037  0.00  0.00    +0.000 NA
ATOM     21  C   UNL     1       3.541   2.357  20.944  0.00  0.00    +0.000 C 
ATOM     22  C   UNL     1       4.102   2.173  19.524  0.00  0.00    +0.000 C 
ATOM     23  O   UNL     1       3.139   1.593  18.640  0.00  0.00    +0.000 OA
ATOM     24  C   UNL     1       1.968   2.414  18.588  0.00  0.00    +0.000 C 
ATOM     25  C   UNL     1       1.328   2.542  19.975  0.00  0.00    +0.000 C 
ENDBRANCH  19  20
ENDBRANCH  18  19
ENDBRANCH  17  18
ENDBRANCH   5  17
TORSDOF 4
ENDMDL
MODEL 7
REMARK VINA RESULT:      -8.2      4.386      6.474
REMARK  Name = 
REMARK  5 active torsions:
REMARK  status: ('A' for Active; 'I' for Inactive)
REMARK    1  A    between atoms: C_1  and  C_2
REMARK    2  A    between atoms: N_5  and  C_6
REMARK    3  A    between atoms: C_6  and  C_7
REMARK    4  A    between atoms: C_7  and  C_8
REMARK    5  A    between atoms: C_8  and  N_9
REMARK                            x       y       z     vdW  Elec       q    Type
REMARK                         _______ _______ _______ _____ _____    ______ ____
ROOT
ATOM      1  C   UNL     1       1.120   3.033  20.913  0.00  0.00    +0.000 C 
ATOM      2  C   UNL     1       1.810   4.113  20.137  0.00  0.00    +0.000 A 
ATOM      3  N   UNL     1       1.603   5.387  20.549  0.00  0.00    +0.000 NA
ATOM      4  C   UNL     1       2.198   6.409  19.888  0.00  0.00    +0.000 A 
ATOM      5  N   UNL     1       2.046   7.720  20.288  0.00  0.00    +0.000 N 
ATOM      6  C   UNL     1       2.988   6.060  18.804  0.00  0.00    +0.000 A 
ATOM      7  O   UNL     1       3.684   6.892  17.976  0.00  0.00    +0.000 OA
ATOM      8  C   UNL     1       4.331   6.090  17.086  0.00  0.00    +0.000 A 
ATOM      9  C   UNL     1       5.170   6.538  16.070  0.00  0.00    +0.000 A 
ATOM     10  C   UNL     1       5.760   5.555  15.264  0.00  0.00    +0.000 A 
ATOM     11  C   UNL     1       5.504   4.197  15.482  0.00  0.00    +0.000 A 
ATOM     12  C   UNL     1       4.650   3.777  16.509  0.00  0.00    +0.000 A 
ATOM     13  C   UNL     1       4.047   4.748  17.330  0.00  0.00    +0.000 A 
ATOM     14  C   UNL     1       3.166   4.738  18.442  0.00  0.00    +0.000 A 
ATOM     15  N   UNL     1       2.579   3.713  19.103  0.00  0.00    +0.000 NA
ATOM     16  H   UNL     1       2.397   8.432  19.662  0.00  0.00    +0.000 HD
ENDROOT
BRANCH   5  17
ATOM     17  C   UNL     1       1.134   8.045  21.359  0.00  0.00    +0.000 C 
BRANCH  17  18
ATOM     18  C   UNL     1       1.002   9.557  21.526  0.00  0.00    +0.000 C 
BRANCH  18  19
ATOM     19  C   UNL     1      -0.339  10.123  21.026  0.00  0.00    +0.000 C 
BRANCH  19  20
ATOM     20  N   UNL     1      -0.120  11.090  19.943  0.00  0.00    +0.000 NA
ATOM     21  C   UNL     1      -1.153  12.138  19.823  0.00  0.00    +0.000 C 
ATOM     22  C   UNL     1      -2.361  11.791  18.937  0.00  0.00    +0.000 C 
ATOM     23  O   UNL     1      -1.962  11.287  17.660  0.00  0.00    +0.000 OA
ATOM     24  C   UNL     1      -1.145  10.125  17.830  0.00  0.00    +0.000 C 
ATOM     25  C   UNL     1       0.120  10.456  18.630  0.00  0.00    +0.000 C 
ENDBRANCH  19  20
ENDBRANCH  18  19
ENDBRANCH  17  18
ENDBRANCH   5  17
TORSDOF 4
ENDMDL
MODEL 8
REMARK VINA RESULT:      -8.2      3.603      7.178
REMARK  Name = 
REMARK  5 active torsions:
REMARK  status: ('A' for Active; 'I' for Inactive)
REMARK    1  A    between atoms: C_1  and  C_2
REMARK    2  A    between atoms: N_5  and  C_6
REMARK    3  A    between atoms: C_6  and  C_7
REMARK    4  A    between atoms: C_7  and  C_8
REMARK    5  A    between atoms: C_8  and  N_9
REMARK                            x       y       z     vdW  Elec       q    Type
REMARK                         _______ _______ _______ _____ _____    ______ ____
ROOT
ATOM      1  C   UNL     1       3.981   4.692  18.624  0.00  0.00    +0.000 C 
ATOM      2  C   UNL     1       4.967   4.969  17.530  0.00  0.00    +0.000 A 
ATOM      3  N   UNL     1       5.947   5.864  17.806  0.00  0.00    +0.000 NA
ATOM      4  C   UNL     1       6.870   6.158  16.859  0.00  0.00    +0.000 A 
ATOM      5  N   UNL     1       7.906   7.035  17.101  0.00  0.00    +0.000 N 
ATOM      6  C   UNL     1       6.728   5.508  15.643  0.00  0.00    +0.000 A 
ATOM      7  O   UNL     1       7.513   5.632  14.534  0.00  0.00    +0.000 OA
ATOM      8  C   UNL     1       7.002   4.775  13.607  0.00  0.00    +0.000 A 
ATOM      9  C   UNL     1       7.519   4.578  12.330  0.00  0.00    +0.000 A 
ATOM     10  C   UNL     1       6.861   3.637  11.526  0.00  0.00    +0.000 A 
ATOM     11  C   UNL     1       5.743   2.944  11.998  0.00  0.00    +0.000 A 
ATOM     12  C   UNL     1       5.242   3.167  13.286  0.00  0.00    +0.000 A 
ATOM     13  C   UNL     1       5.887   4.108  14.111  0.00  0.00    +0.000 A 
ATOM     14  C   UNL     1       5.710   4.597  15.431  0.00  0.00    +0.000 A 
ATOM     15  N   UNL     1       4.790   4.295  16.376  0.00  0.00    +0.000 NA
ATOM     16  H   UNL     1       8.463   7.315  16.304  0.00  0.00    +0.000 HD
ENDROOT
BRANCH   5  17
ATOM     17  C   UNL     1       7.955   7.766  18.345  0.00  0.00    +0.000 C 
BRANCH  17  18
ATOM     18  C   UNL     1       8.303   9.233  18.106  0.00  0.00    +0.000 C 
BRANCH  18  19
ATOM     19  C   UNL     1       9.277   9.818  19.145  0.00  0.00    +0.000 C 
BRANCH  19  20
ATOM     20  N   UNL     1       9.321  11.282  19.044  0.00  0.00    +0.000 NA
ATOM     21  C   UNL     1       9.969  11.805  17.825  0.00  0.00    +0.000 C 
ATOM     22  C   UNL     1      11.491  12.011  17.909  0.00  0.00    +0.000 C 
ATOM     23  O   UNL     1      11.867  12.751  19.074  0.00  0.00    +0.000 OA
ATOM     24  C   UNL     1      11.410  12.075  20.249  0.00  0.00    +0.000 C 
ATOM     25  C   UNL     1       9.884  11.936  20.243  0.00  0.00    +0.000 C 
ENDBRANCH  19  20
ENDBRANCH  18  19
ENDBRANCH  17  18
ENDBRANCH   5  17
TORSDOF 4
ENDMDL
MODEL 9
REMARK VINA RESULT:      -8.1      4.730      6.719
REMARK  Name = 
REMARK  5 active torsions:
REMARK  status: ('A' for Active; 'I' for Inactive)
REMARK    1  A    between atoms: C_1  and  C_2
REMARK    2  A    between atoms: N_5  and  C_6
REMARK    3  A    between atoms: C_6  and  C_7
REMARK    4  A    between atoms: C_7  and  C_8
REMARK    5  A    between atoms: C_8  and  N_9
REMARK                            x       y       z     vdW  Elec       q    Type
REMARK                         _______ _______ _______ _____ _____    ______ ____
ROOT
ATOM      1  C   UNL     1       1.596   3.096  21.365  0.00  0.00    +0.000 C 
ATOM      2  C   UNL     1       2.146   4.155  20.458  0.00  0.00    +0.000 A 
ATOM      3  N   UNL     1       1.835   5.439  20.761  0.00  0.00    +0.000 NA
ATOM      4  C   UNL     1       2.301   6.442  19.979  0.00  0.00    +0.000 A 
ATOM      5  N   UNL     1       2.041   7.766  20.263  0.00  0.00    +0.000 N 
ATOM      6  C   UNL     1       3.076   6.063  18.893  0.00  0.00    +0.000 A 
ATOM      7  O   UNL     1       3.653   6.871  17.958  0.00  0.00    +0.000 OA
ATOM      8  C   UNL     1       4.337   6.049  17.114  0.00  0.00    +0.000 A 
ATOM      9  C   UNL     1       5.086   6.472  16.021  0.00  0.00    +0.000 A 
ATOM     10  C   UNL     1       5.734   5.473  15.281  0.00  0.00    +0.000 A 
ATOM     11  C   UNL     1       5.619   4.126  15.636  0.00  0.00    +0.000 A 
ATOM     12  C   UNL     1       4.853   3.730  16.739  0.00  0.00    +0.000 A 
ATOM     13  C   UNL     1       4.193   4.717  17.496  0.00  0.00    +0.000 A 
ATOM     14  C   UNL     1       3.365   4.734  18.647  0.00  0.00    +0.000 A 
ATOM     15  N   UNL     1       2.906   3.728  19.429  0.00  0.00    +0.000 NA
ATOM     16  H   UNL     1       2.295   8.443  19.556  0.00  0.00    +0.000 HD
ENDROOT
BRANCH   5  17
ATOM     17  C   UNL     1       1.147   8.108  21.343  0.00  0.00    +0.000 C 
BRANCH  17  18
ATOM     18  C   UNL     1       0.176   9.210  20.923  0.00  0.00    +0.000 C 
BRANCH  18  19
ATOM     19  C   UNL     1       0.678  10.065  19.745  0.00  0.00    +0.000 C 
BRANCH  19  20
ATOM     20  N   UNL     1       0.831  11.467  20.153  0.00  0.00    +0.000 NA
ATOM     21  C   UNL     1      -0.188  11.955  21.103  0.00  0.00    +0.000 C 
ATOM     22  C   UNL     1      -1.468  12.534  20.476  0.00  0.00    +0.000 C 
ATOM     23  O   UNL     1      -1.177  13.498  19.461  0.00  0.00    +0.000 OA
ATOM     24  C   UNL     1      -0.372  12.903  18.440  0.00  0.00    +0.000 C 
ATOM     25  C   UNL     1       0.957  12.399  19.014  0.00  0.00    +0.000 C 
ENDBRANCH  19  20
ENDBRANCH  18  19
ENDBRANCH  17  18
ENDBRANCH   5  17
TORSDOF 4
ENDMDL
