MODEL 1
REMARK VINA RESULT:      -8.9      0.000      0.000
REMARK  Name = 
REMARK  5 active torsions:
REMARK  status: ('A' for Active; 'I' for Inactive)
REMARK    1  A    between atoms: C_1  and  O_2
REMARK    2  A    between atoms: O_2  and  C_3
REMARK    3  A    between atoms: C_8  and  C_9
REMARK    4  A    between atoms: C_10  and  C_11
REMARK    5  A    between atoms: C_10  and  C_25
REMARK                            x       y       z     vdW  Elec       q    Type
REMARK                         _______ _______ _______ _____ _____    ______ ____
ROOT
ATOM      1  C   UNL     1       1.716   6.086  19.303  0.00  0.00    +0.000 C 
ATOM      2  C   UNL     1       2.633   6.919  18.764  0.00  0.00    +0.000 C 
ENDROOT
BRANCH   2   3
ATOM      3  C   UNL     1       2.222   8.325  18.347  0.00  0.00    +0.000 C 
ATOM      4  O   UNL     1       2.359   8.618  17.152  0.00  0.00    +0.000 OA
ATOM      5  N   UNL     1       1.749   9.277  19.237  0.00  0.00    +0.000 N 
ATOM      6  C   UNL     1       1.295  10.564  18.680  0.00  0.00    +0.000 C 
ATOM      7  C   UNL     1      -0.217  10.764  18.918  0.00  0.00    +0.000 C 
ATOM      8  N   UNL     1      -0.535  10.557  20.336  0.00  0.00    +0.000 N 
ATOM      9  C   UNL     1      -1.167  11.532  21.065  0.00  0.00    +0.000 A 
ATOM     10  N   UNL     1      -1.451  12.707  20.475  0.00  0.00    +0.000 NA
ATOM     11  C   UNL     1      -2.075  13.649  21.206  0.00  0.00    +0.000 A 
ATOM     12  C   UNL     1      -2.441  13.473  22.513  0.00  0.00    +0.000 A 
ATOM     13  C   UNL     1      -2.118  12.250  23.039  0.00  0.00    +0.000 A 
ATOM     14  N   UNL     1      -1.484  11.282  22.347  0.00  0.00    +0.000 NA
ATOM     15  C   UNL     1      -0.031   9.337  20.967  0.00  0.00    +0.000 C 
ATOM     16  C   UNL     1       1.487   9.190  20.685  0.00  0.00    +0.000 C 
ENDBRANCH   2   3
BRANCH   2  17
ATOM     17  C   UNL     1       3.976   6.493  18.269  0.00  0.00    +0.000 A 
ATOM     18  C   UNL     1       4.836   5.768  19.118  0.00  0.00    +0.000 A 
ATOM     19  C   UNL     1       5.974   5.128  18.608  0.00  0.00    +0.000 A 
ATOM     20  C   UNL     1       6.275   5.234  17.257  0.00  0.00    +0.000 A 
ATOM     21  F   UNL     1       7.338   4.593  16.759  0.00  0.00    +0.000 F 
ATOM     22  C   UNL     1       5.460   5.977  16.409  0.00  0.00    +0.000 A 
ATOM     23  C   UNL     1       4.305   6.576  16.907  0.00  0.00    +0.000 A 
ENDBRANCH   2  17
BRANCH   1  29
ATOM     24  C   UNL     1       1.560   3.525  19.038  0.00  0.00    +0.000 A 
ATOM     25  C   UNL     1       1.480   2.275  19.665  0.00  0.00    +0.000 A 
ATOM     26  C   UNL     1       1.753   2.147  21.025  0.00  0.00    +0.000 A 
ATOM     27  C   UNL     1       2.124   3.270  21.754  0.00  0.00    +0.000 A 
ATOM     28  C   UNL     1       2.099   4.527  21.147  0.00  0.00    +0.000 A 
ATOM     29  C   UNL     1       1.739   4.692  19.795  0.00  0.00    +0.000 A 
BRANCH  24  31
ATOM     30  C   UNL     1       2.773   3.199  17.088  0.00  0.00    +0.000 C 
ATOM     31  O   UNL     1       1.500   3.510  17.668  0.00  0.00    +0.000 OA
ENDBRANCH  24  31
ENDBRANCH   1  29
TORSDOF 4
ENDMDL
MODEL 2
REMARK VINA RESULT:      -8.5      2.987      5.728
REMARK  Name = 
REMARK  5 active torsions:
REMARK  status: ('A' for Active; 'I' for Inactive)
REMARK    1  A    between atoms: C_1  and  O_2
REMARK    2  A    between atoms: O_2  and  C_3
REMARK    3  A    between atoms: C_8  and  C_9
REMARK    4  A    between atoms: C_10  and  C_11
REMARK    5  A    between atoms: C_10  and  C_25
REMARK                            x       y       z     vdW  Elec       q    Type
REMARK                         _______ _______ _______ _____ _____    ______ ____
ROOT
ATOM      1  C   UNL     1       5.011   4.105  15.381  0.00  0.00    +0.000 C 
ATOM      2  C   UNL     1       5.196   4.477  16.667  0.00  0.00    +0.000 C 
ENDROOT
BRANCH   2   3
ATOM      3  C   UNL     1       4.086   4.249  17.685  0.00  0.00    +0.000 C 
ATOM      4  O   UNL     1       4.044   3.137  18.229  0.00  0.00    +0.000 OA
ATOM      5  N   UNL     1       3.122   5.198  17.989  0.00  0.00    +0.000 N 
ATOM      6  C   UNL     1       2.167   4.877  19.066  0.00  0.00    +0.000 C 
ATOM      7  C   UNL     1       2.336   5.845  20.256  0.00  0.00    +0.000 C 
ATOM      8  N   UNL     1       2.295   7.235  19.786  0.00  0.00    +0.000 N 
ATOM      9  C   UNL     1       1.389   8.126  20.303  0.00  0.00    +0.000 A 
ATOM     10  N   UNL     1       0.500   7.697  21.216  0.00  0.00    +0.000 NA
ATOM     11  C   UNL     1      -0.378   8.588  21.713  0.00  0.00    +0.000 A 
ATOM     12  C   UNL     1      -0.410   9.906  21.345  0.00  0.00    +0.000 A 
ATOM     13  C   UNL     1       0.528  10.262  20.411  0.00  0.00    +0.000 A 
ATOM     14  N   UNL     1       1.419   9.401  19.879  0.00  0.00    +0.000 NA
ATOM     15  C   UNL     1       3.157   7.589  18.658  0.00  0.00    +0.000 C 
ATOM     16  C   UNL     1       2.947   6.577  17.501  0.00  0.00    +0.000 C 
ENDBRANCH   2   3
BRANCH   2  17
ATOM     17  C   UNL     1       6.299   5.364  17.142  0.00  0.00    +0.000 A 
ATOM     18  C   UNL     1       6.331   6.714  16.743  0.00  0.00    +0.000 A 
ATOM     19  C   UNL     1       7.185   7.629  17.376  0.00  0.00    +0.000 A 
ATOM     20  C   UNL     1       8.030   7.193  18.387  0.00  0.00    +0.000 A 
ATOM     21  F   UNL     1       8.819   8.070  19.020  0.00  0.00    +0.000 F 
ATOM     22  C   UNL     1       8.041   5.856  18.770  0.00  0.00    +0.000 A 
ATOM     23  C   UNL     1       7.161   4.957  18.172  0.00  0.00    +0.000 A 
ENDBRANCH   2  17
BRANCH   1  29
ATOM     24  C   UNL     1       5.512   3.639  12.894  0.00  0.00    +0.000 A 
ATOM     25  C   UNL     1       6.443   3.681  11.848  0.00  0.00    +0.000 A 
ATOM     26  C   UNL     1       7.623   4.410  11.979  0.00  0.00    +0.000 A 
ATOM     27  C   UNL     1       7.861   5.115  13.153  0.00  0.00    +0.000 A 
ATOM     28  C   UNL     1       6.980   4.986  14.228  0.00  0.00    +0.000 A 
ATOM     29  C   UNL     1       5.826   4.180  14.150  0.00  0.00    +0.000 A 
BRANCH  24  31
ATOM     30  C   UNL     1       3.962   3.284  11.206  0.00  0.00    +0.000 C 
ATOM     31  O   UNL     1       4.293   3.092  12.586  0.00  0.00    +0.000 OA
ENDBRANCH  24  31
ENDBRANCH   1  29
TORSDOF 4
ENDMDL
MODEL 3
REMARK VINA RESULT:      -8.2      1.009      1.787
REMARK  Name = 
REMARK  5 active torsions:
REMARK  status: ('A' for Active; 'I' for Inactive)
REMARK    1  A    between atoms: C_1  and  O_2
REMARK    2  A    between atoms: O_2  and  C_3
REMARK    3  A    between atoms: C_8  and  C_9
REMARK    4  A    between atoms: C_10  and  C_11
REMARK    5  A    between atoms: C_10  and  C_25
REMARK                            x       y       z     vdW  Elec       q    Type
REMARK                         _______ _______ _______ _____ _____    ______ ____
ROOT
ATOM      1  C   UNL     1       1.966   5.646  18.199  0.00  0.00    +0.000 C 
ATOM      2  C   UNL     1       2.845   6.668  18.286  0.00  0.00    +0.000 C 
ENDROOT
BRANCH   2   3
ATOM      3  C   UNL     1       2.370   8.094  18.038  0.00  0.00    +0.000 C 
ATOM      4  O   UNL     1       2.416   8.505  16.871  0.00  0.00    +0.000 OA
ATOM      5  N   UNL     1       1.935   8.940  19.047  0.00  0.00    +0.000 N 
ATOM      6  C   UNL     1       1.411  10.260  18.650  0.00  0.00    +0.000 C 
ATOM      7  C   UNL     1      -0.085  10.387  19.007  0.00  0.00    +0.000 C 
ATOM      8  N   UNL     1      -0.299  10.034  20.416  0.00  0.00    +0.000 N 
ATOM      9  C   UNL     1      -0.903  10.914  21.278  0.00  0.00    +0.000 A 
ATOM     10  N   UNL     1      -1.257  12.130  20.827  0.00  0.00    +0.000 NA
ATOM     11  C   UNL     1      -1.852  12.977  21.687  0.00  0.00    +0.000 A 
ATOM     12  C   UNL     1      -2.123  12.664  22.992  0.00  0.00    +0.000 A 
ATOM     13  C   UNL     1      -1.732  11.407  23.372  0.00  0.00    +0.000 A 
ATOM     14  N   UNL     1      -1.123  10.531  22.547  0.00  0.00    +0.000 NA
ATOM     15  C   UNL     1       0.279   8.776  20.890  0.00  0.00    +0.000 C 
ATOM     16  C   UNL     1       1.777   8.706  20.493  0.00  0.00    +0.000 C 
ENDBRANCH   2   3
BRANCH   2  17
ATOM     17  C   UNL     1       4.329   6.508  18.331  0.00  0.00    +0.000 A 
ATOM     18  C   UNL     1       4.917   5.728  19.346  0.00  0.00    +0.000 A 
ATOM     19  C   UNL     1       6.261   5.339  19.263  0.00  0.00    +0.000 A 
ATOM     20  C   UNL     1       7.030   5.751  18.183  0.00  0.00    +0.000 A 
ATOM     21  F   UNL     1       8.302   5.349  18.080  0.00  0.00    +0.000 F 
ATOM     22  C   UNL     1       6.478   6.552  17.189  0.00  0.00    +0.000 A 
ATOM     23  C   UNL     1       5.131   6.902  17.249  0.00  0.00    +0.000 A 
ENDBRANCH   2  17
BRANCH   1  29
ATOM     24  C   UNL     1       1.668   3.416  19.462  0.00  0.00    +0.000 A 
ATOM     25  C   UNL     1       1.935   2.042  19.513  0.00  0.00    +0.000 A 
ATOM     26  C   UNL     1       2.431   1.376  18.395  0.00  0.00    +0.000 A 
ATOM     27  C   UNL     1       2.642   2.084  17.218  0.00  0.00    +0.000 A 
ATOM     28  C   UNL     1       2.473   3.470  17.205  0.00  0.00    +0.000 A 
ATOM     29  C   UNL     1       2.059   4.178  18.351  0.00  0.00    +0.000 A 
BRANCH  24  31
ATOM     30  C   UNL     1       1.372   3.318  21.760  0.00  0.00    +0.000 C 
ATOM     31  O   UNL     1       0.973   3.929  20.527  0.00  0.00    +0.000 OA
ENDBRANCH  24  31
ENDBRANCH   1  29
TORSDOF 4
ENDMDL
MODEL 4
REMARK VINA RESULT:      -8.0      2.411      4.418
REMARK  Name = 
REMARK  5 active torsions:
REMARK  status: ('A' for Active; 'I' for Inactive)
REMARK    1  A    between atoms: C_1  and  O_2
REMARK    2  A    between atoms: O_2  and  C_3
REMARK    3  A    between atoms: C_8  and  C_9
REMARK    4  A    between atoms: C_10  and  C_11
REMARK    5  A    between atoms: C_10  and  C_25
REMARK                            x       y       z     vdW  Elec       q    Type
REMARK                         _______ _______ _______ _____ _____    ______ ____
ROOT
ATOM      1  C   UNL     1       3.684   6.936  18.937  0.00  0.00    +0.000 C 
ATOM      2  C   UNL     1       2.440   6.647  19.377  0.00  0.00    +0.000 C 
ENDROOT
BRANCH   2   3
ATOM      3  C   UNL     1       1.767   7.563  20.391  0.00  0.00    +0.000 C 
ATOM      4  O   UNL     1       1.825   7.221  21.580  0.00  0.00    +0.000 OA
ATOM      5  N   UNL     1       1.078   8.714  20.041  0.00  0.00    +0.000 N 
ATOM      6  C   UNL     1       0.562   9.558  21.134  0.00  0.00    +0.000 C 
ATOM      7  C   UNL     1       1.249  10.940  21.133  0.00  0.00    +0.000 C 
ATOM      8  N   UNL     1       1.169  11.542  19.796  0.00  0.00    +0.000 N 
ATOM      9  C   UNL     1       0.606  12.779  19.614  0.00  0.00    +0.000 A 
ATOM     10  N   UNL     1       0.081  13.419  20.673  0.00  0.00    +0.000 NA
ATOM     11  C   UNL     1      -0.464  14.634  20.474  0.00  0.00    +0.000 A 
ATOM     12  C   UNL     1      -0.504  15.254  19.255  0.00  0.00    +0.000 A 
ATOM     13  C   UNL     1       0.053  14.537  18.229  0.00  0.00    +0.000 A 
ATOM     14  N   UNL     1       0.599  13.313  18.381  0.00  0.00    +0.000 NA
ATOM     15  C   UNL     1       1.583  10.716  18.662  0.00  0.00    +0.000 C 
ATOM     16  C   UNL     1       0.867   9.342  18.725  0.00  0.00    +0.000 C 
ENDBRANCH   2   3
BRANCH   2  17
ATOM     17  C   UNL     1       1.752   5.337  19.172  0.00  0.00    +0.000 A 
ATOM     18  C   UNL     1       1.706   4.766  17.885  0.00  0.00    +0.000 A 
ATOM     19  C   UNL     1       1.313   3.432  17.707  0.00  0.00    +0.000 A 
ATOM     20  C   UNL     1       0.936   2.674  18.807  0.00  0.00    +0.000 A 
ATOM     21  F   UNL     1       0.598   1.390  18.646  0.00  0.00    +0.000 F 
ATOM     22  C   UNL     1       0.939   3.231  20.081  0.00  0.00    +0.000 A 
ATOM     23  C   UNL     1       1.372   4.542  20.264  0.00  0.00    +0.000 A 
ENDBRANCH   2  17
BRANCH   1  29
ATOM     24  C   UNL     1       5.515   5.242  18.280  0.00  0.00    +0.000 A 
ATOM     25  C   UNL     1       6.447   4.821  17.322  0.00  0.00    +0.000 A 
ATOM     26  C   UNL     1       6.396   5.315  16.020  0.00  0.00    +0.000 A 
ATOM     27  C   UNL     1       5.399   6.219  15.673  0.00  0.00    +0.000 A 
ATOM     28  C   UNL     1       4.540   6.712  16.657  0.00  0.00    +0.000 A 
ATOM     29  C   UNL     1       4.631   6.294  18.000  0.00  0.00    +0.000 A 
BRANCH  24  31
ATOM     30  C   UNL     1       4.780   3.305  19.321  0.00  0.00    +0.000 C 
ATOM     31  O   UNL     1       5.505   4.533  19.453  0.00  0.00    +0.000 OA
ENDBRANCH  24  31
ENDBRANCH   1  29
TORSDOF 4
ENDMDL
MODEL 5
REMARK VINA RESULT:      -8.0      4.038      9.113
REMARK  Name = 
REMARK  5 active torsions:
REMARK  status: ('A' for Active; 'I' for Inactive)
REMARK    1  A    between atoms: C_1  and  O_2
REMARK    2  A    between atoms: O_2  and  C_3
REMARK    3  A    between atoms: C_8  and  C_9
REMARK    4  A    between atoms: C_10  and  C_11
REMARK    5  A    between atoms: C_10  and  C_25
REMARK                            x       y       z     vdW  Elec       q    Type
REMARK                         _______ _______ _______ _____ _____    ______ ____
ROOT
ATOM      1  C   UNL     1      -1.755   9.948  18.514  0.00  0.00    +0.000 C 
ATOM      2  C   UNL     1      -0.780  10.469  19.291  0.00  0.00    +0.000 C 
ENDROOT
BRANCH   2   3
ATOM      3  C   UNL     1       0.041   9.551  20.187  0.00  0.00    +0.000 C 
ATOM      4  O   UNL     1      -0.420   9.304  21.310  0.00  0.00    +0.000 OA
ATOM      5  N   UNL     1       1.270   9.026  19.820  0.00  0.00    +0.000 N 
ATOM      6  C   UNL     1       1.908   8.073  20.746  0.00  0.00    +0.000 C 
ATOM      7  C   UNL     1       2.027   6.675  20.102  0.00  0.00    +0.000 C 
ATOM      8  N   UNL     1       2.668   6.781  18.785  0.00  0.00    +0.000 N 
ATOM      9  C   UNL     1       3.801   6.064  18.494  0.00  0.00    +0.000 A 
ATOM     10  N   UNL     1       4.350   5.296  19.451  0.00  0.00    +0.000 NA
ATOM     11  C   UNL     1       5.459   4.598  19.144  0.00  0.00    +0.000 A 
ATOM     12  C   UNL     1       6.052   4.623  17.911  0.00  0.00    +0.000 A 
ATOM     13  C   UNL     1       5.431   5.429  16.993  0.00  0.00    +0.000 A 
ATOM     14  N   UNL     1       4.325   6.153  17.260  0.00  0.00    +0.000 NA
ATOM     15  C   UNL     1       2.133   7.776  17.855  0.00  0.00    +0.000 C 
ATOM     16  C   UNL     1       2.030   9.152  18.563  0.00  0.00    +0.000 C 
ENDBRANCH   2   3
BRANCH   2  17
ATOM     17  C   UNL     1      -0.609  11.926  19.572  0.00  0.00    +0.000 A 
ATOM     18  C   UNL     1      -0.074  12.770  18.580  0.00  0.00    +0.000 A 
ATOM     19  C   UNL     1      -0.149  14.164  18.709  0.00  0.00    +0.000 A 
ATOM     20  C   UNL     1      -0.732  14.720  19.839  0.00  0.00    +0.000 A 
ATOM     21  F   UNL     1      -0.841  16.049  19.948  0.00  0.00    +0.000 F 
ATOM     22  C   UNL     1      -1.232  13.903  20.848  0.00  0.00    +0.000 A 
ATOM     23  C   UNL     1      -1.198  12.518  20.700  0.00  0.00    +0.000 A 
ENDBRANCH   2  17
BRANCH   1  29
ATOM     24  C   UNL     1      -3.861  11.290  17.866  0.00  0.00    +0.000 A 
ATOM     25  C   UNL     1      -4.774  11.645  16.865  0.00  0.00    +0.000 A 
ATOM     26  C   UNL     1      -4.495  11.380  15.526  0.00  0.00    +0.000 A 
ATOM     27  C   UNL     1      -3.289  10.777  15.188  0.00  0.00    +0.000 A 
ATOM     28  C   UNL     1      -2.432  10.333  16.196  0.00  0.00    +0.000 A 
ATOM     29  C   UNL     1      -2.737  10.509  17.561  0.00  0.00    +0.000 A 
BRANCH  24  31
ATOM     30  C   UNL     1      -5.351  12.524  19.144  0.00  0.00    +0.000 C 
ATOM     31  O   UNL     1      -4.119  11.794  19.114  0.00  0.00    +0.000 OA
ENDBRANCH  24  31
ENDBRANCH   1  29
TORSDOF 4
ENDMDL
MODEL 6
REMARK VINA RESULT:      -7.8      3.956      8.915
REMARK  Name = 
REMARK  5 active torsions:
REMARK  status: ('A' for Active; 'I' for Inactive)
REMARK    1  A    between atoms: C_1  and  O_2
REMARK    2  A    between atoms: O_2  and  C_3
REMARK    3  A    between atoms: C_8  and  C_9
REMARK    4  A    between atoms: C_10  and  C_11
REMARK    5  A    between atoms: C_10  and  C_25
REMARK                            x       y       z     vdW  Elec       q    Type
REMARK                         _______ _______ _______ _____ _____    ______ ____
ROOT
ATOM      1  C   UNL     1      -2.103  10.227  18.944  0.00  0.00    +0.000 C 
ATOM      2  C   UNL     1      -0.969  10.694  19.512  0.00  0.00    +0.000 C 
ENDROOT
BRANCH   2   3
ATOM      3  C   UNL     1      -0.092   9.753  20.327  0.00  0.00    +0.000 C 
ATOM      4  O   UNL     1      -0.500   9.439  21.453  0.00  0.00    +0.000 OA
ATOM      5  N   UNL     1       1.133   9.278  19.884  0.00  0.00    +0.000 N 
ATOM      6  C   UNL     1       1.830   8.295  20.735  0.00  0.00    +0.000 C 
ATOM      7  C   UNL     1       1.954   6.936  20.015  0.00  0.00    +0.000 C 
ATOM      8  N   UNL     1       2.538   7.123  18.681  0.00  0.00    +0.000 N 
ATOM      9  C   UNL     1       3.674   6.450  18.309  0.00  0.00    +0.000 A 
ATOM     10  N   UNL     1       4.280   5.648  19.203  0.00  0.00    +0.000 NA
ATOM     11  C   UNL     1       5.391   4.994  18.817  0.00  0.00    +0.000 A 
ATOM     12  C   UNL     1       5.932   5.096  17.564  0.00  0.00    +0.000 A 
ATOM     13  C   UNL     1       5.255   5.931  16.714  0.00  0.00    +0.000 A 
ATOM     14  N   UNL     1       4.145   6.614  17.061  0.00  0.00    +0.000 NA
ATOM     15  C   UNL     1       1.943   8.150  17.826  0.00  0.00    +0.000 C 
ATOM     16  C   UNL     1       1.838   9.486  18.607  0.00  0.00    +0.000 C 
ENDBRANCH   2   3
BRANCH   2  17
ATOM     17  C   UNL     1      -0.628  12.141  19.656  0.00  0.00    +0.000 A 
ATOM     18  C   UNL     1       0.109  12.788  18.644  0.00  0.00    +0.000 A 
ATOM     19  C   UNL     1       0.213  14.186  18.617  0.00  0.00    +0.000 A 
ATOM     20  C   UNL     1      -0.392  14.940  19.613  0.00  0.00    +0.000 A 
ATOM     21  F   UNL     1      -0.328  16.276  19.569  0.00  0.00    +0.000 F 
ATOM     22  C   UNL     1      -1.092  14.318  20.641  0.00  0.00    +0.000 A 
ATOM     23  C   UNL     1      -1.233  12.932  20.644  0.00  0.00    +0.000 A 
ENDBRANCH   2  17
BRANCH   1  29
ATOM     24  C   UNL     1      -3.363  10.690  16.741  0.00  0.00    +0.000 A 
ATOM     25  C   UNL     1      -4.359  11.422  16.080  0.00  0.00    +0.000 A 
ATOM     26  C   UNL     1      -5.294  12.158  16.805  0.00  0.00    +0.000 A 
ATOM     27  C   UNL     1      -5.243  12.146  18.193  0.00  0.00    +0.000 A 
ATOM     28  C   UNL     1      -4.188  11.501  18.841  0.00  0.00    +0.000 A 
ATOM     29  C   UNL     1      -3.179  10.826  18.125  0.00  0.00    +0.000 A 
BRANCH  24  31
ATOM     30  C   UNL     1      -2.905  10.027  14.566  0.00  0.00    +0.000 C 
ATOM     31  O   UNL     1      -2.642   9.824  15.960  0.00  0.00    +0.000 OA
ENDBRANCH  24  31
ENDBRANCH   1  29
TORSDOF 4
ENDMDL
MODEL 7
REMARK VINA RESULT:      -7.6      2.482      4.591
REMARK  Name = 
REMARK  5 active torsions:
REMARK  status: ('A' for Active; 'I' for Inactive)
REMARK    1  A    between atoms: C_1  and  O_2
REMARK    2  A    between atoms: O_2  and  C_3
REMARK    3  A    between atoms: C_8  and  C_9
REMARK    4  A    between atoms: C_10  and  C_11
REMARK    5  A    between atoms: C_10  and  C_25
REMARK                            x       y       z     vdW  Elec       q    Type
REMARK                         _______ _______ _______ _____ _____    ______ ____
ROOT
ATOM      1  C   UNL     1       3.782   7.107  18.745  0.00  0.00    +0.000 C 
ATOM      2  C   UNL     1       2.613   6.627  19.221  0.00  0.00    +0.000 C 
ENDROOT
BRANCH   2   3
ATOM      3  C   UNL     1       1.789   7.470  20.185  0.00  0.00    +0.000 C 
ATOM      4  O   UNL     1       1.691   7.057  21.349  0.00  0.00    +0.000 OA
ATOM      5  N   UNL     1       1.128   8.630  19.812  0.00  0.00    +0.000 N 
ATOM      6  C   UNL     1       0.449   9.399  20.872  0.00  0.00    +0.000 C 
ATOM      7  C   UNL     1       1.100  10.787  21.046  0.00  0.00    +0.000 C 
ATOM      8  N   UNL     1       1.189  11.468  19.749  0.00  0.00    +0.000 N 
ATOM      9  C   UNL     1       0.629  12.707  19.564  0.00  0.00    +0.000 A 
ATOM     10  N   UNL     1      -0.050  13.274  20.577  0.00  0.00    +0.000 NA
ATOM     11  C   UNL     1      -0.589  14.491  20.377  0.00  0.00    +0.000 A 
ATOM     12  C   UNL     1      -0.476  15.184  19.202  0.00  0.00    +0.000 A 
ATOM     13  C   UNL     1       0.231  14.539  18.222  0.00  0.00    +0.000 A 
ATOM     14  N   UNL     1       0.778  13.315  18.375  0.00  0.00    +0.000 NA
ATOM     15  C   UNL     1       1.772  10.720  18.636  0.00  0.00    +0.000 C 
ATOM     16  C   UNL     1       1.084   9.334  18.519  0.00  0.00    +0.000 C 
ENDBRANCH   2   3
BRANCH   2  17
ATOM     17  C   UNL     1       2.175   5.204  19.111  0.00  0.00    +0.000 A 
ATOM     18  C   UNL     1       1.593   4.564  20.223  0.00  0.00    +0.000 A 
ATOM     19  C   UNL     1       0.933   3.335  20.079  0.00  0.00    +0.000 A 
ATOM     20  C   UNL     1       0.877   2.727  18.832  0.00  0.00    +0.000 A 
ATOM     21  F   UNL     1       0.215   1.574  18.683  0.00  0.00    +0.000 F 
ATOM     22  C   UNL     1       1.478   3.325  17.729  0.00  0.00    +0.000 A 
ATOM     23  C   UNL     1       2.094   4.566  17.863  0.00  0.00    +0.000 A 
ENDBRANCH   2  17
BRANCH   1  29
ATOM     24  C   UNL     1       6.021   5.948  18.198  0.00  0.00    +0.000 A 
ATOM     25  C   UNL     1       6.978   5.624  17.228  0.00  0.00    +0.000 A 
ATOM     26  C   UNL     1       6.689   5.769  15.873  0.00  0.00    +0.000 A 
ATOM     27  C   UNL     1       5.433   6.222  15.489  0.00  0.00    +0.000 A 
ATOM     28  C   UNL     1       4.522   6.642  16.461  0.00  0.00    +0.000 A 
ATOM     29  C   UNL     1       4.827   6.589  17.836  0.00  0.00    +0.000 A 
BRANCH  24  31
ATOM     30  C   UNL     1       7.726   5.568  19.724  0.00  0.00    +0.000 C 
ATOM     31  O   UNL     1       6.315   5.557  19.479  0.00  0.00    +0.000 OA
ENDBRANCH  24  31
ENDBRANCH   1  29
TORSDOF 4
ENDMDL
MODEL 8
REMARK VINA RESULT:      -7.4      3.644      9.173
REMARK  Name = 
REMARK  5 active torsions:
REMARK  status: ('A' for Active; 'I' for Inactive)
REMARK    1  A    between atoms: C_1  and  O_2
REMARK    2  A    between atoms: O_2  and  C_3
REMARK    3  A    between atoms: C_8  and  C_9
REMARK    4  A    between atoms: C_10  and  C_11
REMARK    5  A    between atoms: C_10  and  C_25
REMARK                            x       y       z     vdW  Elec       q    Type
REMARK                         _______ _______ _______ _____ _____    ______ ____
ROOT
ATOM      1  C   UNL     1       0.072  12.035  20.251  0.00  0.00    +0.000 C 
ATOM      2  C   UNL     1      -0.501  10.852  19.938  0.00  0.00    +0.000 C 
ENDROOT
BRANCH   2   3
ATOM      3  C   UNL     1       0.104   9.558  20.467  0.00  0.00    +0.000 C 
ATOM      4  O   UNL     1      -0.512   8.981  21.374  0.00  0.00    +0.000 OA
ATOM      5  N   UNL     1       1.305   9.035  20.013  0.00  0.00    +0.000 N 
ATOM      6  C   UNL     1       1.721   7.724  20.544  0.00  0.00    +0.000 C 
ATOM      7  C   UNL     1       1.766   6.665  19.423  0.00  0.00    +0.000 C 
ATOM      8  N   UNL     1       2.567   7.159  18.296  0.00  0.00    +0.000 N 
ATOM      9  C   UNL     1       3.643   6.446  17.832  0.00  0.00    +0.000 A 
ATOM     10  N   UNL     1       3.989   5.306  18.456  0.00  0.00    +0.000 NA
ATOM     11  C   UNL     1       5.045   4.619  17.983  0.00  0.00    +0.000 A 
ATOM     12  C   UNL     1       5.781   5.015  16.898  0.00  0.00    +0.000 A 
ATOM     13  C   UNL     1       5.364   6.185  16.319  0.00  0.00    +0.000 A 
ATOM     14  N   UNL     1       4.318   6.910  16.766  0.00  0.00    +0.000 NA
ATOM     15  C   UNL     1       2.257   8.494  17.785  0.00  0.00    +0.000 C 
ATOM     16  C   UNL     1       2.219   9.508  18.959  0.00  0.00    +0.000 C 
ENDBRANCH   2   3
BRANCH   2  17
ATOM     17  C   UNL     1      -1.530  10.665  18.872  0.00  0.00    +0.000 A 
ATOM     18  C   UNL     1      -2.735  11.392  18.930  0.00  0.00    +0.000 A 
ATOM     19  C   UNL     1      -3.594  11.444  17.822  0.00  0.00    +0.000 A 
ATOM     20  C   UNL     1      -3.268  10.749  16.666  0.00  0.00    +0.000 A 
ATOM     21  F   UNL     1      -4.065  10.827  15.595  0.00  0.00    +0.000 F 
ATOM     22  C   UNL     1      -2.101   9.994  16.603  0.00  0.00    +0.000 A 
ATOM     23  C   UNL     1      -1.226   9.978  17.686  0.00  0.00    +0.000 A 
ENDBRANCH   2  17
BRANCH   1  29
ATOM     24  C   UNL     1       0.391  14.218  18.913  0.00  0.00    +0.000 A 
ATOM     25  C   UNL     1       0.110  15.586  18.799  0.00  0.00    +0.000 A 
ATOM     26  C   UNL     1      -0.899  16.167  19.564  0.00  0.00    +0.000 A 
ATOM     27  C   UNL     1      -1.641  15.373  20.429  0.00  0.00    +0.000 A 
ATOM     28  C   UNL     1      -1.288  14.035  20.615  0.00  0.00    +0.000 A 
ATOM     29  C   UNL     1      -0.211  13.448  19.919  0.00  0.00    +0.000 A 
BRANCH  24  31
ATOM     30  C   UNL     1       2.608  13.936  18.295  0.00  0.00    +0.000 C 
ATOM     31  O   UNL     1       1.235  13.701  17.964  0.00  0.00    +0.000 OA
ENDBRANCH  24  31
ENDBRANCH   1  29
TORSDOF 4
ENDMDL
MODEL 9
REMARK VINA RESULT:      -7.4      5.466      8.641
REMARK  Name = 
REMARK  5 active torsions:
REMARK  status: ('A' for Active; 'I' for Inactive)
REMARK    1  A    between atoms: C_1  and  O_2
REMARK    2  A    between atoms: O_2  and  C_3
REMARK    3  A    between atoms: C_8  and  C_9
REMARK    4  A    between atoms: C_10  and  C_11
REMARK    5  A    between atoms: C_10  and  C_25
REMARK                            x       y       z     vdW  Elec       q    Type
REMARK                         _______ _______ _______ _____ _____    ______ ____
ROOT
ATOM      1  C   UNL     1      -2.615  13.422  21.129  0.00  0.00    +0.000 C 
ATOM      2  C   UNL     1      -1.487  12.970  21.719  0.00  0.00    +0.000 C 
ENDROOT
BRANCH   2   3
ATOM      3  C   UNL     1      -0.429  13.963  22.182  0.00  0.00    +0.000 C 
ATOM      4  O   UNL     1      -0.471  14.314  23.369  0.00  0.00    +0.000 OA
ATOM      5  N   UNL     1       0.530  14.505  21.341  0.00  0.00    +0.000 N 
ATOM      6  C   UNL     1       1.553  15.377  21.946  0.00  0.00    +0.000 C 
ATOM      7  C   UNL     1       2.957  14.751  21.815  0.00  0.00    +0.000 C 
ATOM      8  N   UNL     1       3.213  14.373  20.420  0.00  0.00    +0.000 N 
ATOM      9  C   UNL     1       4.309  14.856  19.750  0.00  0.00    +0.000 A 
ATOM     10  N   UNL     1       5.126  15.723  20.374  0.00  0.00    +0.000 NA
ATOM     11  C   UNL     1       6.197  16.181  19.701  0.00  0.00    +0.000 A 
ATOM     12  C   UNL     1       6.503  15.807  18.420  0.00  0.00    +0.000 A 
ATOM     13  C   UNL     1       5.622  14.922  17.856  0.00  0.00    +0.000 A 
ATOM     14  N   UNL     1       4.531  14.445  18.490  0.00  0.00    +0.000 NA
ATOM     15  C   UNL     1       2.188  13.583  19.738  0.00  0.00    +0.000 C 
ATOM     16  C   UNL     1       0.803  14.259  19.914  0.00  0.00    +0.000 C 
ENDBRANCH   2   3
BRANCH   2  17
ATOM     17  C   UNL     1      -1.039  11.546  21.711  0.00  0.00    +0.000 A 
ATOM     18  C   UNL     1      -0.482  10.996  20.540  0.00  0.00    +0.000 A 
ATOM     19  C   UNL     1       0.187   9.764  20.576  0.00  0.00    +0.000 A 
ATOM     20  C   UNL     1       0.276   9.064  21.771  0.00  0.00    +0.000 A 
ATOM     21  F   UNL     1       0.947   7.907  21.817  0.00  0.00    +0.000 F 
ATOM     22  C   UNL     1      -0.301   9.572  22.930  0.00  0.00    +0.000 A 
ATOM     23  C   UNL     1      -0.927  10.817  22.905  0.00  0.00    +0.000 A 
ENDBRANCH   2  17
BRANCH   1  29
ATOM     24  C   UNL     1      -3.927  12.162  19.299  0.00  0.00    +0.000 A 
ATOM     25  C   UNL     1      -5.168  11.709  18.835  0.00  0.00    +0.000 A 
ATOM     26  C   UNL     1      -6.279  11.703  19.677  0.00  0.00    +0.000 A 
ATOM     27  C   UNL     1      -6.140  12.133  20.990  0.00  0.00    +0.000 A 
ATOM     28  C   UNL     1      -4.928  12.681  21.414  0.00  0.00    +0.000 A 
ATOM     29  C   UNL     1      -3.817  12.781  20.553  0.00  0.00    +0.000 A 
BRANCH  24  31
ATOM     30  C   UNL     1      -2.961  10.635  17.846  0.00  0.00    +0.000 C 
ATOM     31  O   UNL     1      -2.857  11.916  18.477  0.00  0.00    +0.000 OA
ENDBRANCH  24  31
ENDBRANCH   1  29
TORSDOF 4
ENDMDL
