MODEL 1
REMARK VINA RESULT:      -8.8      0.000      0.000
REMARK  Name = 
REMARK  12 active torsions:
REMARK  status: ('A' for Active; 'I' for Inactive)
REMARK    1  A    between atoms: C_1  and  O_2
REMARK    2  A    between atoms: O_2  and  C_3
REMARK    3  A    between atoms: C_7  and  N_8
REMARK    4  A    between atoms: N_8  and  C_9
REMARK    5  A    between atoms: C_9  and  C_10
REMARK    6  A    between atoms: C_9  and  P_15
REMARK    7  A    between atoms: P_15  and  O_17
REMARK    8  A    between atoms: P_15  and  O_25
REMARK    9  A    between atoms: O_17  and  C_18
REMARK   10  A    between atoms: C_18  and  C_19
REMARK   11  A    between atoms: O_25  and  C_26
REMARK   12  A    between atoms: C_26  and  C_27
REMARK                            x       y       z     vdW  Elec       q    Type
REMARK                         _______ _______ _______ _____ _____    ______ ____
ROOT
ATOM      1  P   UNL     1       3.735   4.257  17.546  0.00  0.00    +0.000 P 
ATOM      2  O   UNL     1       2.240   4.599  17.336  0.00  0.00    +0.000 OA
ENDROOT
BRANCH   1   3
ATOM      3  C   UNL     1       4.040   5.985  18.069  0.00  0.00    +0.000 C 
BRANCH   3   4
ATOM      4  C   UNL     1       5.536   6.059  18.231  0.00  0.00    +0.000 A 
ATOM      5  C   UNL     1       6.460   5.432  19.040  0.00  0.00    +0.000 A 
ATOM      6  C   UNL     1       7.719   5.999  18.727  0.00  0.00    +0.000 A 
ATOM      7  C   UNL     1       7.486   6.947  17.755  0.00  0.00    +0.000 A 
ATOM      8  O   UNL     1       6.166   6.982  17.441  0.00  0.00    +0.000 OA
ENDBRANCH   3   4
BRANCH   3   9
ATOM      9  N   UNL     1       3.202   6.402  19.211  0.00  0.00    +0.000 N 
ATOM     10  H   UNL     1       3.721   6.261  20.084  0.00  0.00    +0.000 HD
BRANCH   9  15
ATOM     11  C   UNL     1       0.925   9.178  20.246  0.00  0.00    +0.000 A 
ATOM     12  C   UNL     1       0.761   9.824  19.023  0.00  0.00    +0.000 A 
ATOM     13  C   UNL     1       1.430   9.360  17.894  0.00  0.00    +0.000 A 
ATOM     14  C   UNL     1       2.224   8.213  17.978  0.00  0.00    +0.000 A 
ATOM     15  C   UNL     1       2.376   7.518  19.185  0.00  0.00    +0.000 A 
ATOM     16  C   UNL     1       1.773   8.069  20.327  0.00  0.00    +0.000 A 
BRANCH  11  18
ATOM     17  C   UNL     1      -0.457   8.793  22.147  0.00  0.00    +0.000 C 
ATOM     18  O   UNL     1       0.201   9.709  21.281  0.00  0.00    +0.000 OA
ENDBRANCH  11  18
ENDBRANCH   9  15
ENDBRANCH   3   9
ENDBRANCH   1   3
BRANCH   1  19
ATOM     19  O   UNL     1       4.582   4.576  16.128  0.00  0.00    +0.000 OA
BRANCH  19  20
ATOM     20  C   UNL     1       5.682   3.741  15.762  0.00  0.00    +0.000 C 
BRANCH  20  21
ATOM     21  C   UNL     1       6.256   3.992  14.385  0.00  0.00    +0.000 A 
ATOM     22  C   UNL     1       5.800   3.340  13.237  0.00  0.00    +0.000 A 
ATOM     23  C   UNL     1       6.384   3.604  11.995  0.00  0.00    +0.000 A 
ATOM     24  C   UNL     1       7.410   4.542  11.880  0.00  0.00    +0.000 A 
ATOM     25  C   UNL     1       7.836   5.242  13.005  0.00  0.00    +0.000 A 
ATOM     26  C   UNL     1       7.260   4.972  14.248  0.00  0.00    +0.000 A 
ENDBRANCH  20  21
ENDBRANCH  19  20
ENDBRANCH   1  19
BRANCH   1  27
ATOM     27  O   UNL     1       3.447   2.625  17.052  0.00  0.00    +0.000 OA
BRANCH  27  28
ATOM     28  C   UNL     1       3.560   1.678  18.121  0.00  0.00    +0.000 C 
BRANCH  28  29
ATOM     29  C   UNL     1       2.762   2.123  19.305  0.00  0.00    +0.000 A 
ATOM     30  C   UNL     1       3.407   2.474  20.493  0.00  0.00    +0.000 A 
ATOM     31  C   UNL     1       2.673   2.938  21.573  0.00  0.00    +0.000 A 
ATOM     32  C   UNL     1       1.282   3.051  21.478  0.00  0.00    +0.000 A 
ATOM     33  C   UNL     1       0.633   2.708  20.296  0.00  0.00    +0.000 A 
ATOM     34  C   UNL     1       1.364   2.244  19.212  0.00  0.00    +0.000 A 
ENDBRANCH  28  29
ENDBRANCH  27  28
ENDBRANCH   1  27
TORSDOF 11
ENDMDL
MODEL 2
REMARK VINA RESULT:      -8.7      2.051      6.753
REMARK  Name = 
REMARK  12 active torsions:
REMARK  status: ('A' for Active; 'I' for Inactive)
REMARK    1  A    between atoms: C_1  and  O_2
REMARK    2  A    between atoms: O_2  and  C_3
REMARK    3  A    between atoms: C_7  and  N_8
REMARK    4  A    between atoms: N_8  and  C_9
REMARK    5  A    between atoms: C_9  and  C_10
REMARK    6  A    between atoms: C_9  and  P_15
REMARK    7  A    between atoms: P_15  and  O_17
REMARK    8  A    between atoms: P_15  and  O_25
REMARK    9  A    between atoms: O_17  and  C_18
REMARK   10  A    between atoms: C_18  and  C_19
REMARK   11  A    between atoms: O_25  and  C_26
REMARK   12  A    between atoms: C_26  and  C_27
REMARK                            x       y       z     vdW  Elec       q    Type
REMARK                         _______ _______ _______ _____ _____    ______ ____
ROOT
ATOM      1  P   UNL     1       6.036   4.533  18.291  0.00  0.00    +0.000 P 
ATOM      2  O   UNL     1       7.354   4.708  19.084  0.00  0.00    +0.000 OA
ENDROOT
BRANCH   1   3
ATOM      3  C   UNL     1       6.826   5.320  16.838  0.00  0.00    +0.000 C 
BRANCH   3   4
ATOM      4  C   UNL     1       7.365   6.620  17.374  0.00  0.00    +0.000 A 
ATOM      5  C   UNL     1       8.204   6.973  18.411  0.00  0.00    +0.000 A 
ATOM      6  C   UNL     1       8.269   8.387  18.411  0.00  0.00    +0.000 A 
ATOM      7  C   UNL     1       7.457   8.813  17.383  0.00  0.00    +0.000 A 
ATOM      8  O   UNL     1       6.915   7.746  16.742  0.00  0.00    +0.000 OA
ENDBRANCH   3   4
BRANCH   3   9
ATOM      9  N   UNL     1       5.941   5.376  15.657  0.00  0.00    +0.000 N 
ATOM     10  H   UNL     1       5.453   6.278  15.640  0.00  0.00    +0.000 HD
BRANCH   9  15
ATOM     11  C   UNL     1       5.915   3.458  12.451  0.00  0.00    +0.000 A 
ATOM     12  C   UNL     1       7.081   3.948  11.867  0.00  0.00    +0.000 A 
ATOM     13  C   UNL     1       7.830   4.925  12.518  0.00  0.00    +0.000 A 
ATOM     14  C   UNL     1       7.439   5.373  13.783  0.00  0.00    +0.000 A 
ATOM     15  C   UNL     1       6.294   4.869  14.413  0.00  0.00    +0.000 A 
ATOM     16  C   UNL     1       5.504   3.963  13.688  0.00  0.00    +0.000 A 
BRANCH  11  18
ATOM     17  C   UNL     1       6.056   1.376  11.303  0.00  0.00    +0.000 C 
ATOM     18  O   UNL     1       5.275   2.485  11.729  0.00  0.00    +0.000 OA
ENDBRANCH  11  18
ENDBRANCH   9  15
ENDBRANCH   3   9
ENDBRANCH   1   3
BRANCH   1  19
ATOM     19  O   UNL     1       5.090   5.911  18.476  0.00  0.00    +0.000 OA
BRANCH  19  20
ATOM     20  C   UNL     1       3.738   5.905  18.014  0.00  0.00    +0.000 C 
BRANCH  20  21
ATOM     21  C   UNL     1       2.847   6.976  18.602  0.00  0.00    +0.000 A 
ATOM     22  C   UNL     1       2.346   6.922  19.905  0.00  0.00    +0.000 A 
ATOM     23  C   UNL     1       1.512   7.937  20.384  0.00  0.00    +0.000 A 
ATOM     24  C   UNL     1       1.192   9.030  19.579  0.00  0.00    +0.000 A 
ATOM     25  C   UNL     1       1.730   9.126  18.299  0.00  0.00    +0.000 A 
ATOM     26  C   UNL     1       2.555   8.109  17.816  0.00  0.00    +0.000 A 
ENDBRANCH  20  21
ENDBRANCH  19  20
ENDBRANCH   1  19
BRANCH   1  27
ATOM     27  O   UNL     1       5.291   3.791  19.663  0.00  0.00    +0.000 OA
BRANCH  27  28
ATOM     28  C   UNL     1       4.564   2.599  19.341  0.00  0.00    +0.000 C 
BRANCH  28  29
ATOM     29  C   UNL     1       3.099   2.802  19.556  0.00  0.00    +0.000 A 
ATOM     30  C   UNL     1       2.192   2.489  18.541  0.00  0.00    +0.000 A 
ATOM     31  C   UNL     1       0.830   2.626  18.757  0.00  0.00    +0.000 A 
ATOM     32  C   UNL     1       0.359   3.082  19.992  0.00  0.00    +0.000 A 
ATOM     33  C   UNL     1       1.256   3.390  21.010  0.00  0.00    +0.000 A 
ATOM     34  C   UNL     1       2.620   3.254  20.798  0.00  0.00    +0.000 A 
ENDBRANCH  28  29
ENDBRANCH  27  28
ENDBRANCH   1  27
TORSDOF 11
ENDMDL
MODEL 3
REMARK VINA RESULT:      -8.6      0.482      1.361
REMARK  Name = 
REMARK  12 active torsions:
REMARK  status: ('A' for Active; 'I' for Inactive)
REMARK    1  A    between atoms: C_1  and  O_2
REMARK    2  A    between atoms: O_2  and  C_3
REMARK    3  A    between atoms: C_7  and  N_8
REMARK    4  A    between atoms: N_8  and  C_9
REMARK    5  A    between atoms: C_9  and  C_10
REMARK    6  A    between atoms: C_9  and  P_15
REMARK    7  A    between atoms: P_15  and  O_17
REMARK    8  A    between atoms: P_15  and  O_25
REMARK    9  A    between atoms: O_17  and  C_18
REMARK   10  A    between atoms: C_18  and  C_19
REMARK   11  A    between atoms: O_25  and  C_26
REMARK   12  A    between atoms: C_26  and  C_27
REMARK                            x       y       z     vdW  Elec       q    Type
REMARK                         _______ _______ _______ _____ _____    ______ ____
ROOT
ATOM      1  P   UNL     1       3.804   4.312  17.560  0.00  0.00    +0.000 P 
ATOM      2  O   UNL     1       2.310   4.587  17.261  0.00  0.00    +0.000 OA
ENDROOT
BRANCH   1   3
ATOM      3  C   UNL     1       4.009   6.060  18.063  0.00  0.00    +0.000 C 
BRANCH   3   4
ATOM      4  C   UNL     1       5.499   6.227  18.209  0.00  0.00    +0.000 A 
ATOM      5  C   UNL     1       6.467   6.954  17.549  0.00  0.00    +0.000 A 
ATOM      6  C   UNL     1       7.702   6.622  18.156  0.00  0.00    +0.000 A 
ATOM      7  C   UNL     1       7.416   5.703  19.142  0.00  0.00    +0.000 A 
ATOM      8  O   UNL     1       6.079   5.467  19.188  0.00  0.00    +0.000 OA
ENDBRANCH   3   4
BRANCH   3   9
ATOM      9  N   UNL     1       3.158   6.439  19.209  0.00  0.00    +0.000 N 
ATOM     10  H   UNL     1       3.670   6.274  20.082  0.00  0.00    +0.000 HD
BRANCH   9  15
ATOM     11  C   UNL     1       0.900   9.203  20.316  0.00  0.00    +0.000 A 
ATOM     12  C   UNL     1       0.695   9.848  19.098  0.00  0.00    +0.000 A 
ATOM     13  C   UNL     1       1.330   9.387  17.948  0.00  0.00    +0.000 A 
ATOM     14  C   UNL     1       2.132   8.244  18.007  0.00  0.00    +0.000 A 
ATOM     15  C   UNL     1       2.325   7.551  19.209  0.00  0.00    +0.000 A 
ATOM     16  C   UNL     1       1.757   8.098  20.369  0.00  0.00    +0.000 A 
BRANCH  11  18
ATOM     17  C   UNL     1      -0.443   8.813  22.243  0.00  0.00    +0.000 C 
ATOM     18  O   UNL     1       0.207   9.731  21.372  0.00  0.00    +0.000 OA
ENDBRANCH  11  18
ENDBRANCH   9  15
ENDBRANCH   3   9
ENDBRANCH   1   3
BRANCH   1  19
ATOM     19  O   UNL     1       4.715   4.639  16.185  0.00  0.00    +0.000 OA
BRANCH  19  20
ATOM     20  C   UNL     1       5.416   3.576  15.536  0.00  0.00    +0.000 C 
BRANCH  20  21
ATOM     21  C   UNL     1       6.178   3.970  14.290  0.00  0.00    +0.000 A 
ATOM     22  C   UNL     1       7.190   4.933  14.286  0.00  0.00    +0.000 A 
ATOM     23  C   UNL     1       7.846   5.265  13.097  0.00  0.00    +0.000 A 
ATOM     24  C   UNL     1       7.519   4.620  11.905  0.00  0.00    +0.000 A 
ATOM     25  C   UNL     1       6.553   3.617  11.903  0.00  0.00    +0.000 A 
ATOM     26  C   UNL     1       5.891   3.292  13.088  0.00  0.00    +0.000 A 
ENDBRANCH  20  21
ENDBRANCH  19  20
ENDBRANCH   1  19
BRANCH   1  27
ATOM     27  O   UNL     1       3.609   2.660  17.086  0.00  0.00    +0.000 OA
BRANCH  27  28
ATOM     28  C   UNL     1       3.700   1.739  18.179  0.00  0.00    +0.000 C 
BRANCH  28  29
ATOM     29  C   UNL     1       2.836   2.185  19.315  0.00  0.00    +0.000 A 
ATOM     30  C   UNL     1       1.450   2.250  19.157  0.00  0.00    +0.000 A 
ATOM     31  C   UNL     1       0.643   2.612  20.225  0.00  0.00    +0.000 A 
ATOM     32  C   UNL     1       1.216   2.917  21.463  0.00  0.00    +0.000 A 
ATOM     33  C   UNL     1       2.596   2.849  21.630  0.00  0.00    +0.000 A 
ATOM     34  C   UNL     1       3.406   2.487  20.564  0.00  0.00    +0.000 A 
ENDBRANCH  28  29
ENDBRANCH  27  28
ENDBRANCH   1  27
TORSDOF 11
ENDMDL
MODEL 4
REMARK VINA RESULT:      -8.4      2.014      6.604
REMARK  Name = 
REMARK  12 active torsions:
REMARK  status: ('A' for Active; 'I' for Inactive)
REMARK    1  A    between atoms: C_1  and  O_2
REMARK    2  A    between atoms: O_2  and  C_3
REMARK    3  A    between atoms: C_7  and  N_8
REMARK    4  A    between atoms: N_8  and  C_9
REMARK    5  A    between atoms: C_9  and  C_10
REMARK    6  A    between atoms: C_9  and  P_15
REMARK    7  A    between atoms: P_15  and  O_17
REMARK    8  A    between atoms: P_15  and  O_25
REMARK    9  A    between atoms: O_17  and  C_18
REMARK   10  A    between atoms: C_18  and  C_19
REMARK   11  A    between atoms: O_25  and  C_26
REMARK   12  A    between atoms: C_26  and  C_27
REMARK                            x       y       z     vdW  Elec       q    Type
REMARK                         _______ _______ _______ _____ _____    ______ ____
ROOT
ATOM      1  P   UNL     1       5.915   4.584  18.413  0.00  0.00    +0.000 P 
ATOM      2  O   UNL     1       7.202   4.791  19.249  0.00  0.00    +0.000 OA
ENDROOT
BRANCH   1   3
ATOM      3  C   UNL     1       6.763   5.302  16.959  0.00  0.00    +0.000 C 
BRANCH   3   4
ATOM      4  C   UNL     1       7.363   6.582  17.479  0.00  0.00    +0.000 A 
ATOM      5  C   UNL     1       8.184   6.913  18.536  0.00  0.00    +0.000 A 
ATOM      6  C   UNL     1       8.336   8.321  18.501  0.00  0.00    +0.000 A 
ATOM      7  C   UNL     1       7.589   8.765  17.433  0.00  0.00    +0.000 A 
ATOM      8  O   UNL     1       7.005   7.715  16.801  0.00  0.00    +0.000 OA
ENDBRANCH   3   4
BRANCH   3   9
ATOM      9  N   UNL     1       5.899   5.383  15.764  0.00  0.00    +0.000 N 
ATOM     10  H   UNL     1       5.411   6.285  15.757  0.00  0.00    +0.000 HD
BRANCH   9  15
ATOM     11  C   UNL     1       5.911   3.549  12.508  0.00  0.00    +0.000 A 
ATOM     12  C   UNL     1       7.103   4.026  11.968  0.00  0.00    +0.000 A 
ATOM     13  C   UNL     1       7.858   4.967  12.664  0.00  0.00    +0.000 A 
ATOM     14  C   UNL     1       7.444   5.392  13.929  0.00  0.00    +0.000 A 
ATOM     15  C   UNL     1       6.271   4.899  14.516  0.00  0.00    +0.000 A 
ATOM     16  C   UNL     1       5.480   4.032  13.748  0.00  0.00    +0.000 A 
BRANCH  11  18
ATOM     17  C   UNL     1       4.024   2.993  11.167  0.00  0.00    +0.000 C 
ATOM     18  O   UNL     1       5.267   2.612  11.745  0.00  0.00    +0.000 OA
ENDBRANCH  11  18
ENDBRANCH   9  15
ENDBRANCH   3   9
ENDBRANCH   1   3
BRANCH   1  19
ATOM     19  O   UNL     1       4.968   5.972  18.500  0.00  0.00    +0.000 OA
BRANCH  19  20
ATOM     20  C   UNL     1       3.707   5.923  19.170  0.00  0.00    +0.000 C 
BRANCH  20  21
ATOM     21  C   UNL     1       2.852   7.162  19.029  0.00  0.00    +0.000 A 
ATOM     22  C   UNL     1       2.816   7.938  17.867  0.00  0.00    +0.000 A 
ATOM     23  C   UNL     1       2.015   9.083  17.806  0.00  0.00    +0.000 A 
ATOM     24  C   UNL     1       1.223   9.451  18.893  0.00  0.00    +0.000 A 
ATOM     25  C   UNL     1       1.204   8.657  20.036  0.00  0.00    +0.000 A 
ATOM     26  C   UNL     1       2.009   7.519  20.101  0.00  0.00    +0.000 A 
ENDBRANCH  20  21
ENDBRANCH  19  20
ENDBRANCH   1  19
BRANCH   1  27
ATOM     27  O   UNL     1       5.114   3.907  19.788  0.00  0.00    +0.000 OA
BRANCH  27  28
ATOM     28  C   UNL     1       4.561   2.608  19.542  0.00  0.00    +0.000 C 
BRANCH  28  29
ATOM     29  C   UNL     1       3.075   2.630  19.706  0.00  0.00    +0.000 A 
ATOM     30  C   UNL     1       2.512   2.886  20.958  0.00  0.00    +0.000 A 
ATOM     31  C   UNL     1       1.136   2.960  21.101  0.00  0.00    +0.000 A 
ATOM     32  C   UNL     1       0.306   2.773  19.992  0.00  0.00    +0.000 A 
ATOM     33  C   UNL     1       0.859   2.522  18.740  0.00  0.00    +0.000 A 
ATOM     34  C   UNL     1       2.237   2.448  18.593  0.00  0.00    +0.000 A 
ENDBRANCH  28  29
ENDBRANCH  27  28
ENDBRANCH   1  27
TORSDOF 11
ENDMDL
MODEL 5
REMARK VINA RESULT:      -8.4      0.886      1.744
REMARK  Name = 
REMARK  12 active torsions:
REMARK  status: ('A' for Active; 'I' for Inactive)
REMARK    1  A    between atoms: C_1  and  O_2
REMARK    2  A    between atoms: O_2  and  C_3
REMARK    3  A    between atoms: C_7  and  N_8
REMARK    4  A    between atoms: N_8  and  C_9
REMARK    5  A    between atoms: C_9  and  C_10
REMARK    6  A    between atoms: C_9  and  P_15
REMARK    7  A    between atoms: P_15  and  O_17
REMARK    8  A    between atoms: P_15  and  O_25
REMARK    9  A    between atoms: O_17  and  C_18
REMARK   10  A    between atoms: C_18  and  C_19
REMARK   11  A    between atoms: O_25  and  C_26
REMARK   12  A    between atoms: C_26  and  C_27
REMARK                            x       y       z     vdW  Elec       q    Type
REMARK                         _______ _______ _______ _____ _____    ______ ____
ROOT
ATOM      1  P   UNL     1       3.736   4.281  17.618  0.00  0.00    +0.000 P 
ATOM      2  O   UNL     1       2.245   4.572  17.322  0.00  0.00    +0.000 OA
ENDROOT
BRANCH   1   3
ATOM      3  C   UNL     1       3.938   6.002  18.208  0.00  0.00    +0.000 C 
BRANCH   3   4
ATOM      4  C   UNL     1       5.424   6.239  18.145  0.00  0.00    +0.000 A 
ATOM      5  C   UNL     1       6.250   7.046  17.391  0.00  0.00    +0.000 A 
ATOM      6  C   UNL     1       7.576   6.751  17.792  0.00  0.00    +0.000 A 
ATOM      7  C   UNL     1       7.480   5.773  18.758  0.00  0.00    +0.000 A 
ATOM      8  O   UNL     1       6.177   5.465  18.985  0.00  0.00    +0.000 OA
ENDBRANCH   3   4
BRANCH   3   9
ATOM      9  N   UNL     1       3.254   6.260  19.492  0.00  0.00    +0.000 N 
ATOM     10  H   UNL     1       3.897   6.060  20.266  0.00  0.00    +0.000 HD
BRANCH   9  15
ATOM     11  C   UNL     1       1.287   9.399  19.008  0.00  0.00    +0.000 A 
ATOM     12  C   UNL     1       0.569   9.420  20.201  0.00  0.00    +0.000 A 
ATOM     13  C   UNL     1       0.715   8.385  21.122  0.00  0.00    +0.000 A 
ATOM     14  C   UNL     1       1.624   7.354  20.870  0.00  0.00    +0.000 A 
ATOM     15  C   UNL     1       2.390   7.327  19.698  0.00  0.00    +0.000 A 
ATOM     16  C   UNL     1       2.145   8.327  18.743  0.00  0.00    +0.000 A 
BRANCH  11  18
ATOM     17  C   UNL     1       1.453  11.754  18.698  0.00  0.00    +0.000 C 
ATOM     18  O   UNL     1       1.079  10.479  18.191  0.00  0.00    +0.000 OA
ENDBRANCH  11  18
ENDBRANCH   9  15
ENDBRANCH   3   9
ENDBRANCH   1   3
BRANCH   1  19
ATOM     19  O   UNL     1       4.657   4.676  16.267  0.00  0.00    +0.000 OA
BRANCH  19  20
ATOM     20  C   UNL     1       5.686   3.786  15.832  0.00  0.00    +0.000 C 
BRANCH  20  21
ATOM     21  C   UNL     1       6.286   4.101  14.480  0.00  0.00    +0.000 A 
ATOM     22  C   UNL     1       7.336   5.005  14.301  0.00  0.00    +0.000 A 
ATOM     23  C   UNL     1       7.835   5.266  13.022  0.00  0.00    +0.000 A 
ATOM     24  C   UNL     1       7.310   4.608  11.910  0.00  0.00    +0.000 A 
ATOM     25  C   UNL     1       6.303   3.662  12.077  0.00  0.00    +0.000 A 
ATOM     26  C   UNL     1       5.798   3.407  13.354  0.00  0.00    +0.000 A 
ENDBRANCH  20  21
ENDBRANCH  19  20
ENDBRANCH   1  19
BRANCH   1  27
ATOM     27  O   UNL     1       3.545   2.656  17.060  0.00  0.00    +0.000 OA
BRANCH  27  28
ATOM     28  C   UNL     1       3.592   1.683  18.111  0.00  0.00    +0.000 C 
BRANCH  28  29
ATOM     29  C   UNL     1       2.777   2.133  19.281  0.00  0.00    +0.000 A 
ATOM     30  C   UNL     1       3.402   2.463  20.485  0.00  0.00    +0.000 A 
ATOM     31  C   UNL     1       2.653   2.932  21.553  0.00  0.00    +0.000 A 
ATOM     32  C   UNL     1       1.267   3.071  21.429  0.00  0.00    +0.000 A 
ATOM     33  C   UNL     1       0.638   2.750  20.230  0.00  0.00    +0.000 A 
ATOM     34  C   UNL     1       1.384   2.281  19.159  0.00  0.00    +0.000 A 
ENDBRANCH  28  29
ENDBRANCH  27  28
ENDBRANCH   1  27
TORSDOF 11
ENDMDL
MODEL 6
REMARK VINA RESULT:      -8.3      1.660      7.234
REMARK  Name = 
REMARK  12 active torsions:
REMARK  status: ('A' for Active; 'I' for Inactive)
REMARK    1  A    between atoms: C_1  and  O_2
REMARK    2  A    between atoms: O_2  and  C_3
REMARK    3  A    between atoms: C_7  and  N_8
REMARK    4  A    between atoms: N_8  and  C_9
REMARK    5  A    between atoms: C_9  and  C_10
REMARK    6  A    between atoms: C_9  and  P_15
REMARK    7  A    between atoms: P_15  and  O_17
REMARK    8  A    between atoms: P_15  and  O_25
REMARK    9  A    between atoms: O_17  and  C_18
REMARK   10  A    between atoms: C_18  and  C_19
REMARK   11  A    between atoms: O_25  and  C_26
REMARK   12  A    between atoms: C_26  and  C_27
REMARK                            x       y       z     vdW  Elec       q    Type
REMARK                         _______ _______ _______ _____ _____    ______ ____
ROOT
ATOM      1  P   UNL     1       4.109   5.752  17.601  0.00  0.00    +0.000 P 
ATOM      2  O   UNL     1       3.772   7.000  16.748  0.00  0.00    +0.000 OA
ENDROOT
BRANCH   1   3
ATOM      3  C   UNL     1       5.617   5.493  16.596  0.00  0.00    +0.000 C 
BRANCH   3   4
ATOM      4  C   UNL     1       6.683   6.263  17.331  0.00  0.00    +0.000 A 
ATOM      5  C   UNL     1       7.460   6.029  18.446  0.00  0.00    +0.000 A 
ATOM      6  C   UNL     1       8.242   7.192  18.643  0.00  0.00    +0.000 A 
ATOM      7  C   UNL     1       7.887   8.072  17.643  0.00  0.00    +0.000 A 
ATOM      8  O   UNL     1       6.950   7.510  16.837  0.00  0.00    +0.000 OA
ENDBRANCH   3   4
BRANCH   3   9
ATOM      9  N   UNL     1       5.418   5.789  15.163  0.00  0.00    +0.000 N 
ATOM     10  H   UNL     1       5.432   6.804  15.020  0.00  0.00    +0.000 HD
BRANCH   9  15
ATOM     11  C   UNL     1       5.907   3.313  12.409  0.00  0.00    +0.000 A 
ATOM     12  C   UNL     1       7.219   3.612  12.046  0.00  0.00    +0.000 A 
ATOM     13  C   UNL     1       7.902   4.643  12.685  0.00  0.00    +0.000 A 
ATOM     14  C   UNL     1       7.287   5.343  13.727  0.00  0.00    +0.000 A 
ATOM     15  C   UNL     1       5.984   5.038  14.141  0.00  0.00    +0.000 A 
ATOM     16  C   UNL     1       5.286   4.064  13.410  0.00  0.00    +0.000 A 
BRANCH  11  18
ATOM     17  C   UNL     1       6.235   1.300  11.180  0.00  0.00    +0.000 C 
ATOM     18  O   UNL     1       5.346   2.266  11.727  0.00  0.00    +0.000 OA
ENDBRANCH  11  18
ENDBRANCH   9  15
ENDBRANCH   3   9
ENDBRANCH   1   3
BRANCH   1  19
ATOM     19  O   UNL     1       3.438   4.389  16.879  0.00  0.00    +0.000 OA
BRANCH  19  20
ATOM     20  C   UNL     1       3.527   3.126  17.541  0.00  0.00    +0.000 C 
BRANCH  20  21
ATOM     21  C   UNL     1       2.736   3.011  18.825  0.00  0.00    +0.000 A 
ATOM     22  C   UNL     1       1.340   3.040  18.867  0.00  0.00    +0.000 A 
ATOM     23  C   UNL     1       0.667   2.946  20.089  0.00  0.00    +0.000 A 
ATOM     24  C   UNL     1       1.378   2.794  21.279  0.00  0.00    +0.000 A 
ATOM     25  C   UNL     1       2.767   2.705  21.248  0.00  0.00    +0.000 A 
ATOM     26  C   UNL     1       3.440   2.808  20.029  0.00  0.00    +0.000 A 
ENDBRANCH  20  21
ENDBRANCH  19  20
ENDBRANCH   1  19
BRANCH   1  27
ATOM     27  O   UNL     1       2.684   5.998  18.549  0.00  0.00    +0.000 OA
BRANCH  27  28
ATOM     28  C   UNL     1       2.929   6.703  19.772  0.00  0.00    +0.000 C 
BRANCH  28  29
ATOM     29  C   UNL     1       1.931   7.802  19.955  0.00  0.00    +0.000 A 
ATOM     30  C   UNL     1       1.729   8.740  18.940  0.00  0.00    +0.000 A 
ATOM     31  C   UNL     1       0.767   9.727  19.085  0.00  0.00    +0.000 A 
ATOM     32  C   UNL     1      -0.003   9.788  20.251  0.00  0.00    +0.000 A 
ATOM     33  C   UNL     1       0.188   8.853  21.264  0.00  0.00    +0.000 A 
ATOM     34  C   UNL     1       1.151   7.864  21.122  0.00  0.00    +0.000 A 
ENDBRANCH  28  29
ENDBRANCH  27  28
ENDBRANCH   1  27
TORSDOF 11
ENDMDL
MODEL 7
REMARK VINA RESULT:      -8.3      0.875      1.304
REMARK  Name = 
REMARK  12 active torsions:
REMARK  status: ('A' for Active; 'I' for Inactive)
REMARK    1  A    between atoms: C_1  and  O_2
REMARK    2  A    between atoms: O_2  and  C_3
REMARK    3  A    between atoms: C_7  and  N_8
REMARK    4  A    between atoms: N_8  and  C_9
REMARK    5  A    between atoms: C_9  and  C_10
REMARK    6  A    between atoms: C_9  and  P_15
REMARK    7  A    between atoms: P_15  and  O_17
REMARK    8  A    between atoms: P_15  and  O_25
REMARK    9  A    between atoms: O_17  and  C_18
REMARK   10  A    between atoms: C_18  and  C_19
REMARK   11  A    between atoms: O_25  and  C_26
REMARK   12  A    between atoms: C_26  and  C_27
REMARK                            x       y       z     vdW  Elec       q    Type
REMARK                         _______ _______ _______ _____ _____    ______ ____
ROOT
ATOM      1  P   UNL     1       4.225   3.978  17.758  0.00  0.00    +0.000 P 
ATOM      2  O   UNL     1       2.843   4.283  17.131  0.00  0.00    +0.000 OA
ENDROOT
BRANCH   1   3
ATOM      3  C   UNL     1       4.375   5.736  18.244  0.00  0.00    +0.000 C 
BRANCH   3   4
ATOM      4  C   UNL     1       5.836   5.903  18.569  0.00  0.00    +0.000 A 
ATOM      5  C   UNL     1       6.883   6.608  18.014  0.00  0.00    +0.000 A 
ATOM      6  C   UNL     1       8.032   6.291  18.779  0.00  0.00    +0.000 A 
ATOM      7  C   UNL     1       7.619   5.402  19.748  0.00  0.00    +0.000 A 
ATOM      8  O   UNL     1       6.286   5.171  19.634  0.00  0.00    +0.000 OA
ENDBRANCH   3   4
BRANCH   3   9
ATOM      9  N   UNL     1       3.391   6.142  19.268  0.00  0.00    +0.000 N 
ATOM     10  H   UNL     1       3.778   5.965  20.201  0.00  0.00    +0.000 HD
BRANCH   9  15
ATOM     11  C   UNL     1       1.046   8.941  20.055  0.00  0.00    +0.000 A 
ATOM     12  C   UNL     1       1.065   9.621  18.840  0.00  0.00    +0.000 A 
ATOM     13  C   UNL     1       1.875   9.170  17.801  0.00  0.00    +0.000 A 
ATOM     14  C   UNL     1       2.628   8.004  17.962  0.00  0.00    +0.000 A 
ATOM     15  C   UNL     1       2.598   7.277  19.159  0.00  0.00    +0.000 A 
ATOM     16  C   UNL     1       1.853   7.812  20.221  0.00  0.00    +0.000 A 
BRANCH  11  18
ATOM     17  C   UNL     1      -0.125  10.845  20.878  0.00  0.00    +0.000 C 
ATOM     18  O   UNL     1       0.196   9.464  20.994  0.00  0.00    +0.000 OA
ENDBRANCH  11  18
ENDBRANCH   9  15
ENDBRANCH   3   9
ENDBRANCH   1   3
BRANCH   1  19
ATOM     19  O   UNL     1       5.425   4.231  16.607  0.00  0.00    +0.000 OA
BRANCH  19  20
ATOM     20  C   UNL     1       5.135   5.014  15.448  0.00  0.00    +0.000 C 
BRANCH  20  21
ATOM     21  C   UNL     1       5.780   4.536  14.166  0.00  0.00    +0.000 A 
ATOM     22  C   UNL     1       5.167   3.634  13.293  0.00  0.00    +0.000 A 
ATOM     23  C   UNL     1       5.824   3.218  12.131  0.00  0.00    +0.000 A 
ATOM     24  C   UNL     1       7.087   3.717  11.814  0.00  0.00    +0.000 A 
ATOM     25  C   UNL     1       7.686   4.659  12.645  0.00  0.00    +0.000 A 
ATOM     26  C   UNL     1       7.035   5.069  13.810  0.00  0.00    +0.000 A 
ENDBRANCH  20  21
ENDBRANCH  19  20
ENDBRANCH   1  19
BRANCH   1  27
ATOM     27  O   UNL     1       4.083   2.316  17.299  0.00  0.00    +0.000 OA
BRANCH  27  28
ATOM     28  C   UNL     1       3.795   1.444  18.399  0.00  0.00    +0.000 C 
BRANCH  28  29
ATOM     29  C   UNL     1       2.870   2.108  19.368  0.00  0.00    +0.000 A 
ATOM     30  C   UNL     1       1.514   2.240  19.063  0.00  0.00    +0.000 A 
ATOM     31  C   UNL     1       0.645   2.806  19.983  0.00  0.00    +0.000 A 
ATOM     32  C   UNL     1       1.126   3.251  21.218  0.00  0.00    +0.000 A 
ATOM     33  C   UNL     1       2.475   3.118  21.532  0.00  0.00    +0.000 A 
ATOM     34  C   UNL     1       3.348   2.551  20.614  0.00  0.00    +0.000 A 
ENDBRANCH  28  29
ENDBRANCH  27  28
ENDBRANCH   1  27
TORSDOF 11
ENDMDL
MODEL 8
REMARK VINA RESULT:      -8.2      2.493      6.472
REMARK  Name = 
REMARK  12 active torsions:
REMARK  status: ('A' for Active; 'I' for Inactive)
REMARK    1  A    between atoms: C_1  and  O_2
REMARK    2  A    between atoms: O_2  and  C_3
REMARK    3  A    between atoms: C_7  and  N_8
REMARK    4  A    between atoms: N_8  and  C_9
REMARK    5  A    between atoms: C_9  and  C_10
REMARK    6  A    between atoms: C_9  and  P_15
REMARK    7  A    between atoms: P_15  and  O_17
REMARK    8  A    between atoms: P_15  and  O_25
REMARK    9  A    between atoms: O_17  and  C_18
REMARK   10  A    between atoms: C_18  and  C_19
REMARK   11  A    between atoms: O_25  and  C_26
REMARK   12  A    between atoms: C_26  and  C_27
REMARK                            x       y       z     vdW  Elec       q    Type
REMARK                         _______ _______ _______ _____ _____    ______ ____
ROOT
ATOM      1  P   UNL     1       5.843   7.286  17.290  0.00  0.00    +0.000 P 
ATOM      2  O   UNL     1       6.598   6.414  18.323  0.00  0.00    +0.000 OA
ENDROOT
BRANCH   1   3
ATOM      3  C   UNL     1       4.328   6.303  17.592  0.00  0.00    +0.000 C 
BRANCH   3   4
ATOM      4  C   UNL     1       3.308   7.325  18.020  0.00  0.00    +0.000 A 
ATOM      5  C   UNL     1       2.455   7.459  19.095  0.00  0.00    +0.000 A 
ATOM      6  C   UNL     1       1.707   8.639  18.871  0.00  0.00    +0.000 A 
ATOM      7  C   UNL     1       2.139   9.149  17.666  0.00  0.00    +0.000 A 
ATOM      8  O   UNL     1       3.118   8.363  17.149  0.00  0.00    +0.000 OA
ENDBRANCH   3   4
BRANCH   3   9
ATOM      9  N   UNL     1       4.555   5.144  18.479  0.00  0.00    +0.000 N 
ATOM     10  H   UNL     1       4.911   5.472  19.383  0.00  0.00    +0.000 HD
BRANCH   9  15
ATOM     11  C   UNL     1       2.142   2.564  19.695  0.00  0.00    +0.000 A 
ATOM     12  C   UNL     1       1.964   1.831  18.524  0.00  0.00    +0.000 A 
ATOM     13  C   UNL     1       2.607   2.219  17.352  0.00  0.00    +0.000 A 
ATOM     14  C   UNL     1       3.474   3.315  17.365  0.00  0.00    +0.000 A 
ATOM     15  C   UNL     1       3.705   4.048  18.537  0.00  0.00    +0.000 A 
ATOM     16  C   UNL     1       2.963   3.696  19.675  0.00  0.00    +0.000 A 
BRANCH  11  18
ATOM     17  C   UNL     1       1.701   2.734  22.028  0.00  0.00    +0.000 C 
ATOM     18  O   UNL     1       1.477   2.075  20.788  0.00  0.00    +0.000 OA
ENDBRANCH  11  18
ENDBRANCH   9  15
ENDBRANCH   3   9
ENDBRANCH   1   3
BRANCH   1  19
ATOM     19  O   UNL     1       5.959   6.573  15.771  0.00  0.00    +0.000 OA
BRANCH  19  20
ATOM     20  C   UNL     1       6.650   5.331  15.628  0.00  0.00    +0.000 C 
BRANCH  20  21
ATOM     21  C   UNL     1       6.724   4.790  14.217  0.00  0.00    +0.000 A 
ATOM     22  C   UNL     1       7.627   5.267  13.263  0.00  0.00    +0.000 A 
ATOM     23  C   UNL     1       7.635   4.737  11.970  0.00  0.00    +0.000 A 
ATOM     24  C   UNL     1       6.760   3.708  11.621  0.00  0.00    +0.000 A 
ATOM     25  C   UNL     1       5.894   3.183  12.577  0.00  0.00    +0.000 A 
ATOM     26  C   UNL     1       5.880   3.718  13.866  0.00  0.00    +0.000 A 
ENDBRANCH  20  21
ENDBRANCH  19  20
ENDBRANCH   1  19
BRANCH   1  27
ATOM     27  O   UNL     1       7.274   8.214  17.005  0.00  0.00    +0.000 OA
BRANCH  27  28
ATOM     28  C   UNL     1       8.174   8.228  18.119  0.00  0.00    +0.000 C 
BRANCH  28  29
ATOM     29  C   UNL     1       8.632   9.622  18.408  0.00  0.00    +0.000 A 
ATOM     30  C   UNL     1       8.372  10.648  17.497  0.00  0.00    +0.000 A 
ATOM     31  C   UNL     1       8.747  11.950  17.787  0.00  0.00    +0.000 A 
ATOM     32  C   UNL     1       9.393  12.239  18.993  0.00  0.00    +0.000 A 
ATOM     33  C   UNL     1       9.651  11.224  19.909  0.00  0.00    +0.000 A 
ATOM     34  C   UNL     1       9.276   9.920  19.622  0.00  0.00    +0.000 A 
ENDBRANCH  28  29
ENDBRANCH  27  28
ENDBRANCH   1  27
TORSDOF 11
ENDMDL
MODEL 9
REMARK VINA RESULT:      -8.1      1.686      7.280
REMARK  Name = 
REMARK  12 active torsions:
REMARK  status: ('A' for Active; 'I' for Inactive)
REMARK    1  A    between atoms: C_1  and  O_2
REMARK    2  A    between atoms: O_2  and  C_3
REMARK    3  A    between atoms: C_7  and  N_8
REMARK    4  A    between atoms: N_8  and  C_9
REMARK    5  A    between atoms: C_9  and  C_10
REMARK    6  A    between atoms: C_9  and  P_15
REMARK    7  A    between atoms: P_15  and  O_17
REMARK    8  A    between atoms: P_15  and  O_25
REMARK    9  A    between atoms: O_17  and  C_18
REMARK   10  A    between atoms: C_18  and  C_19
REMARK   11  A    between atoms: O_25  and  C_26
REMARK   12  A    between atoms: C_26  and  C_27
REMARK                            x       y       z     vdW  Elec       q    Type
REMARK                         _______ _______ _______ _____ _____    ______ ____
ROOT
ATOM      1  P   UNL     1       4.131   5.659  17.457  0.00  0.00    +0.000 P 
ATOM      2  O   UNL     1       4.073   6.784  16.395  0.00  0.00    +0.000 OA
ENDROOT
BRANCH   1   3
ATOM      3  C   UNL     1       5.685   5.051  16.704  0.00  0.00    +0.000 C 
BRANCH   3   4
ATOM      4  C   UNL     1       6.692   5.141  17.820  0.00  0.00    +0.000 A 
ATOM      5  C   UNL     1       8.001   4.739  17.985  0.00  0.00    +0.000 A 
ATOM      6  C   UNL     1       8.363   5.082  19.311  0.00  0.00    +0.000 A 
ATOM      7  C   UNL     1       7.249   5.661  19.879  0.00  0.00    +0.000 A 
ATOM      8  O   UNL     1       6.235   5.711  18.977  0.00  0.00    +0.000 OA
ENDBRANCH   3   4
BRANCH   3   9
ATOM      9  N   UNL     1       6.011   5.719  15.427  0.00  0.00    +0.000 N 
ATOM     10  H   UNL     1       6.568   6.559  15.615  0.00  0.00    +0.000 HD
BRANCH   9  15
ATOM     11  C   UNL     1       5.908   3.390  12.507  0.00  0.00    +0.000 A 
ATOM     12  C   UNL     1       7.104   3.735  11.882  0.00  0.00    +0.000 A 
ATOM     13  C   UNL     1       7.900   4.749  12.409  0.00  0.00    +0.000 A 
ATOM     14  C   UNL     1       7.523   5.384  13.595  0.00  0.00    +0.000 A 
ATOM     15  C   UNL     1       6.346   5.030  14.268  0.00  0.00    +0.000 A 
ATOM     16  C   UNL     1       5.514   4.078  13.659  0.00  0.00    +0.000 A 
BRANCH  11  18
ATOM     17  C   UNL     1       5.991   1.383  11.229  0.00  0.00    +0.000 C 
ATOM     18  O   UNL     1       5.222   2.365  11.912  0.00  0.00    +0.000 OA
ENDBRANCH  11  18
ENDBRANCH   9  15
ENDBRANCH   3   9
ENDBRANCH   1   3
BRANCH   1  19
ATOM     19  O   UNL     1       3.351   4.293  16.862  0.00  0.00    +0.000 OA
BRANCH  19  20
ATOM     20  C   UNL     1       3.490   3.048  17.548  0.00  0.00    +0.000 C 
BRANCH  20  21
ATOM     21  C   UNL     1       2.793   2.966  18.888  0.00  0.00    +0.000 A 
ATOM     22  C   UNL     1       3.479   2.838  20.099  0.00  0.00    +0.000 A 
ATOM     23  C   UNL     1       2.776   2.750  21.304  0.00  0.00    +0.000 A 
ATOM     24  C   UNL     1       1.383   2.817  21.317  0.00  0.00    +0.000 A 
ATOM     25  C   UNL     1       0.688   3.003  20.125  0.00  0.00    +0.000 A 
ATOM     26  C   UNL     1       1.389   3.081  18.921  0.00  0.00    +0.000 A 
ENDBRANCH  20  21
ENDBRANCH  19  20
ENDBRANCH   1  19
BRANCH   1  27
ATOM     27  O   UNL     1       2.663   6.234  18.168  0.00  0.00    +0.000 OA
BRANCH  27  28
ATOM     28  C   UNL     1       2.805   6.606  19.545  0.00  0.00    +0.000 C 
BRANCH  28  29
ATOM     29  C   UNL     1       1.939   7.782  19.864  0.00  0.00    +0.000 A 
ATOM     30  C   UNL     1       1.681   8.747  18.887  0.00  0.00    +0.000 A 
ATOM     31  C   UNL     1       0.835   9.810  19.164  0.00  0.00    +0.000 A 
ATOM     32  C   UNL     1       0.240   9.921  20.425  0.00  0.00    +0.000 A 
ATOM     33  C   UNL     1       0.488   8.960  21.401  0.00  0.00    +0.000 A 
ATOM     34  C   UNL     1       1.334   7.895  21.127  0.00  0.00    +0.000 A 
ENDBRANCH  28  29
ENDBRANCH  27  28
ENDBRANCH   1  27
TORSDOF 11
ENDMDL
