MODEL 1
REMARK VINA RESULT:      -7.7      0.000      0.000
REMARK  Name = 
REMARK  6 active torsions:
REMARK  status: ('A' for Active; 'I' for Inactive)
REMARK    1  A    between atoms: C_1  and  C_2
REMARK    2  A    between atoms: N_4  and  C_5
REMARK    3  A    between atoms: C_5  and  C_6
REMARK    4  A    between atoms: C_10  and  C_11
REMARK    5  A    between atoms: C_15  and  O_16
REMARK    6  A    between atoms: C_24  and  C_25
REMARK                            x       y       z     vdW  Elec       q    Type
REMARK                         _______ _______ _______ _____ _____    ______ ____
ROOT
ATOM      1  C   UNL     1       1.536  11.252  20.689  0.00  0.00    +0.000 C 
ATOM      2  C   UNL     1       0.460  10.242  20.290  0.00  0.00    +0.000 C 
ATOM      3  C   UNL     1       0.948   8.786  20.459  0.00  0.00    +0.000 C 
ATOM      4  N   UNL     1       1.985   8.349  19.501  0.00  0.00    +0.000 NA
ATOM      5  C   UNL     1       1.412   8.531  18.135  0.00  0.00    +0.000 C 
ATOM      6  C   UNL     1       0.875   9.958  17.843  0.00  0.00    +0.000 C 
ATOM      7  N   UNL     1       0.023  10.492  18.915  0.00  0.00    +0.000 N 
ATOM      8  C   UNL     1      -1.309  10.783  18.686  0.00  0.00    +0.000 A 
ATOM      9  C   UNL     1      -1.956  11.738  19.477  0.00  0.00    +0.000 A 
ATOM     10  C   UNL     1      -3.281  12.086  19.231  0.00  0.00    +0.000 A 
ATOM     11  C   UNL     1      -3.963  11.470  18.189  0.00  0.00    +0.000 A 
ATOM     12  C   UNL     1      -3.268  10.518  17.459  0.00  0.00    +0.000 A 
ATOM     13  N   UNL     1      -1.971  10.178  17.678  0.00  0.00    +0.000 NA
ENDROOT
BRANCH  11  14
ATOM     14  C   UNL     1      -5.373  11.820  17.833  0.00  0.00    +0.000 C 
ATOM     15  F   UNL     1      -5.935  12.732  18.677  0.00  0.00    +0.000 F 
ATOM     16  F   UNL     1      -5.478  12.358  16.587  0.00  0.00    +0.000 F 
ATOM     17  F   UNL     1      -6.203  10.741  17.848  0.00  0.00    +0.000 F 
ENDBRANCH  11  14
BRANCH   4  18
ATOM     18  C   UNL     1       2.387   6.927  19.686  0.00  0.00    +0.000 C 
BRANCH  18  19
ATOM     19  C   UNL     1       3.223   6.401  18.544  0.00  0.00    +0.000 A 
ATOM     20  C   UNL     1       4.388   6.962  18.041  0.00  0.00    +0.000 A 
ATOM     21  N   UNL     1       4.744   6.230  16.960  0.00  0.00    +0.000 N 
ATOM     22  N   UNL     1       4.033   5.116  16.824  0.00  0.00    +0.000 NA
ATOM     23  C   UNL     1       3.109   5.166  17.811  0.00  0.00    +0.000 A 
ATOM     24  H   UNL     1       5.483   6.416  16.290  0.00  0.00    +0.000 HD
BRANCH  23  25
ATOM     25  C   UNL     1       2.233   4.003  18.085  0.00  0.00    +0.000 C 
ATOM     26  O   UNL     1       1.413   3.583  17.275  0.00  0.00    +0.000 OA
ATOM     27  N   UNL     1       2.309   3.502  19.374  0.00  0.00    +0.000 N 
ATOM     28  C   UNL     1       1.529   2.417  19.953  0.00  0.00    +0.000 C 
ATOM     29  C   UNL     1       2.542   2.480  21.120  0.00  0.00    +0.000 C 
ATOM     30  C   UNL     1       3.518   3.103  20.100  0.00  0.00    +0.000 C 
BRANCH  29  31
ATOM     31  O   UNL     1       2.188   3.321  22.248  0.00  0.00    +0.000 OA
ATOM     32  H   UNL     1       2.987   3.317  22.809  0.00  0.00    +0.000 HD
ENDBRANCH  29  31
ENDBRANCH  23  25
ENDBRANCH  18  19
ENDBRANCH   4  18
TORSDOF 5
ENDMDL
MODEL 2
REMARK VINA RESULT:      -7.5      5.111      9.419
REMARK  Name = 
REMARK  6 active torsions:
REMARK  status: ('A' for Active; 'I' for Inactive)
REMARK    1  A    between atoms: C_1  and  C_2
REMARK    2  A    between atoms: N_4  and  C_5
REMARK    3  A    between atoms: C_5  and  C_6
REMARK    4  A    between atoms: C_10  and  C_11
REMARK    5  A    between atoms: C_15  and  O_16
REMARK    6  A    between atoms: C_24  and  C_25
REMARK                            x       y       z     vdW  Elec       q    Type
REMARK                         _______ _______ _______ _____ _____    ______ ____
ROOT
ATOM      1  C   UNL     1      -0.499  13.119  18.516  0.00  0.00    +0.000 C 
ATOM      2  C   UNL     1      -0.801  11.751  19.128  0.00  0.00    +0.000 C 
ATOM      3  C   UNL     1      -2.044  11.793  20.043  0.00  0.00    +0.000 C 
ATOM      4  N   UNL     1      -1.876  12.536  21.310  0.00  0.00    +0.000 NA
ATOM      5  C   UNL     1      -0.739  11.895  22.035  0.00  0.00    +0.000 C 
ATOM      6  C   UNL     1       0.573  11.784  21.215  0.00  0.00    +0.000 C 
ATOM      7  N   UNL     1       0.370  11.259  19.856  0.00  0.00    +0.000 N 
ATOM      8  C   UNL     1       0.937  10.060  19.467  0.00  0.00    +0.000 A 
ATOM      9  C   UNL     1       1.196   9.823  18.113  0.00  0.00    +0.000 A 
ATOM     10  C   UNL     1       1.815   8.646  17.702  0.00  0.00    +0.000 A 
ATOM     11  C   UNL     1       2.171   7.697  18.653  0.00  0.00    +0.000 A 
ATOM     12  C   UNL     1       1.865   7.987  19.974  0.00  0.00    +0.000 A 
ATOM     13  N   UNL     1       1.274   9.137  20.391  0.00  0.00    +0.000 NA
ENDROOT
BRANCH  11  14
ATOM     14  C   UNL     1       2.877   6.428  18.298  0.00  0.00    +0.000 C 
ATOM     15  F   UNL     1       3.572   5.884  19.338  0.00  0.00    +0.000 F 
ATOM     16  F   UNL     1       2.023   5.456  17.877  0.00  0.00    +0.000 F 
ATOM     17  F   UNL     1       3.783   6.594  17.295  0.00  0.00    +0.000 F 
ENDBRANCH  11  14
BRANCH   4  18
ATOM     18  C   UNL     1      -3.092  12.509  22.167  0.00  0.00    +0.000 C 
BRANCH  18  19
ATOM     19  C   UNL     1      -4.098  13.571  21.791  0.00  0.00    +0.000 A 
ATOM     20  C   UNL     1      -3.892  14.943  21.779  0.00  0.00    +0.000 A 
ATOM     21  N   UNL     1      -5.082  15.518  21.485  0.00  0.00    +0.000 N 
ATOM     22  N   UNL     1      -6.007  14.645  21.103  0.00  0.00    +0.000 NA
ATOM     23  C   UNL     1      -5.423  13.432  21.239  0.00  0.00    +0.000 A 
ATOM     24  H   UNL     1      -5.323  16.504  21.495  0.00  0.00    +0.000 HD
BRANCH  23  25
ATOM     25  C   UNL     1      -6.097  12.209  20.744  0.00  0.00    +0.000 C 
ATOM     26  O   UNL     1      -6.821  11.517  21.452  0.00  0.00    +0.000 OA
ATOM     27  N   UNL     1      -5.747  11.826  19.460  0.00  0.00    +0.000 N 
ATOM     28  C   UNL     1      -6.190  10.643  18.734  0.00  0.00    +0.000 C 
ATOM     29  C   UNL     1      -5.562  11.323  17.495  0.00  0.00    +0.000 C 
ATOM     30  C   UNL     1      -5.770  12.653  18.250  0.00  0.00    +0.000 C 
BRANCH  29  31
ATOM     31  O   UNL     1      -4.186  10.982  17.189  0.00  0.00    +0.000 OA
ATOM     32  H   UNL     1      -3.991  10.227  17.775  0.00  0.00    +0.000 HD
ENDBRANCH  29  31
ENDBRANCH  23  25
ENDBRANCH  18  19
ENDBRANCH   4  18
TORSDOF 5
ENDMDL
MODEL 3
REMARK VINA RESULT:      -7.5      3.868      5.162
REMARK  Name = 
REMARK  6 active torsions:
REMARK  status: ('A' for Active; 'I' for Inactive)
REMARK    1  A    between atoms: C_1  and  C_2
REMARK    2  A    between atoms: N_4  and  C_5
REMARK    3  A    between atoms: C_5  and  C_6
REMARK    4  A    between atoms: C_10  and  C_11
REMARK    5  A    between atoms: C_15  and  O_16
REMARK    6  A    between atoms: C_24  and  C_25
REMARK                            x       y       z     vdW  Elec       q    Type
REMARK                         _______ _______ _______ _____ _____    ______ ____
ROOT
ATOM      1  C   UNL     1      -0.202   9.266  17.536  0.00  0.00    +0.000 C 
ATOM      2  C   UNL     1       1.029   9.775  18.286  0.00  0.00    +0.000 C 
ATOM      3  C   UNL     1       2.027   8.636  18.591  0.00  0.00    +0.000 C 
ATOM      4  N   UNL     1       1.581   7.654  19.601  0.00  0.00    +0.000 NA
ATOM      5  C   UNL     1       1.297   8.422  20.850  0.00  0.00    +0.000 C 
ATOM      6  C   UNL     1       0.310   9.605  20.672  0.00  0.00    +0.000 C 
ATOM      7  N   UNL     1       0.620  10.457  19.515  0.00  0.00    +0.000 N 
ATOM      8  C   UNL     1       0.969  11.784  19.684  0.00  0.00    +0.000 A 
ATOM      9  C   UNL     1       0.751  12.695  18.645  0.00  0.00    +0.000 A 
ATOM     10  C   UNL     1       1.044  14.046  18.810  0.00  0.00    +0.000 A 
ATOM     11  C   UNL     1       1.564  14.486  20.021  0.00  0.00    +0.000 A 
ATOM     12  C   UNL     1       1.775  13.526  20.999  0.00  0.00    +0.000 A 
ATOM     13  N   UNL     1       1.480  12.207  20.858  0.00  0.00    +0.000 NA
ENDROOT
BRANCH  11  14
ATOM     14  C   UNL     1       1.864  15.926  20.292  0.00  0.00    +0.000 C 
ATOM     15  F   UNL     1       2.836  16.110  21.231  0.00  0.00    +0.000 F 
ATOM     16  F   UNL     1       2.293  16.587  19.183  0.00  0.00    +0.000 F 
ATOM     17  F   UNL     1       0.779  16.612  20.744  0.00  0.00    +0.000 F 
ENDBRANCH  11  14
BRANCH   4  18
ATOM     18  C   UNL     1       2.598   6.604  19.882  0.00  0.00    +0.000 C 
BRANCH  18  19
ATOM     19  C   UNL     1       2.596   5.497  18.856  0.00  0.00    +0.000 A 
ATOM     20  C   UNL     1       1.609   4.539  18.670  0.00  0.00    +0.000 A 
ATOM     21  N   UNL     1       2.061   3.685  17.722  0.00  0.00    +0.000 N 
ATOM     22  N   UNL     1       3.169   4.107  17.121  0.00  0.00    +0.000 NA
ATOM     23  C   UNL     1       3.507   5.246  17.768  0.00  0.00    +0.000 A 
ATOM     24  H   UNL     1       1.647   2.812  17.412  0.00  0.00    +0.000 HD
BRANCH  23  25
ATOM     25  C   UNL     1       4.608   6.102  17.265  0.00  0.00    +0.000 C 
ATOM     26  O   UNL     1       4.419   7.057  16.519  0.00  0.00    +0.000 OA
ATOM     27  N   UNL     1       5.882   5.668  17.588  0.00  0.00    +0.000 N 
ATOM     28  C   UNL     1       7.151   6.257  17.183  0.00  0.00    +0.000 C 
ATOM     29  C   UNL     1       7.780   5.322  18.242  0.00  0.00    +0.000 C 
ATOM     30  C   UNL     1       6.393   5.330  18.919  0.00  0.00    +0.000 C 
BRANCH  29  31
ATOM     31  O   UNL     1       8.246   4.029  17.778  0.00  0.00    +0.000 OA
ATOM     32  H   UNL     1       9.186   4.006  18.039  0.00  0.00    +0.000 HD
ENDBRANCH  29  31
ENDBRANCH  23  25
ENDBRANCH  18  19
ENDBRANCH   4  18
TORSDOF 5
ENDMDL
MODEL 4
REMARK VINA RESULT:      -7.5      2.578      3.344
REMARK  Name = 
REMARK  6 active torsions:
REMARK  status: ('A' for Active; 'I' for Inactive)
REMARK    1  A    between atoms: C_1  and  C_2
REMARK    2  A    between atoms: N_4  and  C_5
REMARK    3  A    between atoms: C_5  and  C_6
REMARK    4  A    between atoms: C_10  and  C_11
REMARK    5  A    between atoms: C_15  and  O_16
REMARK    6  A    between atoms: C_24  and  C_25
REMARK                            x       y       z     vdW  Elec       q    Type
REMARK                         _______ _______ _______ _____ _____    ______ ____
ROOT
ATOM      1  C   UNL     1       1.431   9.277  22.584  0.00  0.00    +0.000 C 
ATOM      2  C   UNL     1       0.245   9.523  21.652  0.00  0.00    +0.000 C 
ATOM      3  C   UNL     1       0.367   8.718  20.340  0.00  0.00    +0.000 C 
ATOM      4  N   UNL     1       1.431   9.165  19.417  0.00  0.00    +0.000 NA
ATOM      5  C   UNL     1       1.151  10.598  19.102  0.00  0.00    +0.000 C 
ATOM      6  C   UNL     1       0.996  11.515  20.344  0.00  0.00    +0.000 C 
ATOM      7  N   UNL     1       0.113  10.955  21.377  0.00  0.00    +0.000 N 
ATOM      8  C   UNL     1      -1.065  11.591  21.724  0.00  0.00    +0.000 A 
ATOM      9  C   UNL     1      -1.613  11.389  22.995  0.00  0.00    +0.000 A 
ATOM     10  C   UNL     1      -2.769  12.059  23.386  0.00  0.00    +0.000 A 
ATOM     11  C   UNL     1      -3.382  12.933  22.497  0.00  0.00    +0.000 A 
ATOM     12  C   UNL     1      -2.798  13.069  21.247  0.00  0.00    +0.000 A 
ATOM     13  N   UNL     1      -1.663  12.433  20.856  0.00  0.00    +0.000 NA
ENDROOT
BRANCH  11  14
ATOM     14  C   UNL     1      -4.600  13.723  22.857  0.00  0.00    +0.000 C 
ATOM     15  F   UNL     1      -5.266  13.230  23.940  0.00  0.00    +0.000 F 
ATOM     16  F   UNL     1      -4.311  15.017  23.160  0.00  0.00    +0.000 F 
ATOM     17  F   UNL     1      -5.514  13.767  21.849  0.00  0.00    +0.000 F 
ENDBRANCH  11  14
BRANCH   4  18
ATOM     18  C   UNL     1       1.476   8.378  18.154  0.00  0.00    +0.000 C 
BRANCH  18  19
ATOM     19  C   UNL     1       2.696   7.493  18.058  0.00  0.00    +0.000 A 
ATOM     20  C   UNL     1       3.904   7.808  17.454  0.00  0.00    +0.000 A 
ATOM     21  N   UNL     1       4.674   6.696  17.506  0.00  0.00    +0.000 N 
ATOM     22  N   UNL     1       4.159   5.737  18.268  0.00  0.00    +0.000 NA
ATOM     23  C   UNL     1       2.954   6.210  18.662  0.00  0.00    +0.000 A 
ATOM     24  H   UNL     1       5.576   6.534  17.070  0.00  0.00    +0.000 HD
BRANCH  23  25
ATOM     25  C   UNL     1       2.150   5.482  19.671  0.00  0.00    +0.000 C 
ATOM     26  O   UNL     1       1.880   5.952  20.771  0.00  0.00    +0.000 OA
ATOM     27  N   UNL     1       1.835   4.175  19.337  0.00  0.00    +0.000 N 
ATOM     28  C   UNL     1       1.120   3.199  20.148  0.00  0.00    +0.000 C 
ATOM     29  C   UNL     1       1.045   2.362  18.849  0.00  0.00    +0.000 C 
ATOM     30  C   UNL     1       1.205   3.703  18.101  0.00  0.00    +0.000 C 
BRANCH  29  31
ATOM     31  O   UNL     1       2.103   1.392  18.635  0.00  0.00    +0.000 OA
ATOM     32  H   UNL     1       2.364   1.120  19.536  0.00  0.00    +0.000 HD
ENDBRANCH  29  31
ENDBRANCH  23  25
ENDBRANCH  18  19
ENDBRANCH   4  18
TORSDOF 5
ENDMDL
MODEL 5
REMARK VINA RESULT:      -7.5      6.040     10.017
REMARK  Name = 
REMARK  6 active torsions:
REMARK  status: ('A' for Active; 'I' for Inactive)
REMARK    1  A    between atoms: C_1  and  C_2
REMARK    2  A    between atoms: N_4  and  C_5
REMARK    3  A    between atoms: C_5  and  C_6
REMARK    4  A    between atoms: C_10  and  C_11
REMARK    5  A    between atoms: C_15  and  O_16
REMARK    6  A    between atoms: C_24  and  C_25
REMARK                            x       y       z     vdW  Elec       q    Type
REMARK                         _______ _______ _______ _____ _____    ______ ____
ROOT
ATOM      1  C   UNL     1       0.490  13.022  18.503  0.00  0.00    +0.000 C 
ATOM      2  C   UNL     1      -0.079  11.668  18.929  0.00  0.00    +0.000 C 
ATOM      3  C   UNL     1      -1.438  11.816  19.647  0.00  0.00    +0.000 C 
ATOM      4  N   UNL     1      -1.383  12.431  20.990  0.00  0.00    +0.000 NA
ATOM      5  C   UNL     1      -0.470  11.583  21.813  0.00  0.00    +0.000 C 
ATOM      6  C   UNL     1       0.933  11.350  21.191  0.00  0.00    +0.000 C 
ATOM      7  N   UNL     1       0.887  10.963  19.774  0.00  0.00    +0.000 N 
ATOM      8  C   UNL     1       1.352   9.728  19.360  0.00  0.00    +0.000 A 
ATOM      9  C   UNL     1       1.794   9.560  18.044  0.00  0.00    +0.000 A 
ATOM     10  C   UNL     1       2.316   8.341  17.620  0.00  0.00    +0.000 A 
ATOM     11  C   UNL     1       2.390   7.283  18.518  0.00  0.00    +0.000 A 
ATOM     12  C   UNL     1       1.914   7.513  19.799  0.00  0.00    +0.000 A 
ATOM     13  N   UNL     1       1.415   8.701  20.232  0.00  0.00    +0.000 NA
ENDROOT
BRANCH  11  14
ATOM     14  C   UNL     1       2.978   5.957  18.152  0.00  0.00    +0.000 C 
ATOM     15  F   UNL     1       2.047   5.042  17.758  0.00  0.00    +0.000 F 
ATOM     16  F   UNL     1       3.866   6.046  17.124  0.00  0.00    +0.000 F 
ATOM     17  F   UNL     1       3.653   5.379  19.183  0.00  0.00    +0.000 F 
ENDBRANCH  11  14
BRANCH   4  18
ATOM     18  C   UNL     1      -2.716  12.511  21.649  0.00  0.00    +0.000 C 
BRANCH  18  19
ATOM     19  C   UNL     1      -2.787  13.595  22.697  0.00  0.00    +0.000 A 
ATOM     20  C   UNL     1      -2.101  14.801  22.692  0.00  0.00    +0.000 A 
ATOM     21  N   UNL     1      -2.376  15.418  23.865  0.00  0.00    +0.000 N 
ATOM     22  N   UNL     1      -3.341  14.821  24.557  0.00  0.00    +0.000 NA
ATOM     23  C   UNL     1      -3.649  13.712  23.846  0.00  0.00    +0.000 A 
ATOM     24  H   UNL     1      -1.966  16.265  24.242  0.00  0.00    +0.000 HD
BRANCH  23  25
ATOM     25  C   UNL     1      -4.811  12.873  24.222  0.00  0.00    +0.000 C 
ATOM     26  O   UNL     1      -4.719  11.910  24.976  0.00  0.00    +0.000 OA
ATOM     27  N   UNL     1      -5.989  13.169  23.556  0.00  0.00    +0.000 N 
ATOM     28  C   UNL     1      -7.268  12.482  23.664  0.00  0.00    +0.000 C 
ATOM     29  C   UNL     1      -7.841  13.690  22.887  0.00  0.00    +0.000 C 
ATOM     30  C   UNL     1      -6.633  14.480  23.435  0.00  0.00    +0.000 C 
BRANCH  29  31
ATOM     31  O   UNL     1      -7.909  13.567  21.443  0.00  0.00    +0.000 OA
ATOM     32  H   UNL     1      -8.710  13.031  21.287  0.00  0.00    +0.000 HD
ENDBRANCH  29  31
ENDBRANCH  23  25
ENDBRANCH  18  19
ENDBRANCH   4  18
TORSDOF 5
ENDMDL
MODEL 6
REMARK VINA RESULT:      -7.5      5.696      9.258
REMARK  Name = 
REMARK  6 active torsions:
REMARK  status: ('A' for Active; 'I' for Inactive)
REMARK    1  A    between atoms: C_1  and  C_2
REMARK    2  A    between atoms: N_4  and  C_5
REMARK    3  A    between atoms: C_5  and  C_6
REMARK    4  A    between atoms: C_10  and  C_11
REMARK    5  A    between atoms: C_15  and  O_16
REMARK    6  A    between atoms: C_24  and  C_25
REMARK                            x       y       z     vdW  Elec       q    Type
REMARK                         _______ _______ _______ _____ _____    ______ ____
ROOT
ATOM      1  C   UNL     1       0.897   4.925  20.054  0.00  0.00    +0.000 C 
ATOM      2  C   UNL     1       2.232   5.650  19.882  0.00  0.00    +0.000 C 
ATOM      3  C   UNL     1       2.414   6.773  20.927  0.00  0.00    +0.000 C 
ATOM      4  N   UNL     1       1.535   7.949  20.755  0.00  0.00    +0.000 NA
ATOM      5  C   UNL     1       1.800   8.486  19.387  0.00  0.00    +0.000 C 
ATOM      6  C   UNL     1       1.658   7.447  18.244  0.00  0.00    +0.000 C 
ATOM      7  N   UNL     1       2.345   6.177  18.521  0.00  0.00    +0.000 N 
ATOM      8  C   UNL     1       3.396   5.751  17.731  0.00  0.00    +0.000 A 
ATOM      9  C   UNL     1       3.690   4.386  17.643  0.00  0.00    +0.000 A 
ATOM     10  C   UNL     1       4.709   3.930  16.813  0.00  0.00    +0.000 A 
ATOM     11  C   UNL     1       5.444   4.846  16.071  0.00  0.00    +0.000 A 
ATOM     12  C   UNL     1       5.114   6.184  16.222  0.00  0.00    +0.000 A 
ATOM     13  N   UNL     1       4.113   6.644  17.017  0.00  0.00    +0.000 NA
ENDROOT
BRANCH  11  14
ATOM     14  C   UNL     1       6.525   4.432  15.124  0.00  0.00    +0.000 C 
ATOM     15  F   UNL     1       7.739   4.271  15.723  0.00  0.00    +0.000 F 
ATOM     16  F   UNL     1       6.256   3.247  14.511  0.00  0.00    +0.000 F 
ATOM     17  F   UNL     1       6.722   5.336  14.125  0.00  0.00    +0.000 F 
ENDBRANCH  11  14
BRANCH   4  18
ATOM     18  C   UNL     1       1.782   9.014  21.765  0.00  0.00    +0.000 C 
BRANCH  18  19
ATOM     19  C   UNL     1       0.515   9.702  22.213  0.00  0.00    +0.000 A 
ATOM     20  C   UNL     1      -0.169   9.492  23.401  0.00  0.00    +0.000 A 
ATOM     21  N   UNL     1      -1.299  10.235  23.344  0.00  0.00    +0.000 N 
ATOM     22  N   UNL     1      -1.324  11.073  22.313  0.00  0.00    +0.000 NA
ATOM     23  C   UNL     1      -0.199  10.802  21.612  0.00  0.00    +0.000 A 
ATOM     24  H   UNL     1      -2.080  10.244  23.992  0.00  0.00    +0.000 HD
BRANCH  23  25
ATOM     25  C   UNL     1       0.207  11.659  20.474  0.00  0.00    +0.000 C 
ATOM     26  O   UNL     1       1.223  12.347  20.490  0.00  0.00    +0.000 OA
ATOM     27  N   UNL     1      -0.711  11.735  19.441  0.00  0.00    +0.000 N 
ATOM     28  C   UNL     1      -0.623  12.541  18.231  0.00  0.00    +0.000 C 
ATOM     29  C   UNL     1      -1.817  11.695  17.730  0.00  0.00    +0.000 C 
ATOM     30  C   UNL     1      -1.334  10.617  18.725  0.00  0.00    +0.000 C 
BRANCH  29  31
ATOM     31  O   UNL     1      -3.143  12.228  17.975  0.00  0.00    +0.000 OA
ATOM     32  H   UNL     1      -3.688  11.439  18.157  0.00  0.00    +0.000 HD
ENDBRANCH  29  31
ENDBRANCH  23  25
ENDBRANCH  18  19
ENDBRANCH   4  18
TORSDOF 5
ENDMDL
MODEL 7
REMARK VINA RESULT:      -7.3      3.637      5.140
REMARK  Name = 
REMARK  6 active torsions:
REMARK  status: ('A' for Active; 'I' for Inactive)
REMARK    1  A    between atoms: C_1  and  C_2
REMARK    2  A    between atoms: N_4  and  C_5
REMARK    3  A    between atoms: C_5  and  C_6
REMARK    4  A    between atoms: C_10  and  C_11
REMARK    5  A    between atoms: C_15  and  O_16
REMARK    6  A    between atoms: C_24  and  C_25
REMARK                            x       y       z     vdW  Elec       q    Type
REMARK                         _______ _______ _______ _____ _____    ______ ____
ROOT
ATOM      1  C   UNL     1      -0.641   9.385  17.490  0.00  0.00    +0.000 C 
ATOM      2  C   UNL     1       0.660  10.004  18.003  0.00  0.00    +0.000 C 
ATOM      3  C   UNL     1       1.867   9.064  17.789  0.00  0.00    +0.000 C 
ATOM      4  N   UNL     1       1.885   7.852  18.634  0.00  0.00    +0.000 NA
ATOM      5  C   UNL     1       1.857   8.317  20.053  0.00  0.00    +0.000 C 
ATOM      6  C   UNL     1       0.689   9.281  20.394  0.00  0.00    +0.000 C 
ATOM      7  N   UNL     1       0.520  10.364  19.415  0.00  0.00    +0.000 N 
ATOM      8  C   UNL     1       0.693  11.686  19.782  0.00  0.00    +0.000 A 
ATOM      9  C   UNL     1       0.049  12.696  19.060  0.00  0.00    +0.000 A 
ATOM     10  C   UNL     1       0.166  14.029  19.443  0.00  0.00    +0.000 A 
ATOM     11  C   UNL     1       0.937  14.353  20.552  0.00  0.00    +0.000 A 
ATOM     12  C   UNL     1       1.564  13.305  21.208  0.00  0.00    +0.000 A 
ATOM     13  N   UNL     1       1.449  11.998  20.855  0.00  0.00    +0.000 NA
ENDROOT
BRANCH  11  14
ATOM     14  C   UNL     1       1.076  15.755  21.053  0.00  0.00    +0.000 C 
ATOM     15  F   UNL     1       1.258  16.671  20.059  0.00  0.00    +0.000 F 
ATOM     16  F   UNL     1      -0.020  16.174  21.743  0.00  0.00    +0.000 F 
ATOM     17  F   UNL     1       2.133  15.910  21.896  0.00  0.00    +0.000 F 
ENDBRANCH  11  14
BRANCH   4  18
ATOM     18  C   UNL     1       3.090   7.005  18.412  0.00  0.00    +0.000 C 
BRANCH  18  19
ATOM     19  C   UNL     1       2.757   5.540  18.266  0.00  0.00    +0.000 A 
ATOM     20  C   UNL     1       1.538   4.999  17.883  0.00  0.00    +0.000 A 
ATOM     21  N   UNL     1       1.652   3.654  17.987  0.00  0.00    +0.000 N 
ATOM     22  N   UNL     1       2.898   3.249  18.210  0.00  0.00    +0.000 NA
ATOM     23  C   UNL     1       3.618   4.386  18.347  0.00  0.00    +0.000 A 
ATOM     24  H   UNL     1       0.927   2.952  17.886  0.00  0.00    +0.000 HD
BRANCH  23  25
ATOM     25  C   UNL     1       5.096   4.337  18.441  0.00  0.00    +0.000 C 
ATOM     26  O   UNL     1       5.691   4.238  19.509  0.00  0.00    +0.000 OA
ATOM     27  N   UNL     1       5.766   4.547  17.248  0.00  0.00    +0.000 N 
ATOM     28  C   UNL     1       7.206   4.622  17.038  0.00  0.00    +0.000 C 
ATOM     29  C   UNL     1       6.865   4.533  15.532  0.00  0.00    +0.000 C 
ATOM     30  C   UNL     1       5.555   3.848  15.977  0.00  0.00    +0.000 C 
BRANCH  29  31
ATOM     31  O   UNL     1       6.708   5.788  14.822  0.00  0.00    +0.000 OA
ATOM     32  H   UNL     1       5.780   6.043  14.990  0.00  0.00    +0.000 HD
ENDBRANCH  29  31
ENDBRANCH  23  25
ENDBRANCH  18  19
ENDBRANCH   4  18
TORSDOF 5
ENDMDL
MODEL 8
REMARK VINA RESULT:      -7.2      5.338      9.628
REMARK  Name = 
REMARK  6 active torsions:
REMARK  status: ('A' for Active; 'I' for Inactive)
REMARK    1  A    between atoms: C_1  and  C_2
REMARK    2  A    between atoms: N_4  and  C_5
REMARK    3  A    between atoms: C_5  and  C_6
REMARK    4  A    between atoms: C_10  and  C_11
REMARK    5  A    between atoms: C_15  and  O_16
REMARK    6  A    between atoms: C_24  and  C_25
REMARK                            x       y       z     vdW  Elec       q    Type
REMARK                         _______ _______ _______ _____ _____    ______ ____
ROOT
ATOM      1  C   UNL     1       2.120  10.735  18.049  0.00  0.00    +0.000 C 
ATOM      2  C   UNL     1       1.172   9.586  18.393  0.00  0.00    +0.000 C 
ATOM      3  C   UNL     1      -0.301  10.048  18.431  0.00  0.00    +0.000 C 
ATOM      4  N   UNL     1      -0.660  10.934  19.558  0.00  0.00    +0.000 NA
ATOM      5  C   UNL     1      -0.334  10.189  20.810  0.00  0.00    +0.000 C 
ATOM      6  C   UNL     1       1.123   9.661  20.890  0.00  0.00    +0.000 C 
ATOM      7  N   UNL     1       1.564   8.977  19.666  0.00  0.00    +0.000 N 
ATOM      8  C   UNL     1       1.899   7.636  19.684  0.00  0.00    +0.000 A 
ATOM      9  C   UNL     1       2.782   7.129  18.724  0.00  0.00    +0.000 A 
ATOM     10  C   UNL     1       3.175   5.794  18.754  0.00  0.00    +0.000 A 
ATOM     11  C   UNL     1       2.676   4.961  19.748  0.00  0.00    +0.000 A 
ATOM     12  C   UNL     1       1.789   5.523  20.652  0.00  0.00    +0.000 A 
ATOM     13  N   UNL     1       1.407   6.827  20.645  0.00  0.00    +0.000 NA
ENDROOT
BRANCH  11  14
ATOM     14  C   UNL     1       3.084   3.527  19.874  0.00  0.00    +0.000 C 
ATOM     15  F   UNL     1       4.435   3.348  19.910  0.00  0.00    +0.000 F 
ATOM     16  F   UNL     1       2.605   2.947  21.008  0.00  0.00    +0.000 F 
ATOM     17  F   UNL     1       2.636   2.761  18.842  0.00  0.00    +0.000 F 
ENDBRANCH  11  14
BRANCH   4  18
ATOM     18  C   UNL     1      -2.099  11.314  19.565  0.00  0.00    +0.000 C 
BRANCH  18  19
ATOM     19  C   UNL     1      -2.328  12.735  20.022  0.00  0.00    +0.000 A 
ATOM     20  C   UNL     1      -1.571  13.848  19.683  0.00  0.00    +0.000 A 
ATOM     21  N   UNL     1      -2.062  14.890  20.394  0.00  0.00    +0.000 N 
ATOM     22  N   UNL     1      -3.200  14.609  21.019  0.00  0.00    +0.000 NA
ATOM     23  C   UNL     1      -3.419  13.296  20.778  0.00  0.00    +0.000 A 
ATOM     24  H   UNL     1      -1.687  15.829  20.474  0.00  0.00    +0.000 HD
BRANCH  23  25
ATOM     25  C   UNL     1      -4.695  12.657  21.177  0.00  0.00    +0.000 C 
ATOM     26  O   UNL     1      -4.919  12.281  22.323  0.00  0.00    +0.000 OA
ATOM     27  N   UNL     1      -5.569  12.392  20.137  0.00  0.00    +0.000 N 
ATOM     28  C   UNL     1      -6.858  11.718  20.209  0.00  0.00    +0.000 C 
ATOM     29  C   UNL     1      -7.063  12.225  18.762  0.00  0.00    +0.000 C 
ATOM     30  C   UNL     1      -6.047  13.332  19.119  0.00  0.00    +0.000 C 
BRANCH  29  31
ATOM     31  O   UNL     1      -6.667  11.329  17.693  0.00  0.00    +0.000 OA
ATOM     32  H   UNL     1      -5.729  11.132  17.880  0.00  0.00    +0.000 HD
ENDBRANCH  29  31
ENDBRANCH  23  25
ENDBRANCH  18  19
ENDBRANCH   4  18
TORSDOF 5
ENDMDL
MODEL 9
REMARK VINA RESULT:      -7.1      2.069      2.989
REMARK  Name = 
REMARK  6 active torsions:
REMARK  status: ('A' for Active; 'I' for Inactive)
REMARK    1  A    between atoms: C_1  and  C_2
REMARK    2  A    between atoms: N_4  and  C_5
REMARK    3  A    between atoms: C_5  and  C_6
REMARK    4  A    between atoms: C_10  and  C_11
REMARK    5  A    between atoms: C_15  and  O_16
REMARK    6  A    between atoms: C_24  and  C_25
REMARK                            x       y       z     vdW  Elec       q    Type
REMARK                         _______ _______ _______ _____ _____    ______ ____
ROOT
ATOM      1  C   UNL     1       1.629  10.819  20.760  0.00  0.00    +0.000 C 
ATOM      2  C   UNL     1       0.588   9.805  20.285  0.00  0.00    +0.000 C 
ATOM      3  C   UNL     1       1.004   8.355  20.618  0.00  0.00    +0.000 C 
ATOM      4  N   UNL     1       2.149   7.829  19.846  0.00  0.00    +0.000 NA
ATOM      5  C   UNL     1       1.775   7.926  18.404  0.00  0.00    +0.000 C 
ATOM      6  C   UNL     1       1.327   9.338  17.944  0.00  0.00    +0.000 C 
ATOM      7  N   UNL     1       0.353   9.966  18.849  0.00  0.00    +0.000 N 
ATOM      8  C   UNL     1      -0.926  10.267  18.417  0.00  0.00    +0.000 A 
ATOM      9  C   UNL     1      -1.646  11.289  19.044  0.00  0.00    +0.000 A 
ATOM     10  C   UNL     1      -2.914  11.646  18.592  0.00  0.00    +0.000 A 
ATOM     11  C   UNL     1      -3.465  10.971  17.509  0.00  0.00    +0.000 A 
ATOM     12  C   UNL     1      -2.705   9.955  16.950  0.00  0.00    +0.000 A 
ATOM     13  N   UNL     1      -1.461   9.605  17.370  0.00  0.00    +0.000 NA
ENDROOT
BRANCH  11  14
ATOM     14  C   UNL     1      -4.801  11.324  16.937  0.00  0.00    +0.000 C 
ATOM     15  F   UNL     1      -5.051  12.664  16.930  0.00  0.00    +0.000 F 
ATOM     16  F   UNL     1      -4.940  10.916  15.646  0.00  0.00    +0.000 F 
ATOM     17  F   UNL     1      -5.832  10.759  17.624  0.00  0.00    +0.000 F 
ENDBRANCH  11  14
BRANCH   4  18
ATOM     18  C   UNL     1       2.478   6.417  20.182  0.00  0.00    +0.000 C 
BRANCH  18  19
ATOM     19  C   UNL     1       2.566   5.530  18.963  0.00  0.00    +0.000 A 
ATOM     20  C   UNL     1       1.593   4.656  18.500  0.00  0.00    +0.000 A 
ATOM     21  N   UNL     1       2.128   3.991  17.450  0.00  0.00    +0.000 N 
ATOM     22  N   UNL     1       3.293   4.489  17.051  0.00  0.00    +0.000 NA
ATOM     23  C   UNL     1       3.578   5.470  17.938  0.00  0.00    +0.000 A 
ATOM     24  H   UNL     1       1.737   3.207  16.937  0.00  0.00    +0.000 HD
BRANCH  23  25
ATOM     25  C   UNL     1       4.730   6.375  17.718  0.00  0.00    +0.000 C 
ATOM     26  O   UNL     1       4.613   7.494  17.230  0.00  0.00    +0.000 OA
ATOM     27  N   UNL     1       5.971   5.818  17.979  0.00  0.00    +0.000 N 
ATOM     28  C   UNL     1       7.278   6.433  17.795  0.00  0.00    +0.000 C 
ATOM     29  C   UNL     1       7.818   5.235  18.610  0.00  0.00    +0.000 C 
ATOM     30  C   UNL     1       6.396   5.134  19.204  0.00  0.00    +0.000 C 
BRANCH  29  31
ATOM     31  O   UNL     1       8.268   4.081  17.856  0.00  0.00    +0.000 OA
ATOM     32  H   UNL     1       9.239   4.093  17.956  0.00  0.00    +0.000 HD
ENDBRANCH  29  31
ENDBRANCH  23  25
ENDBRANCH  18  19
ENDBRANCH   4  18
TORSDOF 5
ENDMDL
