MODEL 1
REMARK VINA RESULT:      -7.9      0.000      0.000
REMARK  Name = 
REMARK  4 active torsions:
REMARK  status: ('A' for Active; 'I' for Inactive)
REMARK    1  A    between atoms: C_1  and  N_2
REMARK    2  A    between atoms: C_14  and  C_15
REMARK    3  A    between atoms: C_16  and  C_17
REMARK    4  A    between atoms: N_19  and  O_20
REMARK                            x       y       z     vdW  Elec       q    Type
REMARK                         _______ _______ _______ _____ _____    ______ ____
ROOT
ATOM      1  C   UNL     1       1.884   2.420  21.115  0.00  0.00    +0.000 C 
ATOM      2  N   UNL     1       1.839   2.659  19.673  0.00  0.00    +0.000 NA
ATOM      3  C   UNL     1       1.501   4.050  19.344  0.00  0.00    +0.000 C 
ATOM      4  C   UNL     1       2.619   5.045  19.663  0.00  0.00    +0.000 C 
ATOM      5  C   UNL     1       3.953   4.644  18.997  0.00  0.00    +0.000 C 
ATOM      6  C   UNL     1       4.261   3.166  19.340  0.00  0.00    +0.000 C 
ATOM      7  C   UNL     1       3.079   2.257  19.006  0.00  0.00    +0.000 C 
ATOM      8  C   UNL     1       5.048   5.590  19.496  0.00  0.00    +0.000 C 
ATOM      9  C   UNL     1       6.326   5.298  18.762  0.00  0.00    +0.000 C 
ATOM     10  O   UNL     1       7.429   5.407  19.286  0.00  0.00    +0.000 OA
ATOM     11  C   UNL     1       6.183   4.915  17.346  0.00  0.00    +0.000 A 
ATOM     12  C   UNL     1       7.309   4.742  16.545  0.00  0.00    +0.000 A 
ATOM     13  C   UNL     1       7.153   4.384  15.203  0.00  0.00    +0.000 A 
ATOM     14  C   UNL     1       5.876   4.216  14.642  0.00  0.00    +0.000 A 
ATOM     15  C   UNL     1       4.756   4.375  15.474  0.00  0.00    +0.000 A 
ATOM     16  C   UNL     1       4.910   4.709  16.824  0.00  0.00    +0.000 A 
ATOM     17  O   UNL     1       3.765   4.803  17.571  0.00  0.00    +0.000 OA
ENDROOT
BRANCH  14  18
ATOM     18  C   UNL     1       5.687   3.828  13.232  0.00  0.00    +0.000 C 
ATOM     19  C   UNL     1       4.502   3.470  12.709  0.00  0.00    +0.000 C 
BRANCH  19  20
ATOM     20  C   UNL     1       4.374   3.071  11.285  0.00  0.00    +0.000 C 
ATOM     21  O   UNL     1       5.004   2.153  10.773  0.00  0.00    +0.000 OA
ATOM     22  N   UNL     1       3.469   3.836  10.596  0.00  0.00    +0.000 N 
ATOM     23  H   UNL     1       2.913   4.589  10.984  0.00  0.00    +0.000 HD
BRANCH  22  24
ATOM     24  O   UNL     1       3.260   3.528   9.235  0.00  0.00    +0.000 OA
ATOM     25  H   UNL     1       3.900   4.119   8.787  0.00  0.00    +0.000 HD
ENDBRANCH  22  24
ENDBRANCH  19  20
ENDBRANCH  14  18
TORSDOF 3
ENDMDL
MODEL 2
REMARK VINA RESULT:      -7.9      1.018      1.243
REMARK  Name = 
REMARK  4 active torsions:
REMARK  status: ('A' for Active; 'I' for Inactive)
REMARK    1  A    between atoms: C_1  and  N_2
REMARK    2  A    between atoms: C_14  and  C_15
REMARK    3  A    between atoms: C_16  and  C_17
REMARK    4  A    between atoms: N_19  and  O_20
REMARK                            x       y       z     vdW  Elec       q    Type
REMARK                         _______ _______ _______ _____ _____    ______ ____
ROOT
ATOM      1  C   UNL     1       1.423   2.437  21.167  0.00  0.00    +0.000 C 
ATOM      2  N   UNL     1       1.565   2.577  19.718  0.00  0.00    +0.000 NA
ATOM      3  C   UNL     1       1.208   3.919  19.244  0.00  0.00    +0.000 C 
ATOM      4  C   UNL     1       2.222   4.998  19.635  0.00  0.00    +0.000 C 
ATOM      5  C   UNL     1       3.652   4.632  19.185  0.00  0.00    +0.000 C 
ATOM      6  C   UNL     1       3.983   3.201  19.676  0.00  0.00    +0.000 C 
ATOM      7  C   UNL     1       2.904   2.204  19.255  0.00  0.00    +0.000 C 
ATOM      8  C   UNL     1       4.620   5.673  19.755  0.00  0.00    +0.000 C 
ATOM      9  C   UNL     1       6.000   5.409  19.224  0.00  0.00    +0.000 C 
ATOM     10  O   UNL     1       7.013   5.617  19.880  0.00  0.00    +0.000 OA
ATOM     11  C   UNL     1       6.073   4.924  17.834  0.00  0.00    +0.000 A 
ATOM     12  C   UNL     1       7.306   4.764  17.206  0.00  0.00    +0.000 A 
ATOM     13  C   UNL     1       7.354   4.309  15.885  0.00  0.00    +0.000 A 
ATOM     14  C   UNL     1       6.177   4.029  15.171  0.00  0.00    +0.000 A 
ATOM     15  C   UNL     1       4.946   4.177  15.832  0.00  0.00    +0.000 A 
ATOM     16  C   UNL     1       4.895   4.608  17.162  0.00  0.00    +0.000 A 
ATOM     17  O   UNL     1       3.656   4.685  17.740  0.00  0.00    +0.000 OA
ENDROOT
BRANCH  14  18
ATOM     18  C   UNL     1       6.203   3.536  13.782  0.00  0.00    +0.000 C 
ATOM     19  C   UNL     1       5.100   3.237  13.075  0.00  0.00    +0.000 C 
BRANCH  19  20
ATOM     20  C   UNL     1       5.187   2.727  11.684  0.00  0.00    +0.000 C 
ATOM     21  O   UNL     1       4.480   3.123  10.765  0.00  0.00    +0.000 OA
ATOM     22  N   UNL     1       6.150   1.762  11.529  0.00  0.00    +0.000 N 
ATOM     23  H   UNL     1       6.768   1.421  12.255  0.00  0.00    +0.000 HD
BRANCH  22  24
ATOM     24  O   UNL     1       6.324   1.221  10.238  0.00  0.00    +0.000 OA
ATOM     25  H   UNL     1       6.712   0.342  10.431  0.00  0.00    +0.000 HD
ENDBRANCH  22  24
ENDBRANCH  19  20
ENDBRANCH  14  18
TORSDOF 3
ENDMDL
MODEL 3
REMARK VINA RESULT:      -7.7      3.638      6.538
REMARK  Name = 
REMARK  4 active torsions:
REMARK  status: ('A' for Active; 'I' for Inactive)
REMARK    1  A    between atoms: C_1  and  N_2
REMARK    2  A    between atoms: C_14  and  C_15
REMARK    3  A    between atoms: C_16  and  C_17
REMARK    4  A    between atoms: N_19  and  O_20
REMARK                            x       y       z     vdW  Elec       q    Type
REMARK                         _______ _______ _______ _____ _____    ______ ____
ROOT
ATOM      1  C   UNL     1       0.763   3.829  20.209  0.00  0.00    +0.000 C 
ATOM      2  N   UNL     1       2.031   4.423  20.630  0.00  0.00    +0.000 NA
ATOM      3  C   UNL     1       3.065   3.414  20.895  0.00  0.00    +0.000 C 
ATOM      4  C   UNL     1       3.591   2.728  19.632  0.00  0.00    +0.000 C 
ATOM      5  C   UNL     1       4.092   3.750  18.589  0.00  0.00    +0.000 C 
ATOM      6  C   UNL     1       2.991   4.814  18.358  0.00  0.00    +0.000 C 
ATOM      7  C   UNL     1       2.518   5.423  19.676  0.00  0.00    +0.000 C 
ATOM      8  C   UNL     1       4.444   2.998  17.303  0.00  0.00    +0.000 C 
ATOM      9  C   UNL     1       5.054   3.956  16.320  0.00  0.00    +0.000 C 
ATOM     10  O   UNL     1       4.888   3.858  15.110  0.00  0.00    +0.000 OA
ATOM     11  C   UNL     1       5.915   5.006  16.894  0.00  0.00    +0.000 A 
ATOM     12  C   UNL     1       6.625   5.869  16.063  0.00  0.00    +0.000 A 
ATOM     13  C   UNL     1       7.440   6.855  16.626  0.00  0.00    +0.000 A 
ATOM     14  C   UNL     1       7.572   6.977  18.019  0.00  0.00    +0.000 A 
ATOM     15  C   UNL     1       6.830   6.110  18.838  0.00  0.00    +0.000 A 
ATOM     16  C   UNL     1       5.994   5.138  18.278  0.00  0.00    +0.000 A 
ATOM     17  O   UNL     1       5.277   4.363  19.150  0.00  0.00    +0.000 OA
ENDROOT
BRANCH  14  18
ATOM     18  C   UNL     1       8.417   8.016  18.636  0.00  0.00    +0.000 C 
ATOM     19  C   UNL     1       8.456   9.293  18.218  0.00  0.00    +0.000 C 
BRANCH  19  20
ATOM     20  C   UNL     1       9.340  10.293  18.866  0.00  0.00    +0.000 C 
ATOM     21  O   UNL     1      10.060  11.070  18.250  0.00  0.00    +0.000 OA
ATOM     22  N   UNL     1       9.267  10.261  20.235  0.00  0.00    +0.000 N 
ATOM     23  H   UNL     1       8.673   9.650  20.782  0.00  0.00    +0.000 HD
BRANCH  22  24
ATOM     24  O   UNL     1      10.060  11.184  20.949  0.00  0.00    +0.000 OA
ATOM     25  H   UNL     1      10.401  11.762  20.235  0.00  0.00    +0.000 HD
ENDBRANCH  22  24
ENDBRANCH  19  20
ENDBRANCH  14  18
TORSDOF 3
ENDMDL
MODEL 4
REMARK VINA RESULT:      -7.6      2.145      2.417
REMARK  Name = 
REMARK  4 active torsions:
REMARK  status: ('A' for Active; 'I' for Inactive)
REMARK    1  A    between atoms: C_1  and  N_2
REMARK    2  A    between atoms: C_14  and  C_15
REMARK    3  A    between atoms: C_16  and  C_17
REMARK    4  A    between atoms: N_19  and  O_20
REMARK                            x       y       z     vdW  Elec       q    Type
REMARK                         _______ _______ _______ _____ _____    ______ ____
ROOT
ATOM      1  C   UNL     1       2.063   2.690  21.951  0.00  0.00    +0.000 C 
ATOM      2  N   UNL     1       2.424   2.259  20.600  0.00  0.00    +0.000 NA
ATOM      3  C   UNL     1       1.336   2.461  19.635  0.00  0.00    +0.000 C 
ATOM      4  C   UNL     1       1.080   3.932  19.298  0.00  0.00    +0.000 C 
ATOM      5  C   UNL     1       2.363   4.643  18.818  0.00  0.00    +0.000 C 
ATOM      6  C   UNL     1       3.495   4.383  19.842  0.00  0.00    +0.000 C 
ATOM      7  C   UNL     1       3.658   2.891  20.128  0.00  0.00    +0.000 C 
ATOM      8  C   UNL     1       2.060   6.135  18.662  0.00  0.00    +0.000 C 
ATOM      9  C   UNL     1       3.258   6.824  18.072  0.00  0.00    +0.000 C 
ATOM     10  O   UNL     1       3.572   7.972  18.366  0.00  0.00    +0.000 OA
ATOM     11  C   UNL     1       4.018   6.052  17.073  0.00  0.00    +0.000 A 
ATOM     12  C   UNL     1       5.072   6.642  16.378  0.00  0.00    +0.000 A 
ATOM     13  C   UNL     1       5.776   5.895  15.430  0.00  0.00    +0.000 A 
ATOM     14  C   UNL     1       5.427   4.564  15.149  0.00  0.00    +0.000 A 
ATOM     15  C   UNL     1       4.374   3.984  15.878  0.00  0.00    +0.000 A 
ATOM     16  C   UNL     1       3.683   4.720  16.845  0.00  0.00    +0.000 A 
ATOM     17  O   UNL     1       2.699   4.064  17.536  0.00  0.00    +0.000 OA
ENDROOT
BRANCH  14  18
ATOM     18  C   UNL     1       6.163   3.753  14.162  0.00  0.00    +0.000 C 
ATOM     19  C   UNL     1       5.775   3.600  12.885  0.00  0.00    +0.000 C 
BRANCH  19  20
ATOM     20  C   UNL     1       6.547   2.755  11.938  0.00  0.00    +0.000 C 
ATOM     21  O   UNL     1       7.582   3.114  11.391  0.00  0.00    +0.000 OA
ATOM     22  N   UNL     1       5.979   1.523  11.739  0.00  0.00    +0.000 N 
ATOM     23  H   UNL     1       5.137   1.181  12.185  0.00  0.00    +0.000 HD
BRANCH  22  24
ATOM     24  O   UNL     1       6.643   0.635  10.866  0.00  0.00    +0.000 OA
ATOM     25  H   UNL     1       6.382  -0.240  11.220  0.00  0.00    +0.000 HD
ENDBRANCH  22  24
ENDBRANCH  19  20
ENDBRANCH  14  18
TORSDOF 3
ENDMDL
MODEL 5
REMARK VINA RESULT:      -7.5      4.801      7.906
REMARK  Name = 
REMARK  4 active torsions:
REMARK  status: ('A' for Active; 'I' for Inactive)
REMARK    1  A    between atoms: C_1  and  N_2
REMARK    2  A    between atoms: C_14  and  C_15
REMARK    3  A    between atoms: C_16  and  C_17
REMARK    4  A    between atoms: N_19  and  O_20
REMARK                            x       y       z     vdW  Elec       q    Type
REMARK                         _______ _______ _______ _____ _____    ______ ____
ROOT
ATOM      1  C   UNL     1       7.730   4.404  17.405  0.00  0.00    +0.000 C 
ATOM      2  N   UNL     1       6.806   5.466  17.011  0.00  0.00    +0.000 NA
ATOM      3  C   UNL     1       5.684   4.966  16.207  0.00  0.00    +0.000 C 
ATOM      4  C   UNL     1       4.679   4.133  17.007  0.00  0.00    +0.000 C 
ATOM      5  C   UNL     1       4.156   4.894  18.244  0.00  0.00    +0.000 C 
ATOM      6  C   UNL     1       5.364   5.432  19.050  0.00  0.00    +0.000 C 
ATOM      7  C   UNL     1       6.317   6.230  18.162  0.00  0.00    +0.000 C 
ATOM      8  C   UNL     1       3.293   3.938  19.071  0.00  0.00    +0.000 C 
ATOM      9  C   UNL     1       2.670   4.695  20.210  0.00  0.00    +0.000 C 
ATOM     10  O   UNL     1       2.462   4.187  21.306  0.00  0.00    +0.000 OA
ATOM     11  C   UNL     1       2.275   6.085  19.921  0.00  0.00    +0.000 A 
ATOM     12  C   UNL     1       1.581   6.833  20.868  0.00  0.00    +0.000 A 
ATOM     13  C   UNL     1       1.209   8.148  20.573  0.00  0.00    +0.000 A 
ATOM     14  C   UNL     1       1.506   8.722  19.326  0.00  0.00    +0.000 A 
ATOM     15  C   UNL     1       2.225   7.955  18.394  0.00  0.00    +0.000 A 
ATOM     16  C   UNL     1       2.621   6.648  18.696  0.00  0.00    +0.000 A 
ATOM     17  O   UNL     1       3.354   5.989  17.745  0.00  0.00    +0.000 OA
ENDROOT
BRANCH  14  18
ATOM     18  C   UNL     1       1.135  10.110  18.995  0.00  0.00    +0.000 C 
ATOM     19  C   UNL     1       0.519  10.942  19.852  0.00  0.00    +0.000 C 
BRANCH  19  20
ATOM     20  C   UNL     1       0.152  12.325  19.459  0.00  0.00    +0.000 C 
ATOM     21  O   UNL     1       0.346  13.310  20.161  0.00  0.00    +0.000 OA
ATOM     22  N   UNL     1      -0.429  12.390  18.218  0.00  0.00    +0.000 N 
ATOM     23  H   UNL     1      -0.589  11.606  17.598  0.00  0.00    +0.000 HD
BRANCH  22  24
ATOM     24  O   UNL     1      -0.803  13.665  17.742  0.00  0.00    +0.000 OA
ATOM     25  H   UNL     1      -0.074  14.232  18.070  0.00  0.00    +0.000 HD
ENDBRANCH  22  24
ENDBRANCH  19  20
ENDBRANCH  14  18
TORSDOF 3
ENDMDL
MODEL 6
REMARK VINA RESULT:      -7.4      4.065      8.292
REMARK  Name = 
REMARK  4 active torsions:
REMARK  status: ('A' for Active; 'I' for Inactive)
REMARK    1  A    between atoms: C_1  and  N_2
REMARK    2  A    between atoms: C_14  and  C_15
REMARK    3  A    between atoms: C_16  and  C_17
REMARK    4  A    between atoms: N_19  and  O_20
REMARK                            x       y       z     vdW  Elec       q    Type
REMARK                         _______ _______ _______ _____ _____    ______ ____
ROOT
ATOM      1  C   UNL     1       7.791   4.963  15.671  0.00  0.00    +0.000 C 
ATOM      2  N   UNL     1       6.713   5.912  15.944  0.00  0.00    +0.000 NA
ATOM      3  C   UNL     1       5.495   5.617  15.179  0.00  0.00    +0.000 C 
ATOM      4  C   UNL     1       4.761   4.360  15.654  0.00  0.00    +0.000 C 
ATOM      5  C   UNL     1       4.447   4.416  17.165  0.00  0.00    +0.000 C 
ATOM      6  C   UNL     1       5.745   4.759  17.936  0.00  0.00    +0.000 C 
ATOM      7  C   UNL     1       6.413   6.013  17.375  0.00  0.00    +0.000 C 
ATOM      8  C   UNL     1       3.867   3.064  17.588  0.00  0.00    +0.000 C 
ATOM      9  C   UNL     1       3.435   3.139  19.025  0.00  0.00    +0.000 C 
ATOM     10  O   UNL     1       3.509   2.184  19.789  0.00  0.00    +0.000 OA
ATOM     11  C   UNL     1       2.864   4.427  19.459  0.00  0.00    +0.000 A 
ATOM     12  C   UNL     1       2.322   4.564  20.735  0.00  0.00    +0.000 A 
ATOM     13  C   UNL     1       1.780   5.792  21.126  0.00  0.00    +0.000 A 
ATOM     14  C   UNL     1       1.753   6.886  20.245  0.00  0.00    +0.000 A 
ATOM     15  C   UNL     1       2.325   6.730  18.972  0.00  0.00    +0.000 A 
ATOM     16  C   UNL     1       2.891   5.511  18.586  0.00  0.00    +0.000 A 
ATOM     17  O   UNL     1       3.462   5.460  17.342  0.00  0.00    +0.000 OA
ENDROOT
BRANCH  14  18
ATOM     18  C   UNL     1       1.198   8.194  20.640  0.00  0.00    +0.000 C 
ATOM     19  C   UNL     1       1.058   8.592  21.915  0.00  0.00    +0.000 C 
BRANCH  19  20
ATOM     20  C   UNL     1       0.474   9.913  22.254  0.00  0.00    +0.000 C 
ATOM     21  O   UNL     1       0.887  10.977  21.808  0.00  0.00    +0.000 OA
ATOM     22  N   UNL     1      -0.583   9.822  23.122  0.00  0.00    +0.000 N 
ATOM     23  H   UNL     1      -0.967   8.964  23.499  0.00  0.00    +0.000 HD
BRANCH  22  24
ATOM     24  O   UNL     1      -1.221  11.024  23.497  0.00  0.00    +0.000 OA
ATOM     25  H   UNL     1      -0.572  11.420  24.116  0.00  0.00    +0.000 HD
ENDBRANCH  22  24
ENDBRANCH  19  20
ENDBRANCH  14  18
TORSDOF 3
ENDMDL
MODEL 7
REMARK VINA RESULT:      -7.4      4.857      8.338
REMARK  Name = 
REMARK  4 active torsions:
REMARK  status: ('A' for Active; 'I' for Inactive)
REMARK    1  A    between atoms: C_1  and  N_2
REMARK    2  A    between atoms: C_14  and  C_15
REMARK    3  A    between atoms: C_16  and  C_17
REMARK    4  A    between atoms: N_19  and  O_20
REMARK                            x       y       z     vdW  Elec       q    Type
REMARK                         _______ _______ _______ _____ _____    ______ ____
ROOT
ATOM      1  C   UNL     1       3.313   1.354  18.263  0.00  0.00    +0.000 C 
ATOM      2  N   UNL     1       2.870   2.293  19.293  0.00  0.00    +0.000 NA
ATOM      3  C   UNL     1       3.991   2.884  20.035  0.00  0.00    +0.000 C 
ATOM      4  C   UNL     1       4.812   3.882  19.213  0.00  0.00    +0.000 C 
ATOM      5  C   UNL     1       3.927   4.990  18.604  0.00  0.00    +0.000 C 
ATOM      6  C   UNL     1       2.741   4.332  17.857  0.00  0.00    +0.000 C 
ATOM      7  C   UNL     1       2.000   3.339  18.751  0.00  0.00    +0.000 C 
ATOM      8  C   UNL     1       4.791   5.842  17.671  0.00  0.00    +0.000 C 
ATOM      9  C   UNL     1       3.981   7.002  17.167  0.00  0.00    +0.000 C 
ATOM     10  O   UNL     1       4.124   7.472  16.045  0.00  0.00    +0.000 OA
ATOM     11  C   UNL     1       3.024   7.584  18.126  0.00  0.00    +0.000 A 
ATOM     12  C   UNL     1       2.312   8.736  17.802  0.00  0.00    +0.000 A 
ATOM     13  C   UNL     1       1.413   9.275  18.727  0.00  0.00    +0.000 A 
ATOM     14  C   UNL     1       1.231   8.686  19.989  0.00  0.00    +0.000 A 
ATOM     15  C   UNL     1       1.944   7.513  20.285  0.00  0.00    +0.000 A 
ATOM     16  C   UNL     1       2.825   6.956  19.353  0.00  0.00    +0.000 A 
ATOM     17  O   UNL     1       3.447   5.789  19.710  0.00  0.00    +0.000 OA
ENDROOT
BRANCH  14  18
ATOM     18  C   UNL     1       0.280   9.230  20.976  0.00  0.00    +0.000 C 
ATOM     19  C   UNL     1       0.271  10.513  21.375  0.00  0.00    +0.000 C 
BRANCH  19  20
ATOM     20  C   UNL     1      -0.698  11.002  22.387  0.00  0.00    +0.000 C 
ATOM     21  O   UNL     1      -0.902  10.449  23.461  0.00  0.00    +0.000 OA
ATOM     22  N   UNL     1      -1.346  12.146  21.996  0.00  0.00    +0.000 N 
ATOM     23  H   UNL     1      -1.194  12.644  21.128  0.00  0.00    +0.000 HD
BRANCH  22  24
ATOM     24  O   UNL     1      -2.280  12.702  22.895  0.00  0.00    +0.000 OA
ATOM     25  H   UNL     1      -2.003  13.642  22.929  0.00  0.00    +0.000 HD
ENDBRANCH  22  24
ENDBRANCH  19  20
ENDBRANCH  14  18
TORSDOF 3
ENDMDL
MODEL 8
REMARK VINA RESULT:      -7.3      5.093      7.992
REMARK  Name = 
REMARK  4 active torsions:
REMARK  status: ('A' for Active; 'I' for Inactive)
REMARK    1  A    between atoms: C_1  and  N_2
REMARK    2  A    between atoms: C_14  and  C_15
REMARK    3  A    between atoms: C_16  and  C_17
REMARK    4  A    between atoms: N_19  and  O_20
REMARK                            x       y       z     vdW  Elec       q    Type
REMARK                         _______ _______ _______ _____ _____    ______ ____
ROOT
ATOM      1  C   UNL     1       7.543   4.478  17.198  0.00  0.00    +0.000 C 
ATOM      2  N   UNL     1       6.634   5.529  16.741  0.00  0.00    +0.000 NA
ATOM      3  C   UNL     1       5.472   4.994  16.021  0.00  0.00    +0.000 C 
ATOM      4  C   UNL     1       4.474   4.263  16.923  0.00  0.00    +0.000 C 
ATOM      5  C   UNL     1       4.015   5.146  18.104  0.00  0.00    +0.000 C 
ATOM      6  C   UNL     1       5.264   5.716  18.820  0.00  0.00    +0.000 C 
ATOM      7  C   UNL     1       6.206   6.405  17.835  0.00  0.00    +0.000 C 
ATOM      8  C   UNL     1       3.155   4.292  19.041  0.00  0.00    +0.000 C 
ATOM      9  C   UNL     1       2.593   5.164  20.127  0.00  0.00    +0.000 C 
ATOM     10  O   UNL     1       2.409   4.761  21.270  0.00  0.00    +0.000 OA
ATOM     11  C   UNL     1       2.225   6.534  19.728  0.00  0.00    +0.000 A 
ATOM     12  C   UNL     1       1.584   7.383  20.628  0.00  0.00    +0.000 A 
ATOM     13  C   UNL     1       1.237   8.677  20.229  0.00  0.00    +0.000 A 
ATOM     14  C   UNL     1       1.506   9.130  18.927  0.00  0.00    +0.000 A 
ATOM     15  C   UNL     1       2.172   8.264  18.044  0.00  0.00    +0.000 A 
ATOM     16  C   UNL     1       2.543   6.978  18.448  0.00  0.00    +0.000 A 
ATOM     17  O   UNL     1       3.225   6.216  17.536  0.00  0.00    +0.000 OA
ENDROOT
BRANCH  14  18
ATOM     18  C   UNL     1       1.160  10.495  18.487  0.00  0.00    +0.000 C 
ATOM     19  C   UNL     1       1.169  11.565  19.298  0.00  0.00    +0.000 C 
BRANCH  19  20
ATOM     20  C   UNL     1       0.794  12.914  18.805  0.00  0.00    +0.000 C 
ATOM     21  O   UNL     1      -0.264  13.164  18.240  0.00  0.00    +0.000 OA
ATOM     22  N   UNL     1       1.758  13.858  19.048  0.00  0.00    +0.000 N 
ATOM     23  H   UNL     1       2.635  13.698  19.527  0.00  0.00    +0.000 HD
BRANCH  22  24
ATOM     24  O   UNL     1       1.493  15.179  18.631  0.00  0.00    +0.000 OA
ATOM     25  H   UNL     1       2.371  15.479  18.318  0.00  0.00    +0.000 HD
ENDBRANCH  22  24
ENDBRANCH  19  20
ENDBRANCH  14  18
TORSDOF 3
ENDMDL
MODEL 9
REMARK VINA RESULT:      -7.3      4.345      8.444
REMARK  Name = 
REMARK  4 active torsions:
REMARK  status: ('A' for Active; 'I' for Inactive)
REMARK    1  A    between atoms: C_1  and  N_2
REMARK    2  A    between atoms: C_14  and  C_15
REMARK    3  A    between atoms: C_16  and  C_17
REMARK    4  A    between atoms: N_19  and  O_20
REMARK                            x       y       z     vdW  Elec       q    Type
REMARK                         _______ _______ _______ _____ _____    ______ ____
ROOT
ATOM      1  C   UNL     1       7.992   4.399  17.385  0.00  0.00    +0.000 C 
ATOM      2  N   UNL     1       7.215   5.593  17.716  0.00  0.00    +0.000 NA
ATOM      3  C   UNL     1       6.348   6.025  16.613  0.00  0.00    +0.000 C 
ATOM      4  C   UNL     1       5.159   5.093  16.366  0.00  0.00    +0.000 C 
ATOM      5  C   UNL     1       4.328   4.870  17.648  0.00  0.00    +0.000 C 
ATOM      6  C   UNL     1       5.277   4.447  18.795  0.00  0.00    +0.000 C 
ATOM      7  C   UNL     1       6.440   5.426  18.948  0.00  0.00    +0.000 C 
ATOM      8  C   UNL     1       3.266   3.806  17.358  0.00  0.00    +0.000 C 
ATOM      9  C   UNL     1       2.365   3.668  18.551  0.00  0.00    +0.000 C 
ATOM     10  O   UNL     1       1.865   2.599  18.883  0.00  0.00    +0.000 OA
ATOM     11  C   UNL     1       2.072   4.913  19.285  0.00  0.00    +0.000 A 
ATOM     12  C   UNL     1       1.153   4.915  20.332  0.00  0.00    +0.000 A 
ATOM     13  C   UNL     1       0.884   6.107  21.011  0.00  0.00    +0.000 A 
ATOM     14  C   UNL     1       1.511   7.309  20.642  0.00  0.00    +0.000 A 
ATOM     15  C   UNL     1       2.449   7.277  19.597  0.00  0.00    +0.000 A 
ATOM     16  C   UNL     1       2.739   6.082  18.932  0.00  0.00    +0.000 A 
ATOM     17  O   UNL     1       3.697   6.135  17.954  0.00  0.00    +0.000 OA
ENDROOT
BRANCH  14  18
ATOM     18  C   UNL     1       1.252   8.575  21.351  0.00  0.00    +0.000 C 
ATOM     19  C   UNL     1       0.337   9.477  20.958  0.00  0.00    +0.000 C 
BRANCH  19  20
ATOM     20  C   UNL     1       0.132  10.746  21.701  0.00  0.00    +0.000 C 
ATOM     21  O   UNL     1       0.781  11.766  21.504  0.00  0.00    +0.000 OA
ATOM     22  N   UNL     1      -0.867  10.660  22.636  0.00  0.00    +0.000 N 
ATOM     23  H   UNL     1      -1.440   9.844  22.818  0.00  0.00    +0.000 HD
BRANCH  22  24
ATOM     24  O   UNL     1      -1.153  11.818  23.389  0.00  0.00    +0.000 OA
ATOM     25  H   UNL     1      -0.793  11.588  24.271  0.00  0.00    +0.000 HD
ENDBRANCH  22  24
ENDBRANCH  19  20
ENDBRANCH  14  18
TORSDOF 3
ENDMDL
