MODEL 1
REMARK VINA RESULT:      -8.0      0.000      0.000
REMARK  Name = 
REMARK  3 active torsions:
REMARK  status: ('A' for Active; 'I' for Inactive)
REMARK    1  A    between atoms: C_1  and  O_2
REMARK    2  A    between atoms: O_2  and  C_3
REMARK    3  A    between atoms: C_5  and  C_6
REMARK                            x       y       z     vdW  Elec       q    Type
REMARK                         _______ _______ _______ _____ _____    ______ ____
ROOT
ATOM      1  C   UNL     1       0.443   9.342  20.301  0.00  0.00    +0.000 C 
ATOM      2  O   UNL     1       0.077   9.492  21.466  0.00  0.00    +0.000 OA
ATOM      3  N   UNL     1       1.447   8.439  19.949  0.00  0.00    +0.000 N 
ATOM      4  C   UNL     1       1.879   7.437  20.921  0.00  0.00    +0.000 C 
ATOM      5  C   UNL     1       1.826   6.038  20.299  0.00  0.00    +0.000 C 
ATOM      6  C   UNL     1       2.575   5.958  18.951  0.00  0.00    +0.000 C 
ATOM      7  C   UNL     1       2.155   7.136  18.030  0.00  0.00    +0.000 C 
ATOM      8  C   UNL     1       2.255   8.475  18.737  0.00  0.00    +0.000 C 
ATOM      9  N   UNL     1       4.041   5.988  19.208  0.00  0.00    +0.000 N 
ATOM     10  C   UNL     1       4.806   5.744  18.050  0.00  0.00    +0.000 A 
ATOM     11  C   UNL     1       6.098   6.262  17.946  0.00  0.00    +0.000 A 
ATOM     12  C   UNL     1       6.854   6.038  16.793  0.00  0.00    +0.000 A 
ATOM     13  C   UNL     1       6.338   5.257  15.758  0.00  0.00    +0.000 A 
ATOM     14  C   UNL     1       5.080   4.667  15.880  0.00  0.00    +0.000 A 
ATOM     15  C   UNL     1       4.322   4.905  17.026  0.00  0.00    +0.000 A 
ATOM     16  N   UNL     1       3.056   4.312  17.160  0.00  0.00    +0.000 N 
ATOM     17  C   UNL     1       2.197   4.653  18.187  0.00  0.00    +0.000 C 
ATOM     18  O   UNL     1       1.150   4.033  18.354  0.00  0.00    +0.000 OA
ATOM     19  H   UNL     1       4.367   6.796  19.728  0.00  0.00    +0.000 HD
ATOM     20  H   UNL     1       2.766   3.566  16.546  0.00  0.00    +0.000 HD
ENDROOT
BRANCH   1  23
ATOM     21  C   UNL     1      -1.661  10.378  17.344  0.00  0.00    +0.000 A 
ATOM     22  C   UNL     1      -1.061   9.561  18.282  0.00  0.00    +0.000 A 
ATOM     23  C   UNL     1      -0.263  10.144  19.260  0.00  0.00    +0.000 A 
ATOM     24  C   UNL     1      -0.200  11.537  19.332  0.00  0.00    +0.000 A 
ATOM     25  C   UNL     1      -0.884  12.272  18.380  0.00  0.00    +0.000 A 
ATOM     26  N   UNL     1      -1.591  11.723  17.368  0.00  0.00    +0.000 NA
BRANCH  21  28
ATOM     27  C   UNL     1      -2.951  10.613  15.403  0.00  0.00    +0.000 C 
ATOM     28  O   UNL     1      -2.329   9.727  16.326  0.00  0.00    +0.000 OA
ENDBRANCH  21  28
ENDBRANCH   1  23
TORSDOF 2
ENDMDL
MODEL 2
REMARK VINA RESULT:      -7.9      1.083      1.157
REMARK  Name = 
REMARK  3 active torsions:
REMARK  status: ('A' for Active; 'I' for Inactive)
REMARK    1  A    between atoms: C_1  and  O_2
REMARK    2  A    between atoms: O_2  and  C_3
REMARK    3  A    between atoms: C_5  and  C_6
REMARK                            x       y       z     vdW  Elec       q    Type
REMARK                         _______ _______ _______ _____ _____    ______ ____
ROOT
ATOM      1  C   UNL     1       0.525   8.567  20.857  0.00  0.00    +0.000 C 
ATOM      2  O   UNL     1      -0.111   8.461  21.905  0.00  0.00    +0.000 OA
ATOM      3  N   UNL     1       1.474   7.622  20.467  0.00  0.00    +0.000 N 
ATOM      4  C   UNL     1       1.520   6.331  21.151  0.00  0.00    +0.000 C 
ATOM      5  C   UNL     1       1.469   5.189  20.132  0.00  0.00    +0.000 C 
ATOM      6  C   UNL     1       2.528   5.339  19.018  0.00  0.00    +0.000 C 
ATOM      7  C   UNL     1       2.501   6.779  18.437  0.00  0.00    +0.000 C 
ATOM      8  C   UNL     1       2.568   7.833  19.528  0.00  0.00    +0.000 C 
ATOM      9  N   UNL     1       3.870   5.022  19.578  0.00  0.00    +0.000 N 
ATOM     10  C   UNL     1       4.877   4.963  18.593  0.00  0.00    +0.000 A 
ATOM     11  C   UNL     1       6.202   5.238  18.933  0.00  0.00    +0.000 A 
ATOM     12  C   UNL     1       7.200   5.197  17.957  0.00  0.00    +0.000 A 
ATOM     13  C   UNL     1       6.884   4.837  16.646  0.00  0.00    +0.000 A 
ATOM     14  C   UNL     1       5.578   4.483  16.309  0.00  0.00    +0.000 A 
ATOM     15  C   UNL     1       4.581   4.539  17.281  0.00  0.00    +0.000 A 
ATOM     16  N   UNL     1       3.264   4.180  16.953  0.00  0.00    +0.000 N 
ATOM     17  C   UNL     1       2.214   4.384  17.826  0.00  0.00    +0.000 C 
ATOM     18  O   UNL     1       1.094   3.950  17.565  0.00  0.00    +0.000 OA
ATOM     19  H   UNL     1       4.141   5.583  20.379  0.00  0.00    +0.000 HD
ATOM     20  H   UNL     1       3.059   3.697  16.091  0.00  0.00    +0.000 HD
ENDROOT
BRANCH   1  23
ATOM     21  C   UNL     1      -0.990  10.826  18.241  0.00  0.00    +0.000 A 
ATOM     22  C   UNL     1      -0.780   9.701  19.015  0.00  0.00    +0.000 A 
ATOM     23  C   UNL     1       0.211   9.738  19.989  0.00  0.00    +0.000 A 
ATOM     24  C   UNL     1       0.867  10.946  20.232  0.00  0.00    +0.000 A 
ATOM     25  C   UNL     1       0.546  12.035  19.442  0.00  0.00    +0.000 A 
ATOM     26  N   UNL     1      -0.349  11.995  18.430  0.00  0.00    +0.000 NA
BRANCH  21  28
ATOM     27  C   UNL     1      -2.940   9.761  17.501  0.00  0.00    +0.000 C 
ATOM     28  O   UNL     1      -1.893  10.678  17.207  0.00  0.00    +0.000 OA
ENDBRANCH  21  28
ENDBRANCH   1  23
TORSDOF 2
ENDMDL
MODEL 3
REMARK VINA RESULT:      -7.8      4.106      8.430
REMARK  Name = 
REMARK  3 active torsions:
REMARK  status: ('A' for Active; 'I' for Inactive)
REMARK    1  A    between atoms: C_1  and  O_2
REMARK    2  A    between atoms: O_2  and  C_3
REMARK    3  A    between atoms: C_5  and  C_6
REMARK                            x       y       z     vdW  Elec       q    Type
REMARK                         _______ _______ _______ _____ _____    ______ ____
ROOT
ATOM      1  C   UNL     1       6.821   4.503  14.407  0.00  0.00    +0.000 C 
ATOM      2  O   UNL     1       7.915   5.012  14.166  0.00  0.00    +0.000 OA
ATOM      3  N   UNL     1       6.231   4.574  15.668  0.00  0.00    +0.000 N 
ATOM      4  C   UNL     1       6.765   5.510  16.655  0.00  0.00    +0.000 C 
ATOM      5  C   UNL     1       5.643   6.391  17.213  0.00  0.00    +0.000 C 
ATOM      6  C   UNL     1       4.441   5.568  17.726  0.00  0.00    +0.000 C 
ATOM      7  C   UNL     1       4.022   4.509  16.670  0.00  0.00    +0.000 C 
ATOM      8  C   UNL     1       5.204   3.683  16.194  0.00  0.00    +0.000 C 
ATOM      9  N   UNL     1       4.814   4.914  19.010  0.00  0.00    +0.000 N 
ATOM     10  C   UNL     1       3.723   4.282  19.641  0.00  0.00    +0.000 A 
ATOM     11  C   UNL     1       3.942   3.196  20.491  0.00  0.00    +0.000 A 
ATOM     12  C   UNL     1       2.863   2.557  21.105  0.00  0.00    +0.000 A 
ATOM     13  C   UNL     1       1.565   3.029  20.909  0.00  0.00    +0.000 A 
ATOM     14  C   UNL     1       1.338   4.161  20.126  0.00  0.00    +0.000 A 
ATOM     15  C   UNL     1       2.414   4.788  19.502  0.00  0.00    +0.000 A 
ATOM     16  N   UNL     1       2.197   5.931  18.716  0.00  0.00    +0.000 N 
ATOM     17  C   UNL     1       3.197   6.483  17.940  0.00  0.00    +0.000 C 
ATOM     18  O   UNL     1       3.017   7.551  17.359  0.00  0.00    +0.000 OA
ATOM     19  H   UNL     1       5.635   4.319  18.963  0.00  0.00    +0.000 HD
ATOM     20  H   UNL     1       1.317   6.423  18.751  0.00  0.00    +0.000 HD
ENDROOT
BRANCH   1  23
ATOM     21  C   UNL     1       5.941   2.175  11.570  0.00  0.00    +0.000 A 
ATOM     22  C   UNL     1       6.645   2.718  12.626  0.00  0.00    +0.000 A 
ATOM     23  C   UNL     1       6.122   3.833  13.272  0.00  0.00    +0.000 A 
ATOM     24  C   UNL     1       4.850   4.282  12.911  0.00  0.00    +0.000 A 
ATOM     25  C   UNL     1       4.197   3.633  11.878  0.00  0.00    +0.000 A 
ATOM     26  N   UNL     1       4.727   2.606  11.178  0.00  0.00    +0.000 NA
BRANCH  21  28
ATOM     27  C   UNL     1       6.153  -0.142  11.293  0.00  0.00    +0.000 C 
ATOM     28  O   UNL     1       6.578   1.155  10.890  0.00  0.00    +0.000 OA
ENDBRANCH  21  28
ENDBRANCH   1  23
TORSDOF 2
ENDMDL
MODEL 4
REMARK VINA RESULT:      -7.5      1.610      2.171
REMARK  Name = 
REMARK  3 active torsions:
REMARK  status: ('A' for Active; 'I' for Inactive)
REMARK    1  A    between atoms: C_1  and  O_2
REMARK    2  A    between atoms: O_2  and  C_3
REMARK    3  A    between atoms: C_5  and  C_6
REMARK                            x       y       z     vdW  Elec       q    Type
REMARK                         _______ _______ _______ _____ _____    ______ ____
ROOT
ATOM      1  C   UNL     1       0.659   8.589  20.809  0.00  0.00    +0.000 C 
ATOM      2  O   UNL     1       0.074   8.522  21.889  0.00  0.00    +0.000 OA
ATOM      3  N   UNL     1       1.578   7.622  20.402  0.00  0.00    +0.000 N 
ATOM      4  C   UNL     1       1.645   6.352  21.122  0.00  0.00    +0.000 C 
ATOM      5  C   UNL     1       1.532   5.180  20.142  0.00  0.00    +0.000 C 
ATOM      6  C   UNL     1       2.536   5.284  18.974  0.00  0.00    +0.000 C 
ATOM      7  C   UNL     1       2.495   6.706  18.351  0.00  0.00    +0.000 C 
ATOM      8  C   UNL     1       2.627   7.792  19.404  0.00  0.00    +0.000 C 
ATOM      9  N   UNL     1       3.901   4.970  19.477  0.00  0.00    +0.000 N 
ATOM     10  C   UNL     1       4.857   4.869  18.446  0.00  0.00    +0.000 A 
ATOM     11  C   UNL     1       6.201   5.138  18.713  0.00  0.00    +0.000 A 
ATOM     12  C   UNL     1       7.148   5.057  17.691  0.00  0.00    +0.000 A 
ATOM     13  C   UNL     1       6.765   4.661  16.409  0.00  0.00    +0.000 A 
ATOM     14  C   UNL     1       5.440   4.312  16.146  0.00  0.00    +0.000 A 
ATOM     15  C   UNL     1       4.493   4.409  17.164  0.00  0.00    +0.000 A 
ATOM     16  N   UNL     1       3.158   4.056  16.912  0.00  0.00    +0.000 N 
ATOM     17  C   UNL     1       2.154   4.298  17.828  0.00  0.00    +0.000 C 
ATOM     18  O   UNL     1       1.019   3.869  17.636  0.00  0.00    +0.000 OA
ATOM     19  H   UNL     1       4.217   5.551  20.247  0.00  0.00    +0.000 HD
ATOM     20  H   UNL     1       2.906   3.549  16.076  0.00  0.00    +0.000 HD
ENDROOT
BRANCH   1  23
ATOM     21  C   UNL     1       0.690  11.911  19.017  0.00  0.00    +0.000 A 
ATOM     22  C   UNL     1       1.095  10.886  19.850  0.00  0.00    +0.000 A 
ATOM     23  C   UNL     1       0.314   9.738  19.922  0.00  0.00    +0.000 A 
ATOM     24  C   UNL     1      -0.777   9.614  19.061  0.00  0.00    +0.000 A 
ATOM     25  C   UNL     1      -1.070  10.674  18.219  0.00  0.00    +0.000 A 
ATOM     26  N   UNL     1      -0.377  11.833  18.199  0.00  0.00    +0.000 NA
BRANCH  21  28
ATOM     27  C   UNL     1       2.596  13.049  18.270  0.00  0.00    +0.000 C 
ATOM     28  O   UNL     1       1.435  13.071  19.093  0.00  0.00    +0.000 OA
ENDBRANCH  21  28
ENDBRANCH   1  23
TORSDOF 2
ENDMDL
MODEL 5
REMARK VINA RESULT:      -7.4      1.041      1.759
REMARK  Name = 
REMARK  3 active torsions:
REMARK  status: ('A' for Active; 'I' for Inactive)
REMARK    1  A    between atoms: C_1  and  O_2
REMARK    2  A    between atoms: O_2  and  C_3
REMARK    3  A    between atoms: C_5  and  C_6
REMARK                            x       y       z     vdW  Elec       q    Type
REMARK                         _______ _______ _______ _____ _____    ______ ____
ROOT
ATOM      1  C   UNL     1       0.415   9.343  20.434  0.00  0.00    +0.000 C 
ATOM      2  O   UNL     1       0.050   9.472  21.601  0.00  0.00    +0.000 OA
ATOM      3  N   UNL     1       1.418   8.446  20.065  0.00  0.00    +0.000 N 
ATOM      4  C   UNL     1       1.851   7.427  21.019  0.00  0.00    +0.000 C 
ATOM      5  C   UNL     1       1.798   6.039  20.372  0.00  0.00    +0.000 C 
ATOM      6  C   UNL     1       2.545   5.983  19.023  0.00  0.00    +0.000 C 
ATOM      7  C   UNL     1       2.124   7.177  18.122  0.00  0.00    +0.000 C 
ATOM      8  C   UNL     1       2.226   8.504  18.853  0.00  0.00    +0.000 C 
ATOM      9  N   UNL     1       4.011   6.008  19.279  0.00  0.00    +0.000 N 
ATOM     10  C   UNL     1       4.776   5.785  18.115  0.00  0.00    +0.000 A 
ATOM     11  C   UNL     1       6.068   6.304  18.020  0.00  0.00    +0.000 A 
ATOM     12  C   UNL     1       6.822   6.100  16.863  0.00  0.00    +0.000 A 
ATOM     13  C   UNL     1       6.306   5.338  15.814  0.00  0.00    +0.000 A 
ATOM     14  C   UNL     1       5.048   4.747  15.927  0.00  0.00    +0.000 A 
ATOM     15  C   UNL     1       4.290   4.964  17.077  0.00  0.00    +0.000 A 
ATOM     16  N   UNL     1       3.025   4.369  17.203  0.00  0.00    +0.000 N 
ATOM     17  C   UNL     1       2.167   4.691  18.236  0.00  0.00    +0.000 C 
ATOM     18  O   UNL     1       1.120   4.069  18.392  0.00  0.00    +0.000 OA
ATOM     19  H   UNL     1       4.338   6.807  19.813  0.00  0.00    +0.000 HD
ATOM     20  H   UNL     1       2.734   3.634  16.576  0.00  0.00    +0.000 HD
ENDROOT
BRANCH   1  23
ATOM     21  C   UNL     1      -0.721  12.197  18.240  0.00  0.00    +0.000 A 
ATOM     22  C   UNL     1      -0.001  11.507  19.196  0.00  0.00    +0.000 A 
ATOM     23  C   UNL     1      -0.292  10.163  19.408  0.00  0.00    +0.000 A 
ATOM     24  C   UNL     1      -1.208   9.534  18.564  0.00  0.00    +0.000 A 
ATOM     25  C   UNL     1      -1.836  10.298  17.595  0.00  0.00    +0.000 A 
ATOM     26  N   UNL     1      -1.634  11.624  17.433  0.00  0.00    +0.000 NA
BRANCH  21  28
ATOM     27  C   UNL     1       0.555  13.984  19.056  0.00  0.00    +0.000 C 
ATOM     28  O   UNL     1      -0.475  13.554  18.173  0.00  0.00    +0.000 OA
ENDBRANCH  21  28
ENDBRANCH   1  23
TORSDOF 2
ENDMDL
MODEL 6
REMARK VINA RESULT:      -7.3      4.124      8.058
REMARK  Name = 
REMARK  3 active torsions:
REMARK  status: ('A' for Active; 'I' for Inactive)
REMARK    1  A    between atoms: C_1  and  O_2
REMARK    2  A    between atoms: O_2  and  C_3
REMARK    3  A    between atoms: C_5  and  C_6
REMARK                            x       y       z     vdW  Elec       q    Type
REMARK                         _______ _______ _______ _____ _____    ______ ____
ROOT
ATOM      1  C   UNL     1       6.893   4.714  14.387  0.00  0.00    +0.000 C 
ATOM      2  O   UNL     1       7.908   5.371  14.155  0.00  0.00    +0.000 OA
ATOM      3  N   UNL     1       6.270   4.728  15.635  0.00  0.00    +0.000 N 
ATOM      4  C   UNL     1       6.639   5.755  16.606  0.00  0.00    +0.000 C 
ATOM      5  C   UNL     1       5.387   6.476  17.118  0.00  0.00    +0.000 C 
ATOM      6  C   UNL     1       4.307   5.499  17.629  0.00  0.00    +0.000 C 
ATOM      7  C   UNL     1       4.071   4.365  16.594  0.00  0.00    +0.000 C 
ATOM      8  C   UNL     1       5.371   3.709  16.164  0.00  0.00    +0.000 C 
ATOM      9  N   UNL     1       4.740   4.937  18.937  0.00  0.00    +0.000 N 
ATOM     10  C   UNL     1       3.738   4.168  19.564  0.00  0.00    +0.000 A 
ATOM     11  C   UNL     1       4.093   3.146  20.446  0.00  0.00    +0.000 A 
ATOM     12  C   UNL     1       3.104   2.372  21.056  0.00  0.00    +0.000 A 
ATOM     13  C   UNL     1       1.755   2.643  20.821  0.00  0.00    +0.000 A 
ATOM     14  C   UNL     1       1.385   3.711  20.004  0.00  0.00    +0.000 A 
ATOM     15  C   UNL     1       2.373   4.474  19.385  0.00  0.00    +0.000 A 
ATOM     16  N   UNL     1       2.011   5.554  18.564  0.00  0.00    +0.000 N 
ATOM     17  C   UNL     1       2.937   6.227  17.793  0.00  0.00    +0.000 C 
ATOM     18  O   UNL     1       2.618   7.243  17.180  0.00  0.00    +0.000 OA
ATOM     19  H   UNL     1       5.640   4.467  18.923  0.00  0.00    +0.000 HD
ATOM     20  H   UNL     1       1.068   5.913  18.568  0.00  0.00    +0.000 HD
ENDROOT
BRANCH   1  23
ATOM     21  C   UNL     1       4.587   3.336  11.736  0.00  0.00    +0.000 A 
ATOM     22  C   UNL     1       5.040   4.130  12.772  0.00  0.00    +0.000 A 
ATOM     23  C   UNL     1       6.326   3.922  13.258  0.00  0.00    +0.000 A 
ATOM     24  C   UNL     1       7.151   3.008  12.601  0.00  0.00    +0.000 A 
ATOM     25  C   UNL     1       6.624   2.301  11.534  0.00  0.00    +0.000 A 
ATOM     26  N   UNL     1       5.349   2.424  11.104  0.00  0.00    +0.000 NA
BRANCH  21  28
ATOM     27  C   UNL     1       3.075   3.879  10.032  0.00  0.00    +0.000 C 
ATOM     28  O   UNL     1       3.260   3.505  11.392  0.00  0.00    +0.000 OA
ENDBRANCH  21  28
ENDBRANCH   1  23
TORSDOF 2
ENDMDL
MODEL 7
REMARK VINA RESULT:      -7.3      6.013      8.104
REMARK  Name = 
REMARK  3 active torsions:
REMARK  status: ('A' for Active; 'I' for Inactive)
REMARK    1  A    between atoms: C_1  and  O_2
REMARK    2  A    between atoms: O_2  and  C_3
REMARK    3  A    between atoms: C_5  and  C_6
REMARK                            x       y       z     vdW  Elec       q    Type
REMARK                         _______ _______ _______ _____ _____    ______ ____
ROOT
ATOM      1  C   UNL     1       2.522  13.591  20.330  0.00  0.00    +0.000 C 
ATOM      2  O   UNL     1       3.205  13.291  21.309  0.00  0.00    +0.000 OA
ATOM      3  N   UNL     1       1.425  12.829  19.930  0.00  0.00    +0.000 N 
ATOM      4  C   UNL     1       0.885  11.821  20.839  0.00  0.00    +0.000 C 
ATOM      5  C   UNL     1      -0.623  12.023  21.018  0.00  0.00    +0.000 C 
ATOM      6  C   UNL     1      -1.375  12.111  19.673  0.00  0.00    +0.000 C 
ATOM      7  C   UNL     1      -0.658  13.103  18.717  0.00  0.00    +0.000 C 
ATOM      8  C   UNL     1       0.826  12.808  18.601  0.00  0.00    +0.000 C 
ATOM      9  N   UNL     1      -1.444  10.753  19.066  0.00  0.00    +0.000 N 
ATOM     10  C   UNL     1      -2.264  10.705  17.920  0.00  0.00    +0.000 A 
ATOM     11  C   UNL     1      -2.026   9.746  16.933  0.00  0.00    +0.000 A 
ATOM     12  C   UNL     1      -2.825   9.706  15.789  0.00  0.00    +0.000 A 
ATOM     13  C   UNL     1      -3.893  10.593  15.646  0.00  0.00    +0.000 A 
ATOM     14  C   UNL     1      -4.191  11.504  16.660  0.00  0.00    +0.000 A 
ATOM     15  C   UNL     1      -3.383  11.553  17.795  0.00  0.00    +0.000 A 
ATOM     16  N   UNL     1      -3.678  12.462  18.823  0.00  0.00    +0.000 N 
ATOM     17  C   UNL     1      -2.815  12.672  19.881  0.00  0.00    +0.000 C 
ATOM     18  O   UNL     1      -3.151  13.379  20.827  0.00  0.00    +0.000 OA
ATOM     19  H   UNL     1      -0.546  10.304  18.922  0.00  0.00    +0.000 HD
ATOM     20  H   UNL     1      -4.566  12.940  18.852  0.00  0.00    +0.000 HD
ENDROOT
BRANCH   1  23
ATOM     21  C   UNL     1       2.575  17.125  19.005  0.00  0.00    +0.000 A 
ATOM     22  C   UNL     1       2.173  16.022  19.733  0.00  0.00    +0.000 A 
ATOM     23  C   UNL     1       2.893  14.840  19.603  0.00  0.00    +0.000 A 
ATOM     24  C   UNL     1       4.063  14.847  18.841  0.00  0.00    +0.000 A 
ATOM     25  C   UNL     1       4.415  16.020  18.195  0.00  0.00    +0.000 A 
ATOM     26  N   UNL     1       3.680  17.153  18.236  0.00  0.00    +0.000 NA
BRANCH  21  28
ATOM     27  C   UNL     1       0.661  18.173  18.154  0.00  0.00    +0.000 C 
ATOM     28  O   UNL     1       1.741  18.223  19.079  0.00  0.00    +0.000 OA
ENDBRANCH  21  28
ENDBRANCH   1  23
TORSDOF 2
ENDMDL
MODEL 8
REMARK VINA RESULT:      -7.0      6.042      8.249
REMARK  Name = 
REMARK  3 active torsions:
REMARK  status: ('A' for Active; 'I' for Inactive)
REMARK    1  A    between atoms: C_1  and  O_2
REMARK    2  A    between atoms: O_2  and  C_3
REMARK    3  A    between atoms: C_5  and  C_6
REMARK                            x       y       z     vdW  Elec       q    Type
REMARK                         _______ _______ _______ _____ _____    ______ ____
ROOT
ATOM      1  C   UNL     1       2.237  13.766  20.631  0.00  0.00    +0.000 C 
ATOM      2  O   UNL     1       2.958  13.421  21.567  0.00  0.00    +0.000 OA
ATOM      3  N   UNL     1       1.217  12.950  20.141  0.00  0.00    +0.000 N 
ATOM      4  C   UNL     1       0.791  11.792  20.923  0.00  0.00    +0.000 C 
ATOM      5  C   UNL     1      -0.728  11.818  21.124  0.00  0.00    +0.000 C 
ATOM      6  C   UNL     1      -1.500  11.989  19.799  0.00  0.00    +0.000 C 
ATOM      7  C   UNL     1      -0.897  13.156  18.969  0.00  0.00    +0.000 C 
ATOM      8  C   UNL     1       0.608  13.028  18.819  0.00  0.00    +0.000 C 
ATOM      9  N   UNL     1      -1.440  10.714  19.034  0.00  0.00    +0.000 N 
ATOM     10  C   UNL     1      -2.264  10.720  17.890  0.00  0.00    +0.000 A 
ATOM     11  C   UNL     1      -1.943   9.915  16.795  0.00  0.00    +0.000 A 
ATOM     12  C   UNL     1      -2.747   9.931  15.653  0.00  0.00    +0.000 A 
ATOM     13  C   UNL     1      -3.899  10.717  15.618  0.00  0.00    +0.000 A 
ATOM     14  C   UNL     1      -4.275  11.466  16.733  0.00  0.00    +0.000 A 
ATOM     15  C   UNL     1      -3.464  11.460  17.866  0.00  0.00    +0.000 A 
ATOM     16  N   UNL     1      -3.836  12.206  18.996  0.00  0.00    +0.000 N 
ATOM     17  C   UNL     1      -2.987  12.374  20.071  0.00  0.00    +0.000 C 
ATOM     18  O   UNL     1      -3.380  12.925  21.096  0.00  0.00    +0.000 OA
ATOM     19  H   UNL     1      -0.503  10.378  18.837  0.00  0.00    +0.000 HD
ATOM     20  H   UNL     1      -4.767  12.586  19.082  0.00  0.00    +0.000 HD
ENDROOT
BRANCH   1  23
ATOM     21  C   UNL     1       3.795  16.749  18.923  0.00  0.00    +0.000 A 
ATOM     22  C   UNL     1       3.652  15.462  19.403  0.00  0.00    +0.000 A 
ATOM     23  C   UNL     1       2.473  15.123  20.058  0.00  0.00    +0.000 A 
ATOM     24  C   UNL     1       1.434  16.054  20.095  0.00  0.00    +0.000 A 
ATOM     25  C   UNL     1       1.653  17.300  19.533  0.00  0.00    +0.000 A 
ATOM     26  N   UNL     1       2.822  17.679  18.972  0.00  0.00    +0.000 NA
BRANCH  21  28
ATOM     27  C   UNL     1       6.102  16.362  19.040  0.00  0.00    +0.000 C 
ATOM     28  O   UNL     1       5.036  17.057  18.403  0.00  0.00    +0.000 OA
ENDBRANCH  21  28
ENDBRANCH   1  23
TORSDOF 2
ENDMDL
MODEL 9
REMARK VINA RESULT:      -6.8      2.907      8.601
REMARK  Name = 
REMARK  3 active torsions:
REMARK  status: ('A' for Active; 'I' for Inactive)
REMARK    1  A    between atoms: C_1  and  O_2
REMARK    2  A    between atoms: O_2  and  C_3
REMARK    3  A    between atoms: C_5  and  C_6
REMARK                            x       y       z     vdW  Elec       q    Type
REMARK                         _______ _______ _______ _____ _____    ______ ____
ROOT
ATOM      1  C   UNL     1       1.245  10.659  18.855  0.00  0.00    +0.000 C 
ATOM      2  O   UNL     1       2.191  11.408  18.617  0.00  0.00    +0.000 OA
ATOM      3  N   UNL     1      -0.077  11.100  18.819  0.00  0.00    +0.000 N 
ATOM      4  C   UNL     1      -0.384  12.391  18.208  0.00  0.00    +0.000 C 
ATOM      5  C   UNL     1      -1.488  12.233  17.158  0.00  0.00    +0.000 C 
ATOM      6  C   UNL     1      -2.729  11.497  17.707  0.00  0.00    +0.000 C 
ATOM      7  C   UNL     1      -2.303  10.205  18.456  0.00  0.00    +0.000 C 
ATOM      8  C   UNL     1      -1.215  10.474  19.481  0.00  0.00    +0.000 C 
ATOM      9  N   UNL     1      -3.473  12.412  18.617  0.00  0.00    +0.000 N 
ATOM     10  C   UNL     1      -4.714  11.887  19.029  0.00  0.00    +0.000 A 
ATOM     11  C   UNL     1      -5.269  12.284  20.247  0.00  0.00    +0.000 A 
ATOM     12  C   UNL     1      -6.490  11.753  20.668  0.00  0.00    +0.000 A 
ATOM     13  C   UNL     1      -7.184  10.858  19.853  0.00  0.00    +0.000 A 
ATOM     14  C   UNL     1      -6.680  10.512  18.599  0.00  0.00    +0.000 A 
ATOM     15  C   UNL     1      -5.454  11.031  18.187  0.00  0.00    +0.000 A 
ATOM     16  N   UNL     1      -4.941  10.693  16.925  0.00  0.00    +0.000 N 
ATOM     17  C   UNL     1      -3.659  11.037  16.543  0.00  0.00    +0.000 C 
ATOM     18  O   UNL     1      -3.278  10.839  15.392  0.00  0.00    +0.000 OA
ATOM     19  H   UNL     1      -2.928  12.780  19.390  0.00  0.00    +0.000 HD
ATOM     20  H   UNL     1      -5.523  10.247  16.232  0.00  0.00    +0.000 HD
ENDROOT
BRANCH   1  23
ATOM     21  C   UNL     1       2.481   7.102  18.588  0.00  0.00    +0.000 A 
ATOM     22  C   UNL     1       2.242   8.418  18.243  0.00  0.00    +0.000 A 
ATOM     23  C   UNL     1       1.568   9.232  19.147  0.00  0.00    +0.000 A 
ATOM     24  C   UNL     1       1.270   8.725  20.413  0.00  0.00    +0.000 A 
ATOM     25  C   UNL     1       1.602   7.409  20.685  0.00  0.00    +0.000 A 
ATOM     26  N   UNL     1       2.176   6.576  19.789  0.00  0.00    +0.000 NA
BRANCH  21  28
ATOM     27  C   UNL     1       4.351   5.872  17.899  0.00  0.00    +0.000 C 
ATOM     28  O   UNL     1       3.034   6.317  17.596  0.00  0.00    +0.000 OA
ENDBRANCH  21  28
ENDBRANCH   1  23
TORSDOF 2
ENDMDL
