MODEL 1
REMARK VINA RESULT:      -8.0      0.000      0.000
REMARK  Name = 
REMARK  9 active torsions:
REMARK  status: ('A' for Active; 'I' for Inactive)
REMARK    1  A    between atoms: C_1  and  C_2
REMARK    2  A    between atoms: C_2  and  C_3
REMARK    3  A    between atoms: C_3  and  C_4
REMARK    4  A    between atoms: C_4  and  N_5
REMARK    5  A    between atoms: C_6  and  C_8
REMARK    6  A    between atoms: C_8  and  N_9
REMARK    7  A    between atoms: C_8  and  C_18
REMARK    8  A    between atoms: C_10  and  C_12
REMARK    9  A    between atoms: C_18  and  C_20
REMARK                            x       y       z     vdW  Elec       q    Type
REMARK                         _______ _______ _______ _____ _____    ______ ____
ROOT
ATOM      1  C   UNL     1       6.001   4.458  17.344  0.00  0.00    +0.000 C 
ENDROOT
BRANCH   1   3
ATOM      2  N   UNL     1       7.138   6.561  17.974  0.00  0.00    +0.000 N 
ATOM      3  C   UNL     1       7.202   5.181  17.969  0.00  0.00    +0.000 C 
ATOM      4  O   UNL     1       8.138   4.567  18.479  0.00  0.00    +0.000 OA
ATOM      5  H   UNL     1       6.371   7.029  17.499  0.00  0.00    +0.000 HD
BRANCH   2   6
ATOM      6  C   UNL     1       8.237   7.371  18.461  0.00  0.00    +0.000 C 
BRANCH   6   7
ATOM      7  C   UNL     1       8.170   8.814  17.956  0.00  0.00    +0.000 C 
BRANCH   7   9
ATOM      8  C   UNL     1       9.552  10.924  18.082  0.00  0.00    +0.000 C 
ATOM      9  C   UNL     1       8.923   9.785  18.868  0.00  0.00    +0.000 C 
ENDBRANCH   7   9
ENDBRANCH   6   7
ENDBRANCH   2   6
ENDBRANCH   1   3
BRANCH   1  10
ATOM     10  N   UNL     1       4.948   4.314  18.355  0.00  0.00    +0.000 N 
ATOM     11  C   UNL     1       4.042   3.275  18.303  0.00  0.00    +0.000 C 
ATOM     12  O   UNL     1       3.994   2.473  17.373  0.00  0.00    +0.000 OA
ATOM     13  H   UNL     1       4.944   4.917  19.174  0.00  0.00    +0.000 HD
BRANCH  11  14
ATOM     14  C   UNL     1       3.087   3.163  19.442  0.00  0.00    +0.000 A 
ATOM     15  C   UNL     1       3.543   2.695  20.670  0.00  0.00    +0.000 A 
ATOM     16  N   UNL     1       2.723   2.551  21.745  0.00  0.00    +0.000 NA
ATOM     17  C   UNL     1       1.432   2.893  21.535  0.00  0.00    +0.000 A 
ATOM     18  C   UNL     1       0.978   3.364  20.309  0.00  0.00    +0.000 A 
ATOM     19  N   UNL     1       1.787   3.516  19.230  0.00  0.00    +0.000 NA
ENDBRANCH  11  14
ENDBRANCH   1  10
BRANCH   1  20
ATOM     20  C   UNL     1       5.470   5.185  16.112  0.00  0.00    +0.000 C 
ATOM     21  O   UNL     1       4.696   6.142  16.200  0.00  0.00    +0.000 OA
BRANCH  20  22
ATOM     22  C   UNL     1       5.957   4.772  14.762  0.00  0.00    +0.000 A 
ATOM     23  C   UNL     1       7.161   5.317  14.297  0.00  0.00    +0.000 A 
ATOM     24  C   UNL     1       7.657   4.965  13.039  0.00  0.00    +0.000 A 
ATOM     25  C   UNL     1       6.962   4.053  12.247  0.00  0.00    +0.000 A 
ATOM     26  C   UNL     1       5.776   3.488  12.713  0.00  0.00    +0.000 A 
ATOM     27  C   UNL     1       5.270   3.845  13.967  0.00  0.00    +0.000 A 
ENDBRANCH  20  22
ENDBRANCH   1  20
TORSDOF 8
ENDMDL
MODEL 2
REMARK VINA RESULT:      -7.9      0.597      1.399
REMARK  Name = 
REMARK  9 active torsions:
REMARK  status: ('A' for Active; 'I' for Inactive)
REMARK    1  A    between atoms: C_1  and  C_2
REMARK    2  A    between atoms: C_2  and  C_3
REMARK    3  A    between atoms: C_3  and  C_4
REMARK    4  A    between atoms: C_4  and  N_5
REMARK    5  A    between atoms: C_6  and  C_8
REMARK    6  A    between atoms: C_8  and  N_9
REMARK    7  A    between atoms: C_8  and  C_18
REMARK    8  A    between atoms: C_10  and  C_12
REMARK    9  A    between atoms: C_18  and  C_20
REMARK                            x       y       z     vdW  Elec       q    Type
REMARK                         _______ _______ _______ _____ _____    ______ ____
ROOT
ATOM      1  C   UNL     1       5.965   4.416  17.069  0.00  0.00    +0.000 C 
ENDROOT
BRANCH   1   3
ATOM      2  N   UNL     1       7.055   6.426  18.010  0.00  0.00    +0.000 N 
ATOM      3  C   UNL     1       7.184   5.081  17.724  0.00  0.00    +0.000 C 
ATOM      4  O   UNL     1       8.193   4.442  18.020  0.00  0.00    +0.000 OA
ATOM      5  H   UNL     1       6.224   6.927  17.705  0.00  0.00    +0.000 HD
BRANCH   2   6
ATOM      6  C   UNL     1       8.155   7.196  18.557  0.00  0.00    +0.000 C 
BRANCH   6   7
ATOM      7  C   UNL     1       8.246   8.598  17.952  0.00  0.00    +0.000 C 
BRANCH   7   9
ATOM      8  C   UNL     1       9.281  10.891  18.181  0.00  0.00    +0.000 C 
ATOM      9  C   UNL     1       8.929   9.593  18.893  0.00  0.00    +0.000 C 
ENDBRANCH   7   9
ENDBRANCH   6   7
ENDBRANCH   2   6
ENDBRANCH   1   3
BRANCH   1  10
ATOM     10  N   UNL     1       4.874   4.346  18.046  0.00  0.00    +0.000 N 
ATOM     11  C   UNL     1       4.090   3.217  18.165  0.00  0.00    +0.000 C 
ATOM     12  O   UNL     1       4.185   2.252  17.409  0.00  0.00    +0.000 OA
ATOM     13  H   UNL     1       4.756   5.089  18.730  0.00  0.00    +0.000 HD
BRANCH  11  14
ATOM     14  C   UNL     1       3.085   3.213  19.266  0.00  0.00    +0.000 A 
ATOM     15  C   UNL     1       1.839   3.794  19.053  0.00  0.00    +0.000 A 
ATOM     16  N   UNL     1       0.883   3.840  20.019  0.00  0.00    +0.000 NA
ATOM     17  C   UNL     1       1.230   3.285  21.201  0.00  0.00    +0.000 A 
ATOM     18  C   UNL     1       2.473   2.702  21.411  0.00  0.00    +0.000 A 
ATOM     19  N   UNL     1       3.434   2.644  20.455  0.00  0.00    +0.000 NA
ENDBRANCH  11  14
ENDBRANCH   1  10
BRANCH   1  20
ATOM     20  C   UNL     1       5.515   5.155  15.811  0.00  0.00    +0.000 C 
ATOM     21  O   UNL     1       4.756   6.126  15.859  0.00  0.00    +0.000 OA
BRANCH  20  22
ATOM     22  C   UNL     1       6.066   4.733  14.489  0.00  0.00    +0.000 A 
ATOM     23  C   UNL     1       5.325   3.822  13.722  0.00  0.00    +0.000 A 
ATOM     24  C   UNL     1       5.800   3.393  12.481  0.00  0.00    +0.000 A 
ATOM     25  C   UNL     1       7.008   3.885  11.989  0.00  0.00    +0.000 A 
ATOM     26  C   UNL     1       7.738   4.809  12.734  0.00  0.00    +0.000 A 
ATOM     27  C   UNL     1       7.273   5.234  13.983  0.00  0.00    +0.000 A 
ENDBRANCH  20  22
ENDBRANCH   1  20
TORSDOF 8
ENDMDL
MODEL 3
REMARK VINA RESULT:      -7.8      2.716      7.146
REMARK  Name = 
REMARK  9 active torsions:
REMARK  status: ('A' for Active; 'I' for Inactive)
REMARK    1  A    between atoms: C_1  and  C_2
REMARK    2  A    between atoms: C_2  and  C_3
REMARK    3  A    between atoms: C_3  and  C_4
REMARK    4  A    between atoms: C_4  and  N_5
REMARK    5  A    between atoms: C_6  and  C_8
REMARK    6  A    between atoms: C_8  and  N_9
REMARK    7  A    between atoms: C_8  and  C_18
REMARK    8  A    between atoms: C_10  and  C_12
REMARK    9  A    between atoms: C_18  and  C_20
REMARK                            x       y       z     vdW  Elec       q    Type
REMARK                         _______ _______ _______ _____ _____    ______ ____
ROOT
ATOM      1  C   UNL     1       5.627   3.847  18.268  0.00  0.00    +0.000 C 
ENDROOT
BRANCH   1   3
ATOM      2  N   UNL     1       3.366   3.097  17.608  0.00  0.00    +0.000 N 
ATOM      3  C   UNL     1       4.381   2.993  18.538  0.00  0.00    +0.000 C 
ATOM      4  O   UNL     1       4.315   2.226  19.498  0.00  0.00    +0.000 OA
ATOM      5  H   UNL     1       3.441   3.778  16.857  0.00  0.00    +0.000 HD
BRANCH   2   6
ATOM      6  C   UNL     1       2.103   2.407  17.780  0.00  0.00    +0.000 C 
BRANCH   6   7
ATOM      7  C   UNL     1       1.063   3.260  18.508  0.00  0.00    +0.000 C 
BRANCH   7   9
ATOM      8  C   UNL     1       1.378   3.458  21.006  0.00  0.00    +0.000 C 
ATOM      9  C   UNL     1       0.701   2.690  19.881  0.00  0.00    +0.000 C 
ENDBRANCH   7   9
ENDBRANCH   6   7
ENDBRANCH   2   6
ENDBRANCH   1   3
BRANCH   1  10
ATOM     10  N   UNL     1       5.761   4.059  16.822  0.00  0.00    +0.000 N 
ATOM     11  C   UNL     1       6.979   4.362  16.252  0.00  0.00    +0.000 C 
ATOM     12  O   UNL     1       7.996   4.570  16.912  0.00  0.00    +0.000 OA
ATOM     13  H   UNL     1       4.973   3.870  16.207  0.00  0.00    +0.000 HD
BRANCH  11  14
ATOM     14  C   UNL     1       7.020   4.444  14.763  0.00  0.00    +0.000 A 
ATOM     15  C   UNL     1       6.176   3.632  14.014  0.00  0.00    +0.000 A 
ATOM     16  N   UNL     1       6.173   3.643  12.654  0.00  0.00    +0.000 NA
ATOM     17  C   UNL     1       7.051   4.497  12.083  0.00  0.00    +0.000 A 
ATOM     18  C   UNL     1       7.891   5.311  12.833  0.00  0.00    +0.000 A 
ATOM     19  N   UNL     1       7.900   5.313  14.190  0.00  0.00    +0.000 NA
ENDBRANCH  11  14
ENDBRANCH   1  10
BRANCH   1  20
ATOM     20  C   UNL     1       5.579   5.183  19.005  0.00  0.00    +0.000 C 
ATOM     21  O   UNL     1       6.513   5.576  19.709  0.00  0.00    +0.000 OA
BRANCH  20  22
ATOM     22  C   UNL     1       4.396   6.073  18.811  0.00  0.00    +0.000 A 
ATOM     23  C   UNL     1       4.353   6.880  17.666  0.00  0.00    +0.000 A 
ATOM     24  C   UNL     1       3.271   7.733  17.441  0.00  0.00    +0.000 A 
ATOM     25  C   UNL     1       2.214   7.772  18.350  0.00  0.00    +0.000 A 
ATOM     26  C   UNL     1       2.237   6.955  19.479  0.00  0.00    +0.000 A 
ATOM     27  C   UNL     1       3.325   6.107  19.714  0.00  0.00    +0.000 A 
ENDBRANCH  20  22
ENDBRANCH   1  20
TORSDOF 8
ENDMDL
MODEL 4
REMARK VINA RESULT:      -7.6      3.198      7.315
REMARK  Name = 
REMARK  9 active torsions:
REMARK  status: ('A' for Active; 'I' for Inactive)
REMARK    1  A    between atoms: C_1  and  C_2
REMARK    2  A    between atoms: C_2  and  C_3
REMARK    3  A    between atoms: C_3  and  C_4
REMARK    4  A    between atoms: C_4  and  N_5
REMARK    5  A    between atoms: C_6  and  C_8
REMARK    6  A    between atoms: C_8  and  N_9
REMARK    7  A    between atoms: C_8  and  C_18
REMARK    8  A    between atoms: C_10  and  C_12
REMARK    9  A    between atoms: C_18  and  C_20
REMARK                            x       y       z     vdW  Elec       q    Type
REMARK                         _______ _______ _______ _____ _____    ______ ____
ROOT
ATOM      1  C   UNL     1       4.391   5.761  17.928  0.00  0.00    +0.000 C 
ENDROOT
BRANCH   1   3
ATOM      2  N   UNL     1       4.127   3.587  19.074  0.00  0.00    +0.000 N 
ATOM      3  C   UNL     1       4.882   4.737  18.960  0.00  0.00    +0.000 C 
ATOM      4  O   UNL     1       5.914   4.910  19.608  0.00  0.00    +0.000 OA
ATOM      5  H   UNL     1       3.256   3.504  18.555  0.00  0.00    +0.000 HD
BRANCH   2   6
ATOM      6  C   UNL     1       4.431   2.572  20.063  0.00  0.00    +0.000 C 
BRANCH   6   7
ATOM      7  C   UNL     1       3.245   2.278  20.985  0.00  0.00    +0.000 C 
BRANCH   7   9
ATOM      8  C   UNL     1       1.037   3.453  20.634  0.00  0.00    +0.000 C 
ATOM      9  C   UNL     1       2.413   3.528  21.278  0.00  0.00    +0.000 C 
ENDBRANCH   7   9
ENDBRANCH   6   7
ENDBRANCH   2   6
ENDBRANCH   1   3
BRANCH   1  10
ATOM     10  N   UNL     1       4.805   5.329  16.588  0.00  0.00    +0.000 N 
ATOM     11  C   UNL     1       6.028   5.690  16.065  0.00  0.00    +0.000 C 
ATOM     12  O   UNL     1       6.798   6.464  16.631  0.00  0.00    +0.000 OA
ATOM     13  H   UNL     1       4.238   4.659  16.074  0.00  0.00    +0.000 HD
BRANCH  11  14
ATOM     14  C   UNL     1       6.391   5.103  14.743  0.00  0.00    +0.000 A 
ATOM     15  C   UNL     1       5.561   4.142  14.175  0.00  0.00    +0.000 A 
ATOM     16  N   UNL     1       5.841   3.553  12.981  0.00  0.00    +0.000 NA
ATOM     17  C   UNL     1       6.983   3.964  12.389  0.00  0.00    +0.000 A 
ATOM     18  C   UNL     1       7.810   4.926  12.956  0.00  0.00    +0.000 A 
ATOM     19  N   UNL     1       7.540   5.526  14.144  0.00  0.00    +0.000 NA
ENDBRANCH  11  14
ENDBRANCH   1  10
BRANCH   1  20
ATOM     20  C   UNL     1       2.878   5.956  17.987  0.00  0.00    +0.000 C 
ATOM     21  O   UNL     1       2.091   5.090  17.598  0.00  0.00    +0.000 OA
BRANCH  20  22
ATOM     22  C   UNL     1       2.335   7.204  18.601  0.00  0.00    +0.000 A 
ATOM     23  C   UNL     1       2.131   8.316  17.772  0.00  0.00    +0.000 A 
ATOM     24  C   UNL     1       1.628   9.508  18.299  0.00  0.00    +0.000 A 
ATOM     25  C   UNL     1       1.309   9.591  19.654  0.00  0.00    +0.000 A 
ATOM     26  C   UNL     1       1.486   8.482  20.480  0.00  0.00    +0.000 A 
ATOM     27  C   UNL     1       1.999   7.289  19.959  0.00  0.00    +0.000 A 
ENDBRANCH  20  22
ENDBRANCH   1  20
TORSDOF 8
ENDMDL
MODEL 5
REMARK VINA RESULT:      -7.6      3.082      7.358
REMARK  Name = 
REMARK  9 active torsions:
REMARK  status: ('A' for Active; 'I' for Inactive)
REMARK    1  A    between atoms: C_1  and  C_2
REMARK    2  A    between atoms: C_2  and  C_3
REMARK    3  A    between atoms: C_3  and  C_4
REMARK    4  A    between atoms: C_4  and  N_5
REMARK    5  A    between atoms: C_6  and  C_8
REMARK    6  A    between atoms: C_8  and  N_9
REMARK    7  A    between atoms: C_8  and  C_18
REMARK    8  A    between atoms: C_10  and  C_12
REMARK    9  A    between atoms: C_18  and  C_20
REMARK                            x       y       z     vdW  Elec       q    Type
REMARK                         _______ _______ _______ _____ _____    ______ ____
ROOT
ATOM      1  C   UNL     1       4.470   5.463  17.905  0.00  0.00    +0.000 C 
ENDROOT
BRANCH   1   3
ATOM      2  N   UNL     1       4.076   3.370  19.160  0.00  0.00    +0.000 N 
ATOM      3  C   UNL     1       4.936   4.427  18.937  0.00  0.00    +0.000 C 
ATOM      4  O   UNL     1       6.032   4.508  19.492  0.00  0.00    +0.000 OA
ATOM      5  H   UNL     1       3.161   3.365  18.717  0.00  0.00    +0.000 HD
BRANCH   2   6
ATOM      6  C   UNL     1       4.354   2.361  20.163  0.00  0.00    +0.000 C 
BRANCH   6   7
ATOM      7  C   UNL     1       3.216   2.210  21.173  0.00  0.00    +0.000 C 
BRANCH   7   9
ATOM      8  C   UNL     1       1.152   3.660  21.029  0.00  0.00    +0.000 C 
ATOM      9  C   UNL     1       1.839   2.398  20.531  0.00  0.00    +0.000 C 
ENDBRANCH   7   9
ENDBRANCH   6   7
ENDBRANCH   2   6
ENDBRANCH   1   3
BRANCH   1  10
ATOM     10  N   UNL     1       4.898   5.036  16.568  0.00  0.00    +0.000 N 
ATOM     11  C   UNL     1       5.940   5.660  15.916  0.00  0.00    +0.000 C 
ATOM     12  O   UNL     1       6.506   6.659  16.357  0.00  0.00    +0.000 OA
ATOM     13  H   UNL     1       4.502   4.196  16.153  0.00  0.00    +0.000 HD
BRANCH  11  14
ATOM     14  C   UNL     1       6.362   5.072  14.612  0.00  0.00    +0.000 A 
ATOM     15  C   UNL     1       5.557   4.114  14.006  0.00  0.00    +0.000 A 
ATOM     16  N   UNL     1       5.890   3.524  12.826  0.00  0.00    +0.000 NA
ATOM     17  C   UNL     1       7.060   3.933  12.288  0.00  0.00    +0.000 A 
ATOM     18  C   UNL     1       7.862   4.893  12.893  0.00  0.00    +0.000 A 
ATOM     19  N   UNL     1       7.539   5.492  14.067  0.00  0.00    +0.000 NA
ENDBRANCH  11  14
ENDBRANCH   1  10
BRANCH   1  20
ATOM     20  C   UNL     1       2.959   5.674  17.946  0.00  0.00    +0.000 C 
ATOM     21  O   UNL     1       2.166   4.798  17.591  0.00  0.00    +0.000 OA
BRANCH  20  22
ATOM     22  C   UNL     1       2.423   6.954  18.497  0.00  0.00    +0.000 A 
ATOM     23  C   UNL     1       2.131   7.015  19.867  0.00  0.00    +0.000 A 
ATOM     24  C   UNL     1       1.623   8.188  20.430  0.00  0.00    +0.000 A 
ATOM     25  C   UNL     1       1.420   9.313  19.632  0.00  0.00    +0.000 A 
ATOM     26  C   UNL     1       1.731   9.268  18.274  0.00  0.00    +0.000 A 
ATOM     27  C   UNL     1       2.230   8.092  17.703  0.00  0.00    +0.000 A 
ENDBRANCH  20  22
ENDBRANCH   1  20
TORSDOF 8
ENDMDL
MODEL 6
REMARK VINA RESULT:      -7.6      2.766      7.359
REMARK  Name = 
REMARK  9 active torsions:
REMARK  status: ('A' for Active; 'I' for Inactive)
REMARK    1  A    between atoms: C_1  and  C_2
REMARK    2  A    between atoms: C_2  and  C_3
REMARK    3  A    between atoms: C_3  and  C_4
REMARK    4  A    between atoms: C_4  and  N_5
REMARK    5  A    between atoms: C_6  and  C_8
REMARK    6  A    between atoms: C_8  and  N_9
REMARK    7  A    between atoms: C_8  and  C_18
REMARK    8  A    between atoms: C_10  and  C_12
REMARK    9  A    between atoms: C_18  and  C_20
REMARK                            x       y       z     vdW  Elec       q    Type
REMARK                         _______ _______ _______ _____ _____    ______ ____
ROOT
ATOM      1  C   UNL     1       4.770   3.677  17.717  0.00  0.00    +0.000 C 
ENDROOT
BRANCH   1   3
ATOM      2  N   UNL     1       2.872   2.535  18.814  0.00  0.00    +0.000 N 
ATOM      3  C   UNL     1       3.309   3.211  17.692  0.00  0.00    +0.000 C 
ATOM      4  O   UNL     1       2.560   3.470  16.750  0.00  0.00    +0.000 OA
ATOM      5  H   UNL     1       3.535   2.300  19.548  0.00  0.00    +0.000 HD
BRANCH   2   6
ATOM      6  C   UNL     1       1.539   1.971  18.892  0.00  0.00    +0.000 C 
BRANCH   6   7
ATOM      7  C   UNL     1       0.575   2.856  19.685  0.00  0.00    +0.000 C 
BRANCH   7   9
ATOM      8  C   UNL     1       1.525   2.601  22.011  0.00  0.00    +0.000 C 
ATOM      9  C   UNL     1       1.261   3.558  20.858  0.00  0.00    +0.000 C 
ENDBRANCH   7   9
ENDBRANCH   6   7
ENDBRANCH   2   6
ENDBRANCH   1   3
BRANCH   1  10
ATOM     10  N   UNL     1       5.190   4.018  16.354  0.00  0.00    +0.000 N 
ATOM     11  C   UNL     1       6.518   4.224  16.042  0.00  0.00    +0.000 C 
ATOM     12  O   UNL     1       7.411   4.234  16.887  0.00  0.00    +0.000 OA
ATOM     13  H   UNL     1       4.514   3.994  15.594  0.00  0.00    +0.000 HD
BRANCH  11  14
ATOM     14  C   UNL     1       6.840   4.453  14.605  0.00  0.00    +0.000 A 
ATOM     15  C   UNL     1       6.198   3.693  13.633  0.00  0.00    +0.000 A 
ATOM     16  N   UNL     1       6.457   3.838  12.306  0.00  0.00    +0.000 NA
ATOM     17  C   UNL     1       7.386   4.770  11.999  0.00  0.00    +0.000 A 
ATOM     18  C   UNL     1       8.025   5.531  12.970  0.00  0.00    +0.000 A 
ATOM     19  N   UNL     1       7.772   5.400  14.297  0.00  0.00    +0.000 NA
ENDBRANCH  11  14
ENDBRANCH   1  10
BRANCH   1  20
ATOM     20  C   UNL     1       4.979   4.862  18.657  0.00  0.00    +0.000 C 
ATOM     21  O   UNL     1       5.962   4.944  19.398  0.00  0.00    +0.000 OA
BRANCH  20  22
ATOM     22  C   UNL     1       4.001   5.990  18.626  0.00  0.00    +0.000 A 
ATOM     23  C   UNL     1       4.017   6.852  17.520  0.00  0.00    +0.000 A 
ATOM     24  C   UNL     1       3.126   7.924  17.446  0.00  0.00    +0.000 A 
ATOM     25  C   UNL     1       2.200   8.132  18.468  0.00  0.00    +0.000 A 
ATOM     26  C   UNL     1       2.162   7.266  19.559  0.00  0.00    +0.000 A 
ATOM     27  C   UNL     1       3.060   6.197  19.644  0.00  0.00    +0.000 A 
ENDBRANCH  20  22
ENDBRANCH   1  20
TORSDOF 8
ENDMDL
MODEL 7
REMARK VINA RESULT:      -7.5      1.166      1.535
REMARK  Name = 
REMARK  9 active torsions:
REMARK  status: ('A' for Active; 'I' for Inactive)
REMARK    1  A    between atoms: C_1  and  C_2
REMARK    2  A    between atoms: C_2  and  C_3
REMARK    3  A    between atoms: C_3  and  C_4
REMARK    4  A    between atoms: C_4  and  N_5
REMARK    5  A    between atoms: C_6  and  C_8
REMARK    6  A    between atoms: C_8  and  N_9
REMARK    7  A    between atoms: C_8  and  C_18
REMARK    8  A    between atoms: C_10  and  C_12
REMARK    9  A    between atoms: C_18  and  C_20
REMARK                            x       y       z     vdW  Elec       q    Type
REMARK                         _______ _______ _______ _____ _____    ______ ____
ROOT
ATOM      1  C   UNL     1       6.669   4.516  16.855  0.00  0.00    +0.000 C 
ENDROOT
BRANCH   1   3
ATOM      2  N   UNL     1       7.488   6.708  17.653  0.00  0.00    +0.000 N 
ATOM      3  C   UNL     1       7.399   5.354  17.912  0.00  0.00    +0.000 C 
ATOM      4  O   UNL     1       7.833   4.857  18.951  0.00  0.00    +0.000 OA
ATOM      5  H   UNL     1       7.159   7.070  16.761  0.00  0.00    +0.000 HD
BRANCH   2   6
ATOM      6  C   UNL     1       8.217   7.604  18.528  0.00  0.00    +0.000 C 
BRANCH   6   7
ATOM      7  C   UNL     1       8.247   9.040  18.002  0.00  0.00    +0.000 C 
BRANCH   7   9
ATOM      8  C   UNL     1       9.302  11.325  18.221  0.00  0.00    +0.000 C 
ATOM      9  C   UNL     1       9.130   9.954  18.855  0.00  0.00    +0.000 C 
ENDBRANCH   7   9
ENDBRANCH   6   7
ENDBRANCH   2   6
ENDBRANCH   1   3
BRANCH   1  10
ATOM     10  N   UNL     1       5.506   3.870  17.473  0.00  0.00    +0.000 N 
ATOM     11  C   UNL     1       4.573   4.599  18.179  0.00  0.00    +0.000 C 
ATOM     12  O   UNL     1       4.700   5.797  18.420  0.00  0.00    +0.000 OA
ATOM     13  H   UNL     1       5.314   2.888  17.288  0.00  0.00    +0.000 HD
BRANCH  11  14
ATOM     14  C   UNL     1       3.374   3.857  18.667  0.00  0.00    +0.000 A 
ATOM     15  C   UNL     1       2.336   3.584  17.783  0.00  0.00    +0.000 A 
ATOM     16  N   UNL     1       1.208   2.928  18.165  0.00  0.00    +0.000 NA
ATOM     17  C   UNL     1       1.166   2.563  19.465  0.00  0.00    +0.000 A 
ATOM     18  C   UNL     1       2.205   2.834  20.347  0.00  0.00    +0.000 A 
ATOM     19  N   UNL     1       3.338   3.483  19.978  0.00  0.00    +0.000 NA
ENDBRANCH  11  14
ENDBRANCH   1  10
BRANCH   1  20
ATOM     20  C   UNL     1       6.243   5.353  15.651  0.00  0.00    +0.000 C 
ATOM     21  O   UNL     1       5.768   6.485  15.777  0.00  0.00    +0.000 OA
BRANCH  20  22
ATOM     22  C   UNL     1       6.476   4.816  14.278  0.00  0.00    +0.000 A 
ATOM     23  C   UNL     1       7.541   5.339  13.532  0.00  0.00    +0.000 A 
ATOM     24  C   UNL     1       7.797   4.873  12.241  0.00  0.00    +0.000 A 
ATOM     25  C   UNL     1       7.002   3.867  11.693  0.00  0.00    +0.000 A 
ATOM     26  C   UNL     1       5.956   3.324  12.437  0.00  0.00    +0.000 A 
ATOM     27  C   UNL     1       5.688   3.795  13.727  0.00  0.00    +0.000 A 
ENDBRANCH  20  22
ENDBRANCH   1  20
TORSDOF 8
ENDMDL
MODEL 8
REMARK VINA RESULT:      -7.4      1.173      1.597
REMARK  Name = 
REMARK  9 active torsions:
REMARK  status: ('A' for Active; 'I' for Inactive)
REMARK    1  A    between atoms: C_1  and  C_2
REMARK    2  A    between atoms: C_2  and  C_3
REMARK    3  A    between atoms: C_3  and  C_4
REMARK    4  A    between atoms: C_4  and  N_5
REMARK    5  A    between atoms: C_6  and  C_8
REMARK    6  A    between atoms: C_8  and  N_9
REMARK    7  A    between atoms: C_8  and  C_18
REMARK    8  A    between atoms: C_10  and  C_12
REMARK    9  A    between atoms: C_18  and  C_20
REMARK                            x       y       z     vdW  Elec       q    Type
REMARK                         _______ _______ _______ _____ _____    ______ ____
ROOT
ATOM      1  C   UNL     1       6.778   4.570  16.979  0.00  0.00    +0.000 C 
ENDROOT
BRANCH   1   3
ATOM      2  N   UNL     1       7.532   6.814  17.691  0.00  0.00    +0.000 N 
ATOM      3  C   UNL     1       7.510   5.465  17.987  0.00  0.00    +0.000 C 
ATOM      4  O   UNL     1       8.004   5.013  19.020  0.00  0.00    +0.000 OA
ATOM      5  H   UNL     1       7.154   7.139  16.805  0.00  0.00    +0.000 HD
BRANCH   2   6
ATOM      6  C   UNL     1       8.254   7.762  18.515  0.00  0.00    +0.000 C 
BRANCH   6   7
ATOM      7  C   UNL     1       8.208   9.183  17.950  0.00  0.00    +0.000 C 
BRANCH   7   9
ATOM      8  C   UNL     1       9.040  11.559  18.168  0.00  0.00    +0.000 C 
ATOM      9  C   UNL     1       9.142  10.137  18.700  0.00  0.00    +0.000 C 
ENDBRANCH   7   9
ENDBRANCH   6   7
ENDBRANCH   2   6
ENDBRANCH   1   3
BRANCH   1  10
ATOM     10  N   UNL     1       5.676   3.882  17.660  0.00  0.00    +0.000 N 
ATOM     11  C   UNL     1       4.747   4.579  18.404  0.00  0.00    +0.000 C 
ATOM     12  O   UNL     1       4.833   5.785  18.626  0.00  0.00    +0.000 OA
ATOM     13  H   UNL     1       5.517   2.891  17.495  0.00  0.00    +0.000 HD
BRANCH  11  14
ATOM     14  C   UNL     1       3.607   3.792  18.958  0.00  0.00    +0.000 A 
ATOM     15  C   UNL     1       3.014   4.199  20.148  0.00  0.00    +0.000 A 
ATOM     16  N   UNL     1       1.983   3.519  20.718  0.00  0.00    +0.000 NA
ATOM     17  C   UNL     1       1.578   2.419  20.046  0.00  0.00    +0.000 A 
ATOM     18  C   UNL     1       2.169   2.016  18.854  0.00  0.00    +0.000 A 
ATOM     19  N   UNL     1       3.195   2.688  18.273  0.00  0.00    +0.000 NA
ENDBRANCH  11  14
ENDBRANCH   1  10
BRANCH   1  20
ATOM     20  C   UNL     1       6.260   5.359  15.779  0.00  0.00    +0.000 C 
ATOM     21  O   UNL     1       5.695   6.449  15.907  0.00  0.00    +0.000 OA
BRANCH  20  22
ATOM     22  C   UNL     1       6.510   4.832  14.405  0.00  0.00    +0.000 A 
ATOM     23  C   UNL     1       5.643   3.851  13.903  0.00  0.00    +0.000 A 
ATOM     24  C   UNL     1       5.836   3.323  12.625  0.00  0.00    +0.000 A 
ATOM     25  C   UNL     1       6.886   3.784  11.833  0.00  0.00    +0.000 A 
ATOM     26  C   UNL     1       7.739   4.776  12.314  0.00  0.00    +0.000 A 
ATOM     27  C   UNL     1       7.556   5.301  13.598  0.00  0.00    +0.000 A 
ENDBRANCH  20  22
ENDBRANCH   1  20
TORSDOF 8
ENDMDL
MODEL 9
REMARK VINA RESULT:      -7.2      2.667      7.071
REMARK  Name = 
REMARK  9 active torsions:
REMARK  status: ('A' for Active; 'I' for Inactive)
REMARK    1  A    between atoms: C_1  and  C_2
REMARK    2  A    between atoms: C_2  and  C_3
REMARK    3  A    between atoms: C_3  and  C_4
REMARK    4  A    between atoms: C_4  and  N_5
REMARK    5  A    between atoms: C_6  and  C_8
REMARK    6  A    between atoms: C_8  and  N_9
REMARK    7  A    between atoms: C_8  and  C_18
REMARK    8  A    between atoms: C_10  and  C_12
REMARK    9  A    between atoms: C_18  and  C_20
REMARK                            x       y       z     vdW  Elec       q    Type
REMARK                         _______ _______ _______ _____ _____    ______ ____
ROOT
ATOM      1  C   UNL     1       5.621   3.817  18.402  0.00  0.00    +0.000 C 
ENDROOT
BRANCH   1   3
ATOM      2  N   UNL     1       3.338   2.972  17.971  0.00  0.00    +0.000 N 
ATOM      3  C   UNL     1       4.424   2.955  18.824  0.00  0.00    +0.000 C 
ATOM      4  O   UNL     1       4.452   2.252  19.834  0.00  0.00    +0.000 OA
ATOM      5  H   UNL     1       3.337   3.602  17.173  0.00  0.00    +0.000 HD
BRANCH   2   6
ATOM      6  C   UNL     1       2.113   2.266  18.285  0.00  0.00    +0.000 C 
BRANCH   6   7
ATOM      7  C   UNL     1       0.941   3.214  18.549  0.00  0.00    +0.000 C 
BRANCH   7   9
ATOM      8  C   UNL     1       1.315   2.631  20.978  0.00  0.00    +0.000 C 
ATOM      9  C   UNL     1       0.917   3.719  19.993  0.00  0.00    +0.000 C 
ENDBRANCH   7   9
ENDBRANCH   6   7
ENDBRANCH   2   6
ENDBRANCH   1   3
BRANCH   1  10
ATOM     10  N   UNL     1       5.651   3.915  16.939  0.00  0.00    +0.000 N 
ATOM     11  C   UNL     1       6.791   4.310  16.271  0.00  0.00    +0.000 C 
ATOM     12  O   UNL     1       7.807   4.694  16.847  0.00  0.00    +0.000 OA
ATOM     13  H   UNL     1       4.862   3.581  16.392  0.00  0.00    +0.000 HD
BRANCH  11  14
ATOM     14  C   UNL     1       6.743   4.265  14.781  0.00  0.00    +0.000 A 
ATOM     15  C   UNL     1       7.627   5.049  14.047  0.00  0.00    +0.000 A 
ATOM     16  N   UNL     1       7.626   5.069  12.687  0.00  0.00    +0.000 NA
ATOM     17  C   UNL     1       6.702   4.277  12.100  0.00  0.00    +0.000 A 
ATOM     18  C   UNL     1       5.822   3.491  12.834  0.00  0.00    +0.000 A 
ATOM     19  N   UNL     1       5.816   3.458  14.191  0.00  0.00    +0.000 NA
ENDBRANCH  11  14
ENDBRANCH   1  10
BRANCH   1  20
ATOM     20  C   UNL     1       5.579   5.206  19.034  0.00  0.00    +0.000 C 
ATOM     21  O   UNL     1       6.494   5.630  19.746  0.00  0.00    +0.000 OA
BRANCH  20  22
ATOM     22  C   UNL     1       4.429   6.107  18.725  0.00  0.00    +0.000 A 
ATOM     23  C   UNL     1       3.386   6.196  19.658  0.00  0.00    +0.000 A 
ATOM     24  C   UNL     1       2.286   7.021  19.412  0.00  0.00    +0.000 A 
ATOM     25  C   UNL     1       2.229   7.776  18.242  0.00  0.00    +0.000 A 
ATOM     26  C   UNL     1       3.273   7.711  17.321  0.00  0.00    +0.000 A 
ATOM     27  C   UNL     1       4.372   6.878  17.556  0.00  0.00    +0.000 A 
ENDBRANCH  20  22
ENDBRANCH   1  20
TORSDOF 8
ENDMDL
