MODEL 1
REMARK VINA RESULT:      -6.9      0.000      0.000
REMARK  Name = 
REMARK  7 active torsions:
REMARK  status: ('A' for Active; 'I' for Inactive)
REMARK    1  A    between atoms: C_1  and  C_2
REMARK    2  A    between atoms: C_5  and  O_6
REMARK    3  A    between atoms: C_15  and  C_16
REMARK    4  A    between atoms: C_17  and  C_18
REMARK    5  A    between atoms: C_19  and  C_20
REMARK    6  A    between atoms: N_21  and  N_22
REMARK    7  A    between atoms: C_28  and  O_29
REMARK                            x       y       z     vdW  Elec       q    Type
REMARK                         _______ _______ _______ _____ _____    ______ ____
ROOT
ATOM      1  C   UNL     1      -2.795  15.292  20.893  0.00  0.00    +0.000 C 
ATOM      2  C   UNL     1      -3.304  14.041  21.661  0.00  0.00    +0.000 C 
ATOM      3  C   UNL     1      -4.835  13.968  21.381  0.00  0.00    +0.000 C 
ATOM      4  C   UNL     1      -5.565  12.914  22.209  0.00  0.00    +0.000 C 
ATOM      5  C   UNL     1      -5.343  13.115  23.704  0.00  0.00    +0.000 C 
ATOM      6  C   UNL     1      -3.860  13.223  24.055  0.00  0.00    +0.000 C 
ATOM      7  C   UNL     1      -3.090  14.252  23.194  0.00  0.00    +0.000 C 
ATOM      8  C   UNL     1      -1.598  14.248  23.570  0.00  0.00    +0.000 C 
ATOM      9  C   UNL     1      -0.853  13.005  23.087  0.00  0.00    +0.000 C 
ATOM     10  C   UNL     1      -1.032  12.758  21.576  0.00  0.00    +0.000 C 
ATOM     11  C   UNL     1      -2.545  12.736  21.200  0.00  0.00    +0.000 C 
ATOM     12  C   UNL     1      -2.735  12.427  19.706  0.00  0.00    +0.000 C 
ATOM     13  C   UNL     1      -2.033  11.139  19.306  0.00  0.00    +0.000 C 
ATOM     14  C   UNL     1      -0.507  11.154  19.595  0.00  0.00    +0.000 C 
ATOM     15  C   UNL     1       0.170  12.146  18.625  0.00  0.00    +0.000 C 
ATOM     16  C   UNL     1       0.015   9.687  19.451  0.00  0.00    +0.000 C 
ATOM     17  C   UNL     1      -0.137   9.072  20.857  0.00  0.00    +0.000 C 
ATOM     18  C   UNL     1      -0.545  10.196  21.820  0.00  0.00    +0.000 C 
ATOM     19  C   UNL     1      -0.241  11.506  21.084  0.00  0.00    +0.000 C 
ENDROOT
BRANCH   5  20
ATOM     20  O   UNL     1      -6.041  14.275  24.156  0.00  0.00    +0.000 OA
ATOM     21  H   UNL     1      -6.946  14.250  23.806  0.00  0.00    +0.000 HD
ENDBRANCH   5  20
BRANCH  16  22
ATOM     22  C   UNL     1       1.418   9.522  18.914  0.00  0.00    +0.000 C 
ATOM     23  C   UNL     1       1.865   8.341  18.465  0.00  0.00    +0.000 C 
BRANCH  23  24
ATOM     24  C   UNL     1       3.195   8.178  17.806  0.00  0.00    +0.000 C 
ATOM     25  N   UNL     1       3.670   6.997  17.573  0.00  0.00    +0.000 NA
BRANCH  25  26
ATOM     26  N   UNL     1       4.879   7.065  16.867  0.00  0.00    +0.000 NA
ATOM     27  C   UNL     1       5.245   5.920  16.389  0.00  0.00    +0.000 C 
ATOM     28  N   UNL     1       4.605   4.735  16.568  0.00  0.00    +0.000 N 
ATOM     29  N   UNL     1       6.340   5.756  15.609  0.00  0.00    +0.000 N 
ATOM     30  H   UNL     1       3.684   4.937  16.952  0.00  0.00    +0.000 HD
ATOM     31  H   UNL     1       4.548   4.177  15.727  0.00  0.00    +0.000 HD
ATOM     32  H   UNL     1       6.976   6.542  15.693  0.00  0.00    +0.000 HD
ATOM     33  H   UNL     1       6.804   4.866  15.738  0.00  0.00    +0.000 HD
ENDBRANCH  25  26
ENDBRANCH  23  24
ENDBRANCH  16  22
BRANCH  19  34
ATOM     34  O   UNL     1       1.163  11.763  21.242  0.00  0.00    +0.000 OA
ATOM     35  H   UNL     1       1.497  12.182  20.427  0.00  0.00    +0.000 HD
ENDBRANCH  19  34
TORSDOF 5
ENDMDL
MODEL 2
REMARK VINA RESULT:      -6.9      1.350      1.394
REMARK  Name = 
REMARK  7 active torsions:
REMARK  status: ('A' for Active; 'I' for Inactive)
REMARK    1  A    between atoms: C_1  and  C_2
REMARK    2  A    between atoms: C_5  and  O_6
REMARK    3  A    between atoms: C_15  and  C_16
REMARK    4  A    between atoms: C_17  and  C_18
REMARK    5  A    between atoms: C_19  and  C_20
REMARK    6  A    between atoms: N_21  and  N_22
REMARK    7  A    between atoms: C_28  and  O_29
REMARK                            x       y       z     vdW  Elec       q    Type
REMARK                         _______ _______ _______ _____ _____    ______ ____
ROOT
ATOM      1  C   UNL     1      -1.897  14.676  20.386  0.00  0.00    +0.000 C 
ATOM      2  C   UNL     1      -2.708  13.547  21.079  0.00  0.00    +0.000 C 
ATOM      3  C   UNL     1      -4.141  13.624  20.474  0.00  0.00    +0.000 C 
ATOM      4  C   UNL     1      -5.155  12.718  21.168  0.00  0.00    +0.000 C 
ATOM      5  C   UNL     1      -5.233  13.000  22.665  0.00  0.00    +0.000 C 
ATOM      6  C   UNL     1      -3.857  12.968  23.328  0.00  0.00    +0.000 C 
ATOM      7  C   UNL     1      -2.801  13.841  22.610  0.00  0.00    +0.000 C 
ATOM      8  C   UNL     1      -1.435  13.699  23.305  0.00  0.00    +0.000 C 
ATOM      9  C   UNL     1      -0.764  12.350  23.055  0.00  0.00    +0.000 C 
ATOM     10  C   UNL     1      -0.646  12.017  21.554  0.00  0.00    +0.000 C 
ATOM     11  C   UNL     1      -2.035  12.136  20.856  0.00  0.00    +0.000 C 
ATOM     12  C   UNL     1      -1.939  11.745  19.372  0.00  0.00    +0.000 C 
ATOM     13  C   UNL     1      -1.332  10.362  19.196  0.00  0.00    +0.000 C 
ATOM     14  C   UNL     1       0.087  10.229  19.811  0.00  0.00    +0.000 C 
ATOM     15  C   UNL     1       1.072  11.069  18.970  0.00  0.00    +0.000 C 
ATOM     16  C   UNL     1       0.443   8.707  19.853  0.00  0.00    +0.000 C 
ATOM     17  C   UNL     1      -0.079   8.214  21.218  0.00  0.00    +0.000 C 
ATOM     18  C   UNL     1      -0.541   9.441  22.015  0.00  0.00    +0.000 C 
ATOM     19  C   UNL     1       0.072  10.654  21.305  0.00  0.00    +0.000 C 
ENDROOT
BRANCH   5  20
ATOM     20  O   UNL     1      -5.863  14.258  22.899  0.00  0.00    +0.000 OA
ATOM     21  H   UNL     1      -6.615  14.123  23.499  0.00  0.00    +0.000 HD
ENDBRANCH   5  20
BRANCH  16  22
ATOM     22  C   UNL     1       1.897   8.350  19.645  0.00  0.00    +0.000 C 
ATOM     23  C   UNL     1       2.264   7.320  18.872  0.00  0.00    +0.000 C 
BRANCH  23  24
ATOM     24  C   UNL     1       3.691   7.027  18.540  0.00  0.00    +0.000 C 
ATOM     25  N   UNL     1       4.098   5.804  18.422  0.00  0.00    +0.000 NA
BRANCH  25  26
ATOM     26  N   UNL     1       5.439   5.751  18.017  0.00  0.00    +0.000 NA
ATOM     27  C   UNL     1       6.024   4.650  18.364  0.00  0.00    +0.000 C 
ATOM     28  N   UNL     1       5.474   3.646  19.094  0.00  0.00    +0.000 N 
ATOM     29  N   UNL     1       7.297   4.344  18.018  0.00  0.00    +0.000 N 
ATOM     30  H   UNL     1       4.469   3.808  19.133  0.00  0.00    +0.000 HD
ATOM     31  H   UNL     1       5.694   2.725  18.742  0.00  0.00    +0.000 HD
ATOM     32  H   UNL     1       7.812   5.170  17.729  0.00  0.00    +0.000 HD
ATOM     33  H   UNL     1       7.792   3.803  18.715  0.00  0.00    +0.000 HD
ENDBRANCH  25  26
ENDBRANCH  23  24
ENDBRANCH  16  22
BRANCH  19  34
ATOM     34  O   UNL     1       1.430  10.766  21.757  0.00  0.00    +0.000 OA
ATOM     35  H   UNL     1       1.822  11.570  21.368  0.00  0.00    +0.000 HD
ENDBRANCH  19  34
TORSDOF 5
ENDMDL
MODEL 3
REMARK VINA RESULT:      -6.6      1.195      1.309
REMARK  Name = 
REMARK  7 active torsions:
REMARK  status: ('A' for Active; 'I' for Inactive)
REMARK    1  A    between atoms: C_1  and  C_2
REMARK    2  A    between atoms: C_5  and  O_6
REMARK    3  A    between atoms: C_15  and  C_16
REMARK    4  A    between atoms: C_17  and  C_18
REMARK    5  A    between atoms: C_19  and  C_20
REMARK    6  A    between atoms: N_21  and  N_22
REMARK    7  A    between atoms: C_28  and  O_29
REMARK                            x       y       z     vdW  Elec       q    Type
REMARK                         _______ _______ _______ _____ _____    ______ ____
ROOT
ATOM      1  C   UNL     1      -1.764  14.592  20.377  0.00  0.00    +0.000 C 
ATOM      2  C   UNL     1      -2.629  13.476  21.024  0.00  0.00    +0.000 C 
ATOM      3  C   UNL     1      -4.030  13.586  20.354  0.00  0.00    +0.000 C 
ATOM      4  C   UNL     1      -5.094  12.697  20.994  0.00  0.00    +0.000 C 
ATOM      5  C   UNL     1      -5.235  12.972  22.487  0.00  0.00    +0.000 C 
ATOM      6  C   UNL     1      -3.892  12.907  23.213  0.00  0.00    +0.000 C 
ATOM      7  C   UNL     1      -2.787  13.763  22.552  0.00  0.00    +0.000 C 
ATOM      8  C   UNL     1      -1.458  13.588  23.308  0.00  0.00    +0.000 C 
ATOM      9  C   UNL     1      -0.803  12.227  23.080  0.00  0.00    +0.000 C 
ATOM     10  C   UNL     1      -0.623  11.901  21.584  0.00  0.00    +0.000 C 
ATOM     11  C   UNL     1      -1.975  12.053  20.823  0.00  0.00    +0.000 C 
ATOM     12  C   UNL     1      -1.819  11.668  19.343  0.00  0.00    +0.000 C 
ATOM     13  C   UNL     1      -1.232  10.274  19.184  0.00  0.00    +0.000 C 
ATOM     14  C   UNL     1       0.153  10.109  19.864  0.00  0.00    +0.000 C 
ATOM     15  C   UNL     1       1.193  10.932  19.075  0.00  0.00    +0.000 C 
ATOM     16  C   UNL     1       0.476   8.579  19.912  0.00  0.00    +0.000 C 
ATOM     17  C   UNL     1      -0.119   8.089  21.248  0.00  0.00    +0.000 C 
ATOM     18  C   UNL     1      -0.592   9.321  22.031  0.00  0.00    +0.000 C 
ATOM     19  C   UNL     1       0.078  10.525  21.359  0.00  0.00    +0.000 C 
ENDROOT
BRANCH   5  20
ATOM     20  O   UNL     1      -5.849  14.241  22.701  0.00  0.00    +0.000 OA
ATOM     21  H   UNL     1      -5.188  14.937  22.554  0.00  0.00    +0.000 HD
ENDBRANCH   5  20
BRANCH  16  22
ATOM     22  C   UNL     1       1.930   8.193  19.769  0.00  0.00    +0.000 C 
ATOM     23  C   UNL     1       2.297   6.959  19.401  0.00  0.00    +0.000 C 
BRANCH  23  24
ATOM     24  C   UNL     1       3.717   6.587  19.121  0.00  0.00    +0.000 C 
ATOM     25  N   UNL     1       4.103   6.341  17.910  0.00  0.00    +0.000 NA
BRANCH  25  26
ATOM     26  N   UNL     1       5.483   6.106  17.854  0.00  0.00    +0.000 NA
ATOM     27  C   UNL     1       5.983   6.328  16.681  0.00  0.00    +0.000 C 
ATOM     28  N   UNL     1       5.290   6.690  15.571  0.00  0.00    +0.000 N 
ATOM     29  N   UNL     1       7.306   6.240  16.408  0.00  0.00    +0.000 N 
ATOM     30  H   UNL     1       4.355   6.967  15.867  0.00  0.00    +0.000 HD
ATOM     31  H   UNL     1       5.743   7.414  15.031  0.00  0.00    +0.000 HD
ATOM     32  H   UNL     1       7.797   5.709  17.120  0.00  0.00    +0.000 HD
ATOM     33  H   UNL     1       7.510   5.914  15.472  0.00  0.00    +0.000 HD
ENDBRANCH  25  26
ENDBRANCH  23  24
ENDBRANCH  16  22
BRANCH  19  34
ATOM     34  O   UNL     1       1.416  10.605  21.873  0.00  0.00    +0.000 OA
ATOM     35  H   UNL     1       2.001  10.074  21.303  0.00  0.00    +0.000 HD
ENDBRANCH  19  34
TORSDOF 5
ENDMDL
MODEL 4
REMARK VINA RESULT:      -6.6      1.915      3.372
REMARK  Name = 
REMARK  7 active torsions:
REMARK  status: ('A' for Active; 'I' for Inactive)
REMARK    1  A    between atoms: C_1  and  C_2
REMARK    2  A    between atoms: C_5  and  O_6
REMARK    3  A    between atoms: C_15  and  C_16
REMARK    4  A    between atoms: C_17  and  C_18
REMARK    5  A    between atoms: C_19  and  C_20
REMARK    6  A    between atoms: N_21  and  N_22
REMARK    7  A    between atoms: C_28  and  O_29
REMARK                            x       y       z     vdW  Elec       q    Type
REMARK                         _______ _______ _______ _____ _____    ______ ____
ROOT
ATOM      1  C   UNL     1      -2.962  12.007  23.236  0.00  0.00    +0.000 C 
ATOM      2  C   UNL     1      -2.109  13.037  22.445  0.00  0.00    +0.000 C 
ATOM      3  C   UNL     1      -1.460  13.960  23.519  0.00  0.00    +0.000 C 
ATOM      4  C   UNL     1      -0.732  15.170  22.936  0.00  0.00    +0.000 C 
ATOM      5  C   UNL     1      -1.648  16.007  22.051  0.00  0.00    +0.000 C 
ATOM      6  C   UNL     1      -2.346  15.164  20.985  0.00  0.00    +0.000 C 
ATOM      7  C   UNL     1      -3.048  13.906  21.548  0.00  0.00    +0.000 C 
ATOM      8  C   UNL     1      -3.665  13.085  20.402  0.00  0.00    +0.000 C 
ATOM      9  C   UNL     1      -2.629  12.356  19.550  0.00  0.00    +0.000 C 
ATOM     10  C   UNL     1      -1.680  11.481  20.394  0.00  0.00    +0.000 C 
ATOM     11  C   UNL     1      -1.035  12.319  21.539  0.00  0.00    +0.000 C 
ATOM     12  C   UNL     1      -0.039  11.470  22.346  0.00  0.00    +0.000 C 
ATOM     13  C   UNL     1       1.011  10.832  21.450  0.00  0.00    +0.000 C 
ATOM     14  C   UNL     1       0.406   9.926  20.343  0.00  0.00    +0.000 C 
ATOM     15  C   UNL     1      -0.188   8.665  21.006  0.00  0.00    +0.000 C 
ATOM     16  C   UNL     1       1.544   9.613  19.316  0.00  0.00    +0.000 C 
ATOM     17  C   UNL     1       1.465  10.751  18.278  0.00  0.00    +0.000 C 
ATOM     18  C   UNL     1       0.209  11.579  18.582  0.00  0.00    +0.000 C 
ATOM     19  C   UNL     1      -0.646  10.711  19.514  0.00  0.00    +0.000 C 
ENDROOT
BRANCH   5  20
ATOM     20  O   UNL     1      -2.615  16.692  22.846  0.00  0.00    +0.000 OA
ATOM     21  H   UNL     1      -2.199  17.480  23.233  0.00  0.00    +0.000 HD
ENDBRANCH   5  20
BRANCH  16  22
ATOM     22  C   UNL     1       1.503   8.252  18.662  0.00  0.00    +0.000 C 
ATOM     23  C   UNL     1       2.574   7.446  18.649  0.00  0.00    +0.000 C 
BRANCH  23  24
ATOM     24  C   UNL     1       2.525   6.045  18.131  0.00  0.00    +0.000 C 
ATOM     25  N   UNL     1       3.618   5.382  17.933  0.00  0.00    +0.000 NA
BRANCH  25  26
ATOM     26  N   UNL     1       3.349   4.065  17.537  0.00  0.00    +0.000 NA
ATOM     27  C   UNL     1       4.123   3.201  18.112  0.00  0.00    +0.000 C 
ATOM     28  N   UNL     1       5.142   3.481  18.965  0.00  0.00    +0.000 N 
ATOM     29  N   UNL     1       3.999   1.863  17.942  0.00  0.00    +0.000 N 
ATOM     30  H   UNL     1       5.053   4.457  19.242  0.00  0.00    +0.000 HD
ATOM     31  H   UNL     1       5.179   2.865  19.765  0.00  0.00    +0.000 HD
ATOM     32  H   UNL     1       3.453   1.644  17.116  0.00  0.00    +0.000 HD
ATOM     33  H   UNL     1       4.879   1.364  17.969  0.00  0.00    +0.000 HD
ENDBRANCH  25  26
ENDBRANCH  23  24
ENDBRANCH  16  22
BRANCH  19  34
ATOM     34  O   UNL     1      -1.357   9.777  18.687  0.00  0.00    +0.000 OA
ATOM     35  H   UNL     1      -0.731   9.097  18.377  0.00  0.00    +0.000 HD
ENDBRANCH  19  34
TORSDOF 5
ENDMDL
MODEL 5
REMARK VINA RESULT:      -6.5      1.573      2.090
REMARK  Name = 
REMARK  7 active torsions:
REMARK  status: ('A' for Active; 'I' for Inactive)
REMARK    1  A    between atoms: C_1  and  C_2
REMARK    2  A    between atoms: C_5  and  O_6
REMARK    3  A    between atoms: C_15  and  C_16
REMARK    4  A    between atoms: C_17  and  C_18
REMARK    5  A    between atoms: C_19  and  C_20
REMARK    6  A    between atoms: N_21  and  N_22
REMARK    7  A    between atoms: C_28  and  O_29
REMARK                            x       y       z     vdW  Elec       q    Type
REMARK                         _______ _______ _______ _____ _____    ______ ____
ROOT
ATOM      1  C   UNL     1      -0.289  15.950  22.004  0.00  0.00    +0.000 C 
ATOM      2  C   UNL     1      -1.557  15.136  21.627  0.00  0.00    +0.000 C 
ATOM      3  C   UNL     1      -2.514  16.146  20.928  0.00  0.00    +0.000 C 
ATOM      4  C   UNL     1      -3.908  15.587  20.651  0.00  0.00    +0.000 C 
ATOM      5  C   UNL     1      -4.573  15.073  21.924  0.00  0.00    +0.000 C 
ATOM      6  C   UNL     1      -3.680  14.093  22.683  0.00  0.00    +0.000 C 
ATOM      7  C   UNL     1      -2.247  14.621  22.930  0.00  0.00    +0.000 C 
ATOM      8  C   UNL     1      -1.402  13.548  23.640  0.00  0.00    +0.000 C 
ATOM      9  C   UNL     1      -1.018  12.379  22.735  0.00  0.00    +0.000 C 
ATOM     10  C   UNL     1      -0.329  12.840  21.435  0.00  0.00    +0.000 C 
ATOM     11  C   UNL     1      -1.197  13.908  20.703  0.00  0.00    +0.000 C 
ATOM     12  C   UNL     1      -0.547  14.326  19.374  0.00  0.00    +0.000 C 
ATOM     13  C   UNL     1      -0.259  13.124  18.487  0.00  0.00    +0.000 C 
ATOM     14  C   UNL     1       0.668  12.075  19.156  0.00  0.00    +0.000 C 
ATOM     15  C   UNL     1       2.087  12.672  19.275  0.00  0.00    +0.000 C 
ATOM     16  C   UNL     1       0.611  10.773  18.290  0.00  0.00    +0.000 C 
ATOM     17  C   UNL     1      -0.559   9.957  18.878  0.00  0.00    +0.000 C 
ATOM     18  C   UNL     1      -1.032  10.665  20.155  0.00  0.00    +0.000 C 
ATOM     19  C   UNL     1       0.092  11.639  20.531  0.00  0.00    +0.000 C 
ENDROOT
BRANCH   5  20
ATOM     20  O   UNL     1      -4.934  16.164  22.768  0.00  0.00    +0.000 OA
ATOM     21  H   UNL     1      -5.673  15.888  23.336  0.00  0.00    +0.000 HD
ENDBRANCH   5  20
BRANCH  16  22
ATOM     22  C   UNL     1       1.881   9.959  18.213  0.00  0.00    +0.000 C 
ATOM     23  C   UNL     1       1.855   8.622  18.130  0.00  0.00    +0.000 C 
BRANCH  23  24
ATOM     24  C   UNL     1       3.086   7.802  17.917  0.00  0.00    +0.000 C 
ATOM     25  N   UNL     1       3.165   6.604  18.400  0.00  0.00    +0.000 NA
BRANCH  25  26
ATOM     26  N   UNL     1       4.356   5.977  18.009  0.00  0.00    +0.000 NA
ATOM     27  C   UNL     1       4.601   4.900  18.684  0.00  0.00    +0.000 C 
ATOM     28  N   UNL     1       3.858   4.413  19.711  0.00  0.00    +0.000 N 
ATOM     29  N   UNL     1       5.655   4.088  18.432  0.00  0.00    +0.000 N 
ATOM     30  H   UNL     1       2.970   4.912  19.714  0.00  0.00    +0.000 HD
ATOM     31  H   UNL     1       3.726   3.411  19.675  0.00  0.00    +0.000 HD
ATOM     32  H   UNL     1       6.363   4.560  17.881  0.00  0.00    +0.000 HD
ATOM     33  H   UNL     1       6.036   3.645  19.258  0.00  0.00    +0.000 HD
ENDBRANCH  25  26
ENDBRANCH  23  24
ENDBRANCH  16  22
BRANCH  19  34
ATOM     34  O   UNL     1       1.096  10.879  21.221  0.00  0.00    +0.000 OA
ATOM     35  H   UNL     1       1.304  11.329  22.061  0.00  0.00    +0.000 HD
ENDBRANCH  19  34
TORSDOF 5
ENDMDL
MODEL 6
REMARK VINA RESULT:      -6.3      2.369      3.718
REMARK  Name = 
REMARK  7 active torsions:
REMARK  status: ('A' for Active; 'I' for Inactive)
REMARK    1  A    between atoms: C_1  and  C_2
REMARK    2  A    between atoms: C_5  and  O_6
REMARK    3  A    between atoms: C_15  and  C_16
REMARK    4  A    between atoms: C_17  and  C_18
REMARK    5  A    between atoms: C_19  and  C_20
REMARK    6  A    between atoms: N_21  and  N_22
REMARK    7  A    between atoms: C_28  and  O_29
REMARK                            x       y       z     vdW  Elec       q    Type
REMARK                         _______ _______ _______ _____ _____    ______ ____
ROOT
ATOM      1  C   UNL     1      -3.144  12.216  23.263  0.00  0.00    +0.000 C 
ATOM      2  C   UNL     1      -2.277  13.207  22.440  0.00  0.00    +0.000 C 
ATOM      3  C   UNL     1      -1.648  14.182  23.479  0.00  0.00    +0.000 C 
ATOM      4  C   UNL     1      -0.910  15.363  22.852  0.00  0.00    +0.000 C 
ATOM      5  C   UNL     1      -1.810  16.155  21.910  0.00  0.00    +0.000 C 
ATOM      6  C   UNL     1      -2.487  15.260  20.873  0.00  0.00    +0.000 C 
ATOM      7  C   UNL     1      -3.199  14.030  21.484  0.00  0.00    +0.000 C 
ATOM      8  C   UNL     1      -3.794  13.154  20.368  0.00  0.00    +0.000 C 
ATOM      9  C   UNL     1      -2.741  12.385  19.572  0.00  0.00    +0.000 C 
ATOM     10  C   UNL     1      -1.808  11.553  20.475  0.00  0.00    +0.000 C 
ATOM     11  C   UNL     1      -1.185  12.447  21.590  0.00  0.00    +0.000 C 
ATOM     12  C   UNL     1      -0.205  11.640  22.456  0.00  0.00    +0.000 C 
ATOM     13  C   UNL     1       0.862  10.961  21.612  0.00  0.00    +0.000 C 
ATOM     14  C   UNL     1       0.279  10.001  20.540  0.00  0.00    +0.000 C 
ATOM     15  C   UNL     1      -0.327   8.773  21.252  0.00  0.00    +0.000 C 
ATOM     16  C   UNL     1       1.436   9.640  19.550  0.00  0.00    +0.000 C 
ATOM     17  C   UNL     1       1.377  10.726  18.457  0.00  0.00    +0.000 C 
ATOM     18  C   UNL     1       0.114  11.566  18.696  0.00  0.00    +0.000 C 
ATOM     19  C   UNL     1      -0.758  10.743  19.653  0.00  0.00    +0.000 C 
ENDROOT
BRANCH   5  20
ATOM     20  O   UNL     1      -2.792  16.876  22.653  0.00  0.00    +0.000 OA
ATOM     21  H   UNL     1      -3.310  16.245  23.179  0.00  0.00    +0.000 HD
ENDBRANCH   5  20
BRANCH  16  22
ATOM     22  C   UNL     1       1.409   8.248  18.963  0.00  0.00    +0.000 C 
ATOM     23  C   UNL     1       2.536   7.579  18.687  0.00  0.00    +0.000 C 
BRANCH  23  24
ATOM     24  C   UNL     1       2.541   6.156  18.234  0.00  0.00    +0.000 C 
ATOM     25  N   UNL     1       1.873   5.259  18.886  0.00  0.00    +0.000 NA
BRANCH  25  26
ATOM     26  N   UNL     1       1.934   4.014  18.246  0.00  0.00    +0.000 NA
ATOM     27  C   UNL     1       1.329   3.080  18.906  0.00  0.00    +0.000 C 
ATOM     28  N   UNL     1       0.735   3.214  20.120  0.00  0.00    +0.000 N 
ATOM     29  N   UNL     1       1.193   1.813  18.447  0.00  0.00    +0.000 N 
ATOM     30  H   UNL     1       0.657   4.210  20.318  0.00  0.00    +0.000 HD
ATOM     31  H   UNL     1      -0.158   2.746  20.186  0.00  0.00    +0.000 HD
ATOM     32  H   UNL     1       1.852   1.616  17.701  0.00  0.00    +0.000 HD
ATOM     33  H   UNL     1       1.208   1.111  19.174  0.00  0.00    +0.000 HD
ENDBRANCH  25  26
ENDBRANCH  23  24
ENDBRANCH  16  22
BRANCH  19  34
ATOM     34  O   UNL     1      -1.452   9.769  18.859  0.00  0.00    +0.000 OA
ATOM     35  H   UNL     1      -0.884   9.517  18.108  0.00  0.00    +0.000 HD
ENDBRANCH  19  34
TORSDOF 5
ENDMDL
MODEL 7
REMARK VINA RESULT:      -6.3      1.807      2.418
REMARK  Name = 
REMARK  7 active torsions:
REMARK  status: ('A' for Active; 'I' for Inactive)
REMARK    1  A    between atoms: C_1  and  C_2
REMARK    2  A    between atoms: C_5  and  O_6
REMARK    3  A    between atoms: C_15  and  C_16
REMARK    4  A    between atoms: C_17  and  C_18
REMARK    5  A    between atoms: C_19  and  C_20
REMARK    6  A    between atoms: N_21  and  N_22
REMARK    7  A    between atoms: C_28  and  O_29
REMARK                            x       y       z     vdW  Elec       q    Type
REMARK                         _______ _______ _______ _____ _____    ______ ____
ROOT
ATOM      1  C   UNL     1       0.081  16.632  22.041  0.00  0.00    +0.000 C 
ATOM      2  C   UNL     1      -1.280  15.958  21.716  0.00  0.00    +0.000 C 
ATOM      3  C   UNL     1      -2.114  17.036  20.962  0.00  0.00    +0.000 C 
ATOM      4  C   UNL     1      -3.569  16.636  20.723  0.00  0.00    +0.000 C 
ATOM      5  C   UNL     1      -4.278  16.280  22.024  0.00  0.00    +0.000 C 
ATOM      6  C   UNL     1      -3.503  15.243  22.836  0.00  0.00    +0.000 C 
ATOM      7  C   UNL     1      -2.014  15.606  23.048  0.00  0.00    +0.000 C 
ATOM      8  C   UNL     1      -1.299  14.480  23.816  0.00  0.00    +0.000 C 
ATOM      9  C   UNL     1      -1.068  13.224  22.979  0.00  0.00    +0.000 C 
ATOM     10  C   UNL     1      -0.341  13.523  21.653  0.00  0.00    +0.000 C 
ATOM     11  C   UNL     1      -1.081  14.645  20.862  0.00  0.00    +0.000 C 
ATOM     12  C   UNL     1      -0.399  14.905  19.510  0.00  0.00    +0.000 C 
ATOM     13  C   UNL     1      -0.267  13.629  18.693  0.00  0.00    +0.000 C 
ATOM     14  C   UNL     1       0.533  12.514  19.419  0.00  0.00    +0.000 C 
ATOM     15  C   UNL     1       2.014  12.940  19.498  0.00  0.00    +0.000 C 
ATOM     16  C   UNL     1       0.309  11.182  18.629  0.00  0.00    +0.000 C 
ATOM     17  C   UNL     1      -0.945  10.549  19.266  0.00  0.00    +0.000 C 
ATOM     18  C   UNL     1      -1.315  11.381  20.502  0.00  0.00    +0.000 C 
ATOM     19  C   UNL     1      -0.078  12.231  20.818  0.00  0.00    +0.000 C 
ENDROOT
BRANCH   5  20
ATOM     20  O   UNL     1      -4.497  17.453  22.806  0.00  0.00    +0.000 OA
ATOM     21  H   UNL     1      -4.233  18.229  22.285  0.00  0.00    +0.000 HD
ENDBRANCH   5  20
BRANCH  16  22
ATOM     22  C   UNL     1       1.471  10.217  18.596  0.00  0.00    +0.000 C 
ATOM     23  C   UNL     1       1.428   9.090  17.873  0.00  0.00    +0.000 C 
BRANCH  23  24
ATOM     24  C   UNL     1       2.607   8.187  17.712  0.00  0.00    +0.000 C 
ATOM     25  N   UNL     1       2.666   7.067  18.358  0.00  0.00    +0.000 NA
BRANCH  25  26
ATOM     26  N   UNL     1       3.803   6.331  17.997  0.00  0.00    +0.000 NA
ATOM     27  C   UNL     1       3.526   5.111  17.665  0.00  0.00    +0.000 C 
ATOM     28  N   UNL     1       2.300   4.530  17.701  0.00  0.00    +0.000 N 
ATOM     29  N   UNL     1       4.454   4.236  17.209  0.00  0.00    +0.000 N 
ATOM     30  H   UNL     1       1.611   5.270  17.822  0.00  0.00    +0.000 HD
ATOM     31  H   UNL     1       2.100   3.958  16.892  0.00  0.00    +0.000 HD
ATOM     32  H   UNL     1       5.395   4.541  17.436  0.00  0.00    +0.000 HD
ATOM     33  H   UNL     1       4.281   3.277  17.481  0.00  0.00    +0.000 HD
ENDBRANCH  25  26
ENDBRANCH  23  24
ENDBRANCH  16  22
BRANCH  19  34
ATOM     34  O   UNL     1       0.833  11.395  21.548  0.00  0.00    +0.000 OA
ATOM     35  H   UNL     1       0.397  11.102  22.369  0.00  0.00    +0.000 HD
ENDBRANCH  19  34
TORSDOF 5
ENDMDL
MODEL 8
REMARK VINA RESULT:      -6.3      1.629      2.359
REMARK  Name = 
REMARK  7 active torsions:
REMARK  status: ('A' for Active; 'I' for Inactive)
REMARK    1  A    between atoms: C_1  and  C_2
REMARK    2  A    between atoms: C_5  and  O_6
REMARK    3  A    between atoms: C_15  and  C_16
REMARK    4  A    between atoms: C_17  and  C_18
REMARK    5  A    between atoms: C_19  and  C_20
REMARK    6  A    between atoms: N_21  and  N_22
REMARK    7  A    between atoms: C_28  and  O_29
REMARK                            x       y       z     vdW  Elec       q    Type
REMARK                         _______ _______ _______ _____ _____    ______ ____
ROOT
ATOM      1  C   UNL     1      -0.997  15.221  23.542  0.00  0.00    +0.000 C 
ATOM      2  C   UNL     1      -2.150  14.892  22.556  0.00  0.00    +0.000 C 
ATOM      3  C   UNL     1      -2.689  16.267  22.062  0.00  0.00    +0.000 C 
ATOM      4  C   UNL     1      -3.965  16.169  21.228  0.00  0.00    +0.000 C 
ATOM      5  C   UNL     1      -5.075  15.441  21.978  0.00  0.00    +0.000 C 
ATOM      6  C   UNL     1      -4.613  14.088  22.518  0.00  0.00    +0.000 C 
ATOM      7  C   UNL     1      -3.295  14.158  23.325  0.00  0.00    +0.000 C 
ATOM      8  C   UNL     1      -2.872  12.748  23.773  0.00  0.00    +0.000 C 
ATOM      9  C   UNL     1      -2.347  11.880  22.632  0.00  0.00    +0.000 C 
ATOM     10  C   UNL     1      -1.211  12.562  21.844  0.00  0.00    +0.000 C 
ATOM     11  C   UNL     1      -1.649  13.981  21.368  0.00  0.00    +0.000 C 
ATOM     12  C   UNL     1      -0.545  14.643  20.528  0.00  0.00    +0.000 C 
ATOM     13  C   UNL     1      -0.119  13.760  19.365  0.00  0.00    +0.000 C 
ATOM     14  C   UNL     1       0.397  12.365  19.808  0.00  0.00    +0.000 C 
ATOM     15  C   UNL     1       1.753  12.544  20.524  0.00  0.00    +0.000 C 
ATOM     16  C   UNL     1       0.481  11.465  18.531  0.00  0.00    +0.000 C 
ATOM     17  C   UNL     1      -0.906  10.799  18.424  0.00  0.00    +0.000 C 
ATOM     18  C   UNL     1      -1.693  11.145  19.695  0.00  0.00    +0.000 C 
ATOM     19  C   UNL     1      -0.655  11.655  20.702  0.00  0.00    +0.000 C 
ENDROOT
BRANCH   5  20
ATOM     20  O   UNL     1      -5.568  16.252  23.042  0.00  0.00    +0.000 OA
ATOM     21  H   UNL     1      -4.816  16.567  23.570  0.00  0.00    +0.000 HD
ENDBRANCH   5  20
BRANCH  16  22
ATOM     22  C   UNL     1       1.598  10.448  18.498  0.00  0.00    +0.000 C 
ATOM     23  C   UNL     1       1.436   9.245  17.930  0.00  0.00    +0.000 C 
BRANCH  23  24
ATOM     24  C   UNL     1       2.558   8.273  17.761  0.00  0.00    +0.000 C 
ATOM     25  N   UNL     1       2.445   7.061  18.201  0.00  0.00    +0.000 NA
BRANCH  25  26
ATOM     26  N   UNL     1       3.565   6.290  17.860  0.00  0.00    +0.000 NA
ATOM     27  C   UNL     1       3.965   5.531  18.829  0.00  0.00    +0.000 C 
ATOM     28  N   UNL     1       3.438   5.486  20.080  0.00  0.00    +0.000 N 
ATOM     29  N   UNL     1       4.982   4.646  18.709  0.00  0.00    +0.000 N 
ATOM     30  H   UNL     1       2.549   5.983  20.060  0.00  0.00    +0.000 HD
ATOM     31  H   UNL     1       3.336   4.547  20.441  0.00  0.00    +0.000 HD
ATOM     32  H   UNL     1       5.562   4.855  17.903  0.00  0.00    +0.000 HD
ATOM     33  H   UNL     1       5.523   4.526  19.555  0.00  0.00    +0.000 HD
ENDBRANCH  25  26
ENDBRANCH  23  24
ENDBRANCH  16  22
BRANCH  19  34
ATOM     34  O   UNL     1      -0.040  10.501  21.295  0.00  0.00    +0.000 OA
ATOM     35  H   UNL     1      -0.335   9.708  20.810  0.00  0.00    +0.000 HD
ENDBRANCH  19  34
TORSDOF 5
ENDMDL
MODEL 9
REMARK VINA RESULT:      -6.3      1.739      3.158
REMARK  Name = 
REMARK  7 active torsions:
REMARK  status: ('A' for Active; 'I' for Inactive)
REMARK    1  A    between atoms: C_1  and  C_2
REMARK    2  A    between atoms: C_5  and  O_6
REMARK    3  A    between atoms: C_15  and  C_16
REMARK    4  A    between atoms: C_17  and  C_18
REMARK    5  A    between atoms: C_19  and  C_20
REMARK    6  A    between atoms: N_21  and  N_22
REMARK    7  A    between atoms: C_28  and  O_29
REMARK                            x       y       z     vdW  Elec       q    Type
REMARK                         _______ _______ _______ _____ _____    ______ ____
ROOT
ATOM      1  C   UNL     1      -4.166  12.802  23.729  0.00  0.00    +0.000 C 
ATOM      2  C   UNL     1      -3.732  13.936  22.761  0.00  0.00    +0.000 C 
ATOM      3  C   UNL     1      -3.441  15.173  23.662  0.00  0.00    +0.000 C 
ATOM      4  C   UNL     1      -3.186  16.461  22.882  0.00  0.00    +0.000 C 
ATOM      5  C   UNL     1      -4.341  16.791  21.944  0.00  0.00    +0.000 C 
ATOM      6  C   UNL     1      -4.704  15.613  21.042  0.00  0.00    +0.000 C 
ATOM      7  C   UNL     1      -4.919  14.286  21.808  0.00  0.00    +0.000 C 
ATOM      8  C   UNL     1      -5.216  13.145  20.819  0.00  0.00    +0.000 C 
ATOM      9  C   UNL     1      -3.993  12.702  20.017  0.00  0.00    +0.000 C 
ATOM     10  C   UNL     1      -2.794  12.342  20.918  0.00  0.00    +0.000 C 
ATOM     11  C   UNL     1      -2.478  13.510  21.902  0.00  0.00    +0.000 C 
ATOM     12  C   UNL     1      -1.244  13.185  22.760  0.00  0.00    +0.000 C 
ATOM     13  C   UNL     1      -0.042  12.825  21.901  0.00  0.00    +0.000 C 
ATOM     14  C   UNL     1      -0.296  11.615  20.963  0.00  0.00    +0.000 C 
ATOM     15  C   UNL     1      -0.408  10.338  21.822  0.00  0.00    +0.000 C 
ATOM     16  C   UNL     1       0.874  11.568  19.926  0.00  0.00    +0.000 C 
ATOM     17  C   UNL     1       0.397  12.444  18.749  0.00  0.00    +0.000 C 
ATOM     18  C   UNL     1      -1.068  12.821  19.007  0.00  0.00    +0.000 C 
ATOM     19  C   UNL     1      -1.561  11.858  20.094  0.00  0.00    +0.000 C 
ENDROOT
BRANCH   5  20
ATOM     20  O   UNL     1      -5.482  17.208  22.692  0.00  0.00    +0.000 OA
ATOM     21  H   UNL     1      -5.308  17.059  23.636  0.00  0.00    +0.000 HD
ENDBRANCH   5  20
BRANCH  16  22
ATOM     22  C   UNL     1       1.310  10.196  19.465  0.00  0.00    +0.000 C 
ATOM     23  C   UNL     1       1.626   9.952  18.186  0.00  0.00    +0.000 C 
BRANCH  23  24
ATOM     24  C   UNL     1       2.188   8.646  17.728  0.00  0.00    +0.000 C 
ATOM     25  N   UNL     1       2.376   7.682  18.572  0.00  0.00    +0.000 NA
BRANCH  25  26
ATOM     26  N   UNL     1       2.819   6.520  17.925  0.00  0.00    +0.000 NA
ATOM     27  C   UNL     1       3.255   5.623  18.750  0.00  0.00    +0.000 C 
ATOM     28  N   UNL     1       3.356   5.756  20.097  0.00  0.00    +0.000 N 
ATOM     29  N   UNL     1       3.664   4.392  18.361  0.00  0.00    +0.000 N 
ATOM     30  H   UNL     1       2.833   6.587  20.366  0.00  0.00    +0.000 HD
ATOM     31  H   UNL     1       3.052   4.938  20.607  0.00  0.00    +0.000 HD
ATOM     32  H   UNL     1       3.865   4.365  17.367  0.00  0.00    +0.000 HD
ATOM     33  H   UNL     1       4.419   4.016  18.920  0.00  0.00    +0.000 HD
ENDBRANCH  25  26
ENDBRANCH  23  24
ENDBRANCH  16  22
BRANCH  19  34
ATOM     34  O   UNL     1      -1.904  10.626  19.442  0.00  0.00    +0.000 OA
ATOM     35  H   UNL     1      -2.610  10.189  19.953  0.00  0.00    +0.000 HD
ENDBRANCH  19  34
TORSDOF 5
ENDMDL
