MODEL 1
REMARK VINA RESULT:      -9.6      0.000      0.000
REMARK  Name = 
REMARK  6 active torsions:
REMARK  status: ('A' for Active; 'I' for Inactive)
REMARK    1  A    between atoms: C_1  and  C_2
REMARK    2  A    between atoms: C_4  and  C_5
REMARK    3  A    between atoms: N_13  and  C_14
REMARK    4  A    between atoms: C_14  and  C_15
REMARK    5  A    between atoms: C_15  and  N_16
REMARK    6  A    between atoms: C_20  and  C_21
REMARK                            x       y       z     vdW  Elec       q    Type
REMARK                         _______ _______ _______ _____ _____    ______ ____
ROOT
ATOM      1  C   UNL     1       1.389   2.960  21.126  0.00  0.00    +0.000 C 
ATOM      2  C   UNL     1       2.339   3.902  20.449  0.00  0.00    +0.000 A 
ATOM      3  N   UNL     1       1.847   5.135  20.180  0.00  0.00    +0.000 NA
ATOM      4  C   UNL     1       2.686   6.029  19.619  0.00  0.00    +0.000 A 
ATOM      5  N   UNL     1       3.970   5.758  19.319  0.00  0.00    +0.000 NA
ATOM      6  C   UNL     1       4.459   4.539  19.607  0.00  0.00    +0.000 A 
ATOM      7  N   UNL     1       5.834   4.312  19.436  0.00  0.00    +0.000 N 
ATOM      8  C   UNL     1       3.649   3.548  20.161  0.00  0.00    +0.000 A 
ATOM      9 CL   UNL     1       4.270   1.975  20.525  0.00  0.00    +0.000 Cl
ATOM     10  H   UNL     1       5.987   3.488  18.859  0.00  0.00    +0.000 HD
ENDROOT
BRANCH   4  11
ATOM     11  C   UNL     1       2.177   7.403  19.373  0.00  0.00    +0.000 A 
ATOM     12  C   UNL     1       2.311   8.019  18.125  0.00  0.00    +0.000 A 
ATOM     13  C   UNL     1       1.802   9.304  17.930  0.00  0.00    +0.000 A 
ATOM     14  C   UNL     1       1.171   9.950  18.982  0.00  0.00    +0.000 A 
ATOM     15  C   UNL     1       1.074   9.284  20.192  0.00  0.00    +0.000 A 
ATOM     16  N   UNL     1       1.555   8.042  20.408  0.00  0.00    +0.000 NA
ENDBRANCH   4  11
BRANCH   7  17
ATOM     17  C   UNL     1       6.692   5.450  19.074  0.00  0.00    +0.000 C 
BRANCH  17  18
ATOM     18  C   UNL     1       7.727   5.094  17.984  0.00  0.00    +0.000 C 
BRANCH  18  19
ATOM     19  N   UNL     1       7.514   5.845  16.748  0.00  0.00    +0.000 N 
ATOM     20  C   UNL     1       7.121   5.101  15.638  0.00  0.00    +0.000 A 
ATOM     21  C   UNL     1       6.228   4.036  15.715  0.00  0.00    +0.000 A 
ATOM     22  C   UNL     1       5.843   3.370  14.554  0.00  0.00    +0.000 A 
ATOM     23  C   UNL     1       6.334   3.798  13.324  0.00  0.00    +0.000 A 
ATOM     24  C   UNL     1       7.210   4.872  13.333  0.00  0.00    +0.000 A 
ATOM     25  N   UNL     1       7.613   5.517  14.456  0.00  0.00    +0.000 NA
ATOM     26  H   UNL     1       8.312   6.398  16.437  0.00  0.00    +0.000 HD
BRANCH  23  27
ATOM     27  C   UNL     1       5.936   3.162  12.031  0.00  0.00    +0.000 C 
ATOM     28  F   UNL     1       5.262   1.987  12.189  0.00  0.00    +0.000 F 
ATOM     29  F   UNL     1       5.120   3.959  11.286  0.00  0.00    +0.000 F 
ATOM     30  F   UNL     1       7.002   2.873  11.236  0.00  0.00    +0.000 F 
ENDBRANCH  23  27
ENDBRANCH  18  19
ENDBRANCH  17  18
ENDBRANCH   7  17
TORSDOF 5
ENDMDL
MODEL 2
REMARK VINA RESULT:      -9.3      0.646      1.172
REMARK  Name = 
REMARK  6 active torsions:
REMARK  status: ('A' for Active; 'I' for Inactive)
REMARK    1  A    between atoms: C_1  and  C_2
REMARK    2  A    between atoms: C_4  and  C_5
REMARK    3  A    between atoms: N_13  and  C_14
REMARK    4  A    between atoms: C_14  and  C_15
REMARK    5  A    between atoms: C_15  and  N_16
REMARK    6  A    between atoms: C_20  and  C_21
REMARK                            x       y       z     vdW  Elec       q    Type
REMARK                         _______ _______ _______ _____ _____    ______ ____
ROOT
ATOM      1  C   UNL     1       1.321   2.943  21.237  0.00  0.00    +0.000 C 
ATOM      2  C   UNL     1       2.183   3.973  20.569  0.00  0.00    +0.000 A 
ATOM      3  N   UNL     1       1.662   5.222  20.512  0.00  0.00    +0.000 NA
ATOM      4  C   UNL     1       2.427   6.189  19.965  0.00  0.00    +0.000 A 
ATOM      5  N   UNL     1       3.665   5.974  19.481  0.00  0.00    +0.000 NA
ATOM      6  C   UNL     1       4.184   4.736  19.559  0.00  0.00    +0.000 A 
ATOM      7  N   UNL     1       5.528   4.551  19.197  0.00  0.00    +0.000 N 
ATOM      8  C   UNL     1       3.448   3.675  20.084  0.00  0.00    +0.000 A 
ATOM      9 CL   UNL     1       4.107   2.079  20.177  0.00  0.00    +0.000 Cl
ATOM     10  H   UNL     1       5.609   3.804  18.511  0.00  0.00    +0.000 HD
ENDROOT
BRANCH   4  11
ATOM     11  C   UNL     1       1.893   7.575  19.950  0.00  0.00    +0.000 A 
ATOM     12  C   UNL     1       1.267   8.130  21.071  0.00  0.00    +0.000 A 
ATOM     13  C   UNL     1       0.796   9.443  21.020  0.00  0.00    +0.000 A 
ATOM     14  C   UNL     1       0.957  10.177  19.855  0.00  0.00    +0.000 A 
ATOM     15  C   UNL     1       1.584   9.566  18.782  0.00  0.00    +0.000 A 
ATOM     16  N   UNL     1       2.050   8.301  18.803  0.00  0.00    +0.000 NA
ENDBRANCH   4  11
BRANCH   7  17
ATOM     17  C   UNL     1       6.336   5.736  18.873  0.00  0.00    +0.000 C 
BRANCH  17  18
ATOM     18  C   UNL     1       7.558   5.402  17.990  0.00  0.00    +0.000 C 
BRANCH  18  19
ATOM     19  N   UNL     1       7.499   6.059  16.685  0.00  0.00    +0.000 N 
ATOM     20  C   UNL     1       7.078   5.269  15.619  0.00  0.00    +0.000 A 
ATOM     21  C   UNL     1       6.063   4.323  15.728  0.00  0.00    +0.000 A 
ATOM     22  C   UNL     1       5.663   3.604  14.605  0.00  0.00    +0.000 A 
ATOM     23  C   UNL     1       6.264   3.863  13.375  0.00  0.00    +0.000 A 
ATOM     24  C   UNL     1       7.258   4.827  13.350  0.00  0.00    +0.000 A 
ATOM     25  N   UNL     1       7.675   5.521  14.439  0.00  0.00    +0.000 NA
ATOM     26  H   UNL     1       8.371   6.489  16.380  0.00  0.00    +0.000 HD
BRANCH  23  27
ATOM     27  C   UNL     1       5.860   3.164  12.118  0.00  0.00    +0.000 C 
ATOM     28  F   UNL     1       4.640   3.552  11.647  0.00  0.00    +0.000 F 
ATOM     29  F   UNL     1       6.735   3.378  11.096  0.00  0.00    +0.000 F 
ATOM     30  F   UNL     1       5.786   1.813  12.267  0.00  0.00    +0.000 F 
ENDBRANCH  23  27
ENDBRANCH  18  19
ENDBRANCH  17  18
ENDBRANCH   7  17
TORSDOF 5
ENDMDL
MODEL 3
REMARK VINA RESULT:      -9.2      0.962      1.425
REMARK  Name = 
REMARK  6 active torsions:
REMARK  status: ('A' for Active; 'I' for Inactive)
REMARK    1  A    between atoms: C_1  and  C_2
REMARK    2  A    between atoms: C_4  and  C_5
REMARK    3  A    between atoms: N_13  and  C_14
REMARK    4  A    between atoms: C_14  and  C_15
REMARK    5  A    between atoms: C_15  and  N_16
REMARK    6  A    between atoms: C_20  and  C_21
REMARK                            x       y       z     vdW  Elec       q    Type
REMARK                         _______ _______ _______ _____ _____    ______ ____
ROOT
ATOM      1  C   UNL     1       0.784   2.636  19.124  0.00  0.00    +0.000 C 
ATOM      2  C   UNL     1       1.899   3.631  19.001  0.00  0.00    +0.000 A 
ATOM      3  N   UNL     1       1.522   4.932  18.983  0.00  0.00    +0.000 NA
ATOM      4  C   UNL     1       2.498   5.861  18.926  0.00  0.00    +0.000 A 
ATOM      5  N   UNL     1       3.810   5.559  18.886  0.00  0.00    +0.000 NA
ATOM      6  C   UNL     1       4.179   4.267  18.925  0.00  0.00    +0.000 A 
ATOM      7  N   UNL     1       5.546   3.965  19.040  0.00  0.00    +0.000 N 
ATOM      8  C   UNL     1       3.231   3.245  18.955  0.00  0.00    +0.000 A 
ATOM      9 CL   UNL     1       3.700   1.581  18.995  0.00  0.00    +0.000 Cl
ATOM     10  H   UNL     1       5.826   3.317  18.307  0.00  0.00    +0.000 HD
ENDROOT
BRANCH   4  11
ATOM     11  C   UNL     1       2.102   7.291  18.966  0.00  0.00    +0.000 A 
ATOM     12  C   UNL     1       1.595   7.878  20.130  0.00  0.00    +0.000 A 
ATOM     13  C   UNL     1       1.252   9.231  20.131  0.00  0.00    +0.000 A 
ATOM     14  C   UNL     1       1.421   9.973  18.972  0.00  0.00    +0.000 A 
ATOM     15  C   UNL     1       1.926   9.330  17.854  0.00  0.00    +0.000 A 
ATOM     16  N   UNL     1       2.267   8.026  17.826  0.00  0.00    +0.000 NA
ENDBRANCH   4  11
BRANCH   7  17
ATOM     17  C   UNL     1       6.493   5.072  19.241  0.00  0.00    +0.000 C 
BRANCH  17  18
ATOM     18  C   UNL     1       7.710   4.995  18.294  0.00  0.00    +0.000 C 
BRANCH  18  19
ATOM     19  N   UNL     1       7.529   5.802  17.088  0.00  0.00    +0.000 N 
ATOM     20  C   UNL     1       7.134   5.115  15.942  0.00  0.00    +0.000 A 
ATOM     21  C   UNL     1       6.218   4.068  15.963  0.00  0.00    +0.000 A 
ATOM     22  C   UNL     1       5.835   3.460  14.770  0.00  0.00    +0.000 A 
ATOM     23  C   UNL     1       6.351   3.930  13.565  0.00  0.00    +0.000 A 
ATOM     24  C   UNL     1       7.249   4.983  13.631  0.00  0.00    +0.000 A 
ATOM     25  N   UNL     1       7.650   5.571  14.785  0.00  0.00    +0.000 NA
ATOM     26  H   UNL     1       8.342   6.351  16.811  0.00  0.00    +0.000 HD
BRANCH  23  27
ATOM     27  C   UNL     1       5.956   3.359  12.241  0.00  0.00    +0.000 C 
ATOM     28  F   UNL     1       6.841   3.639  11.242  0.00  0.00    +0.000 F 
ATOM     29  F   UNL     1       5.849   2.001  12.269  0.00  0.00    +0.000 F 
ATOM     30  F   UNL     1       4.751   3.818  11.808  0.00  0.00    +0.000 F 
ENDBRANCH  23  27
ENDBRANCH  18  19
ENDBRANCH  17  18
ENDBRANCH   7  17
TORSDOF 5
ENDMDL
MODEL 4
REMARK VINA RESULT:      -8.5      1.109      1.361
REMARK  Name = 
REMARK  6 active torsions:
REMARK  status: ('A' for Active; 'I' for Inactive)
REMARK    1  A    between atoms: C_1  and  C_2
REMARK    2  A    between atoms: C_4  and  C_5
REMARK    3  A    between atoms: N_13  and  C_14
REMARK    4  A    between atoms: C_14  and  C_15
REMARK    5  A    between atoms: C_15  and  N_16
REMARK    6  A    between atoms: C_20  and  C_21
REMARK                            x       y       z     vdW  Elec       q    Type
REMARK                         _______ _______ _______ _____ _____    ______ ____
ROOT
ATOM      1  C   UNL     1       1.112   2.351  18.884  0.00  0.00    +0.000 C 
ATOM      2  C   UNL     1       2.172   3.409  18.801  0.00  0.00    +0.000 A 
ATOM      3  N   UNL     1       1.731   4.687  18.893  0.00  0.00    +0.000 NA
ATOM      4  C   UNL     1       2.657   5.666  18.875  0.00  0.00    +0.000 A 
ATOM      5  N   UNL     1       3.980   5.437  18.772  0.00  0.00    +0.000 NA
ATOM      6  C   UNL     1       4.414   4.167  18.702  0.00  0.00    +0.000 A 
ATOM      7  N   UNL     1       5.797   3.928  18.752  0.00  0.00    +0.000 N 
ATOM      8  C   UNL     1       3.519   3.097  18.685  0.00  0.00    +0.000 A 
ATOM      9 CL   UNL     1       4.070   1.461  18.585  0.00  0.00    +0.000 Cl
ATOM     10  H   UNL     1       6.083   3.351  17.964  0.00  0.00    +0.000 HD
ENDROOT
BRANCH   4  11
ATOM     11  C   UNL     1       2.192   7.068  19.035  0.00  0.00    +0.000 A 
ATOM     12  C   UNL     1       2.161   7.955  17.954  0.00  0.00    +0.000 A 
ATOM     13  C   UNL     1       1.699   9.259  18.143  0.00  0.00    +0.000 A 
ATOM     14  C   UNL     1       1.279   9.653  19.404  0.00  0.00    +0.000 A 
ATOM     15  C   UNL     1       1.338   8.725  20.430  0.00  0.00    +0.000 A 
ATOM     16  N   UNL     1       1.777   7.459  20.276  0.00  0.00    +0.000 NA
ENDBRANCH   4  11
BRANCH   7  17
ATOM     17  C   UNL     1       6.694   5.064  19.006  0.00  0.00    +0.000 C 
BRANCH  17  18
ATOM     18  C   UNL     1       6.374   6.287  18.119  0.00  0.00    +0.000 C 
BRANCH  18  19
ATOM     19  N   UNL     1       7.200   6.333  16.913  0.00  0.00    +0.000 N 
ATOM     20  C   UNL     1       6.740   5.595  15.825  0.00  0.00    +0.000 A 
ATOM     21  C   UNL     1       5.394   5.505  15.483  0.00  0.00    +0.000 A 
ATOM     22  C   UNL     1       5.013   4.789  14.352  0.00  0.00    +0.000 A 
ATOM     23  C   UNL     1       5.989   4.195  13.556  0.00  0.00    +0.000 A 
ATOM     24  C   UNL     1       7.306   4.340  13.960  0.00  0.00    +0.000 A 
ATOM     25  N   UNL     1       7.693   5.016  15.071  0.00  0.00    +0.000 NA
ATOM     26  H   UNL     1       8.170   6.049  17.045  0.00  0.00    +0.000 HD
BRANCH  23  27
ATOM     27  C   UNL     1       5.663   3.446  12.305  0.00  0.00    +0.000 C 
ATOM     28  F   UNL     1       6.325   3.909  11.206  0.00  0.00    +0.000 F 
ATOM     29  F   UNL     1       5.974   2.122  12.392  0.00  0.00    +0.000 F 
ATOM     30  F   UNL     1       4.340   3.498  11.989  0.00  0.00    +0.000 F 
ENDBRANCH  23  27
ENDBRANCH  18  19
ENDBRANCH  17  18
ENDBRANCH   7  17
TORSDOF 5
ENDMDL
MODEL 5
REMARK VINA RESULT:      -8.2      0.831      1.085
REMARK  Name = 
REMARK  6 active torsions:
REMARK  status: ('A' for Active; 'I' for Inactive)
REMARK    1  A    between atoms: C_1  and  C_2
REMARK    2  A    between atoms: C_4  and  C_5
REMARK    3  A    between atoms: N_13  and  C_14
REMARK    4  A    between atoms: C_14  and  C_15
REMARK    5  A    between atoms: C_15  and  N_16
REMARK    6  A    between atoms: C_20  and  C_21
REMARK                            x       y       z     vdW  Elec       q    Type
REMARK                         _______ _______ _______ _____ _____    ______ ____
ROOT
ATOM      1  C   UNL     1       1.317   3.119  20.847  0.00  0.00    +0.000 C 
ATOM      2  C   UNL     1       2.285   4.103  20.261  0.00  0.00    +0.000 A 
ATOM      3  N   UNL     1       1.779   5.331  19.992  0.00  0.00    +0.000 NA
ATOM      4  C   UNL     1       2.629   6.261  19.512  0.00  0.00    +0.000 A 
ATOM      5  N   UNL     1       3.937   6.030  19.292  0.00  0.00    +0.000 NA
ATOM      6  C   UNL     1       4.438   4.817  19.579  0.00  0.00    +0.000 A 
ATOM      7  N   UNL     1       5.828   4.629  19.495  0.00  0.00    +0.000 N 
ATOM      8  C   UNL     1       3.621   3.790  20.052  0.00  0.00    +0.000 A 
ATOM      9 CL   UNL     1       4.258   2.224  20.415  0.00  0.00    +0.000 Cl
ATOM     10  H   UNL     1       6.040   3.826  18.908  0.00  0.00    +0.000 HD
ENDROOT
BRANCH   4  11
ATOM     11  C   UNL     1       2.101   7.628  19.269  0.00  0.00    +0.000 A 
ATOM     12  C   UNL     1       2.230   8.250  18.023  0.00  0.00    +0.000 A 
ATOM     13  C   UNL     1       1.703   9.529  17.831  0.00  0.00    +0.000 A 
ATOM     14  C   UNL     1       1.059  10.161  18.883  0.00  0.00    +0.000 A 
ATOM     15  C   UNL     1       0.968   9.489  20.090  0.00  0.00    +0.000 A 
ATOM     16  N   UNL     1       1.465   8.254  20.304  0.00  0.00    +0.000 NA
ENDBRANCH   4  11
BRANCH   7  17
ATOM     17  C   UNL     1       6.676   5.798  19.222  0.00  0.00    +0.000 C 
BRANCH  17  18
ATOM     18  C   UNL     1       7.497   5.648  17.922  0.00  0.00    +0.000 C 
BRANCH  18  19
ATOM     19  N   UNL     1       7.406   4.302  17.358  0.00  0.00    +0.000 N 
ATOM     20  C   UNL     1       6.962   4.217  16.040  0.00  0.00    +0.000 A 
ATOM     21  C   UNL     1       7.327   5.129  15.055  0.00  0.00    +0.000 A 
ATOM     22  C   UNL     1       6.882   4.951  13.747  0.00  0.00    +0.000 A 
ATOM     23  C   UNL     1       6.099   3.843  13.435  0.00  0.00    +0.000 A 
ATOM     24  C   UNL     1       5.789   2.977  14.471  0.00  0.00    +0.000 A 
ATOM     25  N   UNL     1       6.195   3.148  15.755  0.00  0.00    +0.000 NA
ATOM     26  H   UNL     1       6.825   3.652  17.885  0.00  0.00    +0.000 HD
BRANCH  23  27
ATOM     27  C   UNL     1       5.619   3.561  12.048  0.00  0.00    +0.000 C 
ATOM     28  F   UNL     1       5.727   2.249  11.692  0.00  0.00    +0.000 F 
ATOM     29  F   UNL     1       4.307   3.883  11.874  0.00  0.00    +0.000 F 
ATOM     30  F   UNL     1       6.303   4.259  11.102  0.00  0.00    +0.000 F 
ENDBRANCH  23  27
ENDBRANCH  18  19
ENDBRANCH  17  18
ENDBRANCH   7  17
TORSDOF 5
ENDMDL
MODEL 6
REMARK VINA RESULT:      -7.9      5.642      9.252
REMARK  Name = 
REMARK  6 active torsions:
REMARK  status: ('A' for Active; 'I' for Inactive)
REMARK    1  A    between atoms: C_1  and  C_2
REMARK    2  A    between atoms: C_4  and  C_5
REMARK    3  A    between atoms: N_13  and  C_14
REMARK    4  A    between atoms: C_14  and  C_15
REMARK    5  A    between atoms: C_15  and  N_16
REMARK    6  A    between atoms: C_20  and  C_21
REMARK                            x       y       z     vdW  Elec       q    Type
REMARK                         _______ _______ _______ _____ _____    ______ ____
ROOT
ATOM      1  C   UNL     1       2.275   1.955  18.895  0.00  0.00    +0.000 C 
ATOM      2  C   UNL     1       2.807   3.301  18.503  0.00  0.00    +0.000 A 
ATOM      3  N   UNL     1       3.779   3.293  17.559  0.00  0.00    +0.000 NA
ATOM      4  C   UNL     1       4.248   4.486  17.141  0.00  0.00    +0.000 A 
ATOM      5  N   UNL     1       3.801   5.667  17.610  0.00  0.00    +0.000 NA
ATOM      6  C   UNL     1       2.822   5.669  18.531  0.00  0.00    +0.000 A 
ATOM      7  N   UNL     1       2.254   6.900  18.901  0.00  0.00    +0.000 N 
ATOM      8  C   UNL     1       2.303   4.478  19.037  0.00  0.00    +0.000 A 
ATOM      9 CL   UNL     1       1.050   4.475  20.229  0.00  0.00    +0.000 Cl
ATOM     10  H   UNL     1       2.274   7.007  19.912  0.00  0.00    +0.000 HD
ENDROOT
BRANCH   4  11
ATOM     11  C   UNL     1       5.271   4.494  16.065  0.00  0.00    +0.000 A 
ATOM     12  C   UNL     1       5.006   3.960  14.799  0.00  0.00    +0.000 A 
ATOM     13  C   UNL     1       5.990   4.005  13.810  0.00  0.00    +0.000 A 
ATOM     14  C   UNL     1       7.218   4.579  14.101  0.00  0.00    +0.000 A 
ATOM     15  C   UNL     1       7.415   5.087  15.374  0.00  0.00    +0.000 A 
ATOM     16  N   UNL     1       6.482   5.060  16.348  0.00  0.00    +0.000 NA
ENDBRANCH   4  11
BRANCH   7  17
ATOM     17  C   UNL     1       2.667   8.108  18.172  0.00  0.00    +0.000 C 
BRANCH  17  18
ATOM     18  C   UNL     1       1.467   8.946  17.678  0.00  0.00    +0.000 C 
BRANCH  18  19
ATOM     19  N   UNL     1       1.509  10.322  18.170  0.00  0.00    +0.000 N 
ATOM     20  C   UNL     1       0.715  10.602  19.280  0.00  0.00    +0.000 A 
ATOM     21  C   UNL     1       0.554   9.716  20.341  0.00  0.00    +0.000 A 
ATOM     22  C   UNL     1      -0.217  10.086  21.440  0.00  0.00    +0.000 A 
ATOM     23  C   UNL     1      -0.793  11.353  21.478  0.00  0.00    +0.000 A 
ATOM     24  C   UNL     1      -0.575  12.178  20.386  0.00  0.00    +0.000 A 
ATOM     25  N   UNL     1       0.154  11.826  19.298  0.00  0.00    +0.000 NA
ATOM     26  H   UNL     1       1.274  11.034  17.479  0.00  0.00    +0.000 HD
BRANCH  23  27
ATOM     27  C   UNL     1      -1.598  11.838  22.640  0.00  0.00    +0.000 C 
ATOM     28  F   UNL     1      -0.965  12.793  23.379  0.00  0.00    +0.000 F 
ATOM     29  F   UNL     1      -2.784  12.391  22.260  0.00  0.00    +0.000 F 
ATOM     30  F   UNL     1      -1.914  10.843  23.513  0.00  0.00    +0.000 F 
ENDBRANCH  23  27
ENDBRANCH  18  19
ENDBRANCH  17  18
ENDBRANCH   7  17
TORSDOF 5
ENDMDL
MODEL 7
REMARK VINA RESULT:      -7.8      4.879      7.730
REMARK  Name = 
REMARK  6 active torsions:
REMARK  status: ('A' for Active; 'I' for Inactive)
REMARK    1  A    between atoms: C_1  and  C_2
REMARK    2  A    between atoms: C_4  and  C_5
REMARK    3  A    between atoms: N_13  and  C_14
REMARK    4  A    between atoms: C_14  and  C_15
REMARK    5  A    between atoms: C_15  and  N_16
REMARK    6  A    between atoms: C_20  and  C_21
REMARK                            x       y       z     vdW  Elec       q    Type
REMARK                         _______ _______ _______ _____ _____    ______ ____
ROOT
ATOM      1  C   UNL     1      -4.808  11.295  17.573  0.00  0.00    +0.000 C 
ATOM      2  C   UNL     1      -3.421  11.330  18.143  0.00  0.00    +0.000 A 
ATOM      3  N   UNL     1      -3.286  12.003  19.311  0.00  0.00    +0.000 NA
ATOM      4  C   UNL     1      -2.065  12.014  19.883  0.00  0.00    +0.000 A 
ATOM      5  N   UNL     1      -0.991  11.396  19.356  0.00  0.00    +0.000 NA
ATOM      6  C   UNL     1      -1.136  10.713  18.207  0.00  0.00    +0.000 A 
ATOM      7  N   UNL     1      -0.055   9.945  17.745  0.00  0.00    +0.000 N 
ATOM      8  C   UNL     1      -2.358  10.676  17.537  0.00  0.00    +0.000 A 
ATOM      9 CL   UNL     1      -2.548   9.807  16.054  0.00  0.00    +0.000 Cl
ATOM     10  H   UNL     1       0.161  10.185  16.781  0.00  0.00    +0.000 HD
ENDROOT
BRANCH   4  11
ATOM     11  C   UNL     1      -1.916  12.697  21.193  0.00  0.00    +0.000 A 
ATOM     12  C   UNL     1      -2.946  12.699  22.139  0.00  0.00    +0.000 A 
ATOM     13  C   UNL     1      -2.758  13.337  23.366  0.00  0.00    +0.000 A 
ATOM     14  C   UNL     1      -1.547  13.961  23.627  0.00  0.00    +0.000 A 
ATOM     15  C   UNL     1      -0.570  13.923  22.646  0.00  0.00    +0.000 A 
ATOM     16  N   UNL     1      -0.724  13.312  21.454  0.00  0.00    +0.000 NA
ENDBRANCH   4  11
BRANCH   7  17
ATOM     17  C   UNL     1       1.134   9.822  18.602  0.00  0.00    +0.000 C 
BRANCH  17  18
ATOM     18  C   UNL     1       2.038   8.636  18.201  0.00  0.00    +0.000 C 
BRANCH  18  19
ATOM     19  N   UNL     1       2.336   7.756  19.330  0.00  0.00    +0.000 N 
ATOM     20  C   UNL     1       2.400   6.394  19.046  0.00  0.00    +0.000 A 
ATOM     21  C   UNL     1       2.963   5.887  17.878  0.00  0.00    +0.000 A 
ATOM     22  C   UNL     1       3.037   4.510  17.686  0.00  0.00    +0.000 A 
ATOM     23  C   UNL     1       2.572   3.654  18.681  0.00  0.00    +0.000 A 
ATOM     24  C   UNL     1       2.036   4.238  19.817  0.00  0.00    +0.000 A 
ATOM     25  N   UNL     1       1.937   5.577  20.010  0.00  0.00    +0.000 NA
ATOM     26  H   UNL     1       1.700   7.840  20.121  0.00  0.00    +0.000 HD
BRANCH  23  27
ATOM     27  C   UNL     1       2.655   2.166  18.567  0.00  0.00    +0.000 C 
ATOM     28  F   UNL     1       1.742   1.510  19.339  0.00  0.00    +0.000 F 
ATOM     29  F   UNL     1       2.444   1.727  17.294  0.00  0.00    +0.000 F 
ATOM     30  F   UNL     1       3.870   1.676  18.934  0.00  0.00    +0.000 F 
ENDBRANCH  23  27
ENDBRANCH  18  19
ENDBRANCH  17  18
ENDBRANCH   7  17
TORSDOF 5
ENDMDL
MODEL 8
REMARK VINA RESULT:      -7.8      4.161      5.116
REMARK  Name = 
REMARK  6 active torsions:
REMARK  status: ('A' for Active; 'I' for Inactive)
REMARK    1  A    between atoms: C_1  and  C_2
REMARK    2  A    between atoms: C_4  and  C_5
REMARK    3  A    between atoms: N_13  and  C_14
REMARK    4  A    between atoms: C_14  and  C_15
REMARK    5  A    between atoms: C_15  and  N_16
REMARK    6  A    between atoms: C_20  and  C_21
REMARK                            x       y       z     vdW  Elec       q    Type
REMARK                         _______ _______ _______ _____ _____    ______ ____
ROOT
ATOM      1  C   UNL     1       2.304   3.188  21.504  0.00  0.00    +0.000 C 
ATOM      2  C   UNL     1       2.658   3.901  20.232  0.00  0.00    +0.000 A 
ATOM      3  N   UNL     1       2.259   5.193  20.156  0.00  0.00    +0.000 NA
ATOM      4  C   UNL     1       2.603   5.885  19.051  0.00  0.00    +0.000 A 
ATOM      5  N   UNL     1       3.315   5.359  18.036  0.00  0.00    +0.000 NA
ATOM      6  C   UNL     1       3.726   4.082  18.126  0.00  0.00    +0.000 A 
ATOM      7  N   UNL     1       4.596   3.587  17.141  0.00  0.00    +0.000 N 
ATOM      8  C   UNL     1       3.388   3.289  19.223  0.00  0.00    +0.000 A 
ATOM      9 CL   UNL     1       3.906   1.644  19.340  0.00  0.00    +0.000 Cl
ATOM     10  H   UNL     1       4.228   2.726  16.745  0.00  0.00    +0.000 HD
ENDROOT
BRANCH   4  11
ATOM     11  C   UNL     1       2.224   7.318  18.980  0.00  0.00    +0.000 A 
ATOM     12  C   UNL     1       2.421   8.071  17.817  0.00  0.00    +0.000 A 
ATOM     13  C   UNL     1       2.033   9.411  17.786  0.00  0.00    +0.000 A 
ATOM     14  C   UNL     1       1.456   9.976  18.913  0.00  0.00    +0.000 A 
ATOM     15  C   UNL     1       1.290   9.176  20.031  0.00  0.00    +0.000 A 
ATOM     16  N   UNL     1       1.654   7.878  20.088  0.00  0.00    +0.000 NA
ENDBRANCH   4  11
BRANCH   7  17
ATOM     17  C   UNL     1       5.116   4.523  16.133  0.00  0.00    +0.000 C 
BRANCH  17  18
ATOM     18  C   UNL     1       6.599   4.885  16.364  0.00  0.00    +0.000 C 
BRANCH  18  19
ATOM     19  N   UNL     1       6.865   5.295  17.742  0.00  0.00    +0.000 N 
ATOM     20  C   UNL     1       7.404   6.568  17.910  0.00  0.00    +0.000 A 
ATOM     21  C   UNL     1       7.014   7.665  17.149  0.00  0.00    +0.000 A 
ATOM     22  C   UNL     1       7.562   8.919  17.408  0.00  0.00    +0.000 A 
ATOM     23  C   UNL     1       8.474   9.065  18.450  0.00  0.00    +0.000 A 
ATOM     24  C   UNL     1       8.801   7.926  19.167  0.00  0.00    +0.000 A 
ATOM     25  N   UNL     1       8.294   6.694  18.913  0.00  0.00    +0.000 NA
ATOM     26  H   UNL     1       7.474   4.669  18.268  0.00  0.00    +0.000 HD
BRANCH  23  27
ATOM     27  C   UNL     1       9.073  10.384  18.817  0.00  0.00    +0.000 C 
ATOM     28  F   UNL     1       8.598  10.890  19.991  0.00  0.00    +0.000 F 
ATOM     29  F   UNL     1      10.426  10.321  18.964  0.00  0.00    +0.000 F 
ATOM     30  F   UNL     1       8.844  11.345  17.881  0.00  0.00    +0.000 F 
ENDBRANCH  23  27
ENDBRANCH  18  19
ENDBRANCH  17  18
ENDBRANCH   7  17
TORSDOF 5
ENDMDL
MODEL 9
REMARK VINA RESULT:      -7.7      5.385      8.961
REMARK  Name = 
REMARK  6 active torsions:
REMARK  status: ('A' for Active; 'I' for Inactive)
REMARK    1  A    between atoms: C_1  and  C_2
REMARK    2  A    between atoms: C_4  and  C_5
REMARK    3  A    between atoms: N_13  and  C_14
REMARK    4  A    between atoms: C_14  and  C_15
REMARK    5  A    between atoms: C_15  and  N_16
REMARK    6  A    between atoms: C_20  and  C_21
REMARK                            x       y       z     vdW  Elec       q    Type
REMARK                         _______ _______ _______ _____ _____    ______ ____
ROOT
ATOM      1  C   UNL     1       2.078   2.143  19.061  0.00  0.00    +0.000 C 
ATOM      2  C   UNL     1       2.647   3.477  18.678  0.00  0.00    +0.000 A 
ATOM      3  N   UNL     1       3.639   3.447  17.757  0.00  0.00    +0.000 NA
ATOM      4  C   UNL     1       4.142   4.629  17.347  0.00  0.00    +0.000 A 
ATOM      5  N   UNL     1       3.710   5.820  17.803  0.00  0.00    +0.000 NA
ATOM      6  C   UNL     1       2.711   5.845  18.702  0.00  0.00    +0.000 A 
ATOM      7  N   UNL     1       2.160   7.087  19.056  0.00  0.00    +0.000 N 
ATOM      8  C   UNL     1       2.155   4.666  19.199  0.00  0.00    +0.000 A 
ATOM      9 CL   UNL     1       0.876   4.692  20.362  0.00  0.00    +0.000 Cl
ATOM     10  H   UNL     1       2.159   7.197  20.068  0.00  0.00    +0.000 HD
ENDROOT
BRANCH   4  11
ATOM     11  C   UNL     1       5.190   4.613  16.295  0.00  0.00    +0.000 A 
ATOM     12  C   UNL     1       4.955   4.050  15.036  0.00  0.00    +0.000 A 
ATOM     13  C   UNL     1       5.960   4.073  14.069  0.00  0.00    +0.000 A 
ATOM     14  C   UNL     1       7.181   4.656  14.374  0.00  0.00    +0.000 A 
ATOM     15  C   UNL     1       7.348   5.193  15.639  0.00  0.00    +0.000 A 
ATOM     16  N   UNL     1       6.394   5.187  16.591  0.00  0.00    +0.000 NA
ENDBRANCH   4  11
BRANCH   7  17
ATOM     17  C   UNL     1       2.615   8.285  18.335  0.00  0.00    +0.000 C 
BRANCH  17  18
ATOM     18  C   UNL     1       1.448   9.091  17.723  0.00  0.00    +0.000 C 
BRANCH  18  19
ATOM     19  N   UNL     1       0.768   9.926  18.713  0.00  0.00    +0.000 N 
ATOM     20  C   UNL     1      -0.542  10.292  18.411  0.00  0.00    +0.000 A 
ATOM     21  C   UNL     1      -1.450   9.432  17.801  0.00  0.00    +0.000 A 
ATOM     22  C   UNL     1      -2.758   9.853  17.575  0.00  0.00    +0.000 A 
ATOM     23  C   UNL     1      -3.151  11.122  17.992  0.00  0.00    +0.000 A 
ATOM     24  C   UNL     1      -2.190  11.911  18.602  0.00  0.00    +0.000 A 
ATOM     25  N   UNL     1      -0.906  11.526  18.809  0.00  0.00    +0.000 NA
ATOM     26  H   UNL     1       1.247  10.794  18.948  0.00  0.00    +0.000 HD
BRANCH  23  27
ATOM     27  C   UNL     1      -4.546  11.629  17.823  0.00  0.00    +0.000 C 
ATOM     28  F   UNL     1      -5.496  10.658  17.944  0.00  0.00    +0.000 F 
ATOM     29  F   UNL     1      -4.872  12.580  18.742  0.00  0.00    +0.000 F 
ATOM     30  F   UNL     1      -4.755  12.201  16.606  0.00  0.00    +0.000 F 
ENDBRANCH  23  27
ENDBRANCH  18  19
ENDBRANCH  17  18
ENDBRANCH   7  17
TORSDOF 5
ENDMDL
