MODEL 1
REMARK VINA RESULT:      -7.8      0.000      0.000
REMARK  Name = 
REMARK  9 active torsions:
REMARK  status: ('A' for Active; 'I' for Inactive)
REMARK    1  A    between atoms: C_1  and  C_2
REMARK    2  A    between atoms: C_2  and  O_3
REMARK    3  A    between atoms: O_3  and  C_4
REMARK    4  A    between atoms: C_6  and  C_7
REMARK    5  A    between atoms: C_7  and  N_8
REMARK    6  A    between atoms: N_8  and  C_9
REMARK    7  A    between atoms: C_18  and  O_19
REMARK    8  A    between atoms: O_19  and  C_20
REMARK    9  A    between atoms: C_20  and  C_21
REMARK                            x       y       z     vdW  Elec       q    Type
REMARK                         _______ _______ _______ _____ _____    ______ ____
ROOT
ATOM      1  C   UNL     1       2.374   5.812  19.822  0.00  0.00    +0.000 A 
ATOM      2  C   UNL     1       3.213   5.243  18.849  0.00  0.00    +0.000 A 
ATOM      3  C   UNL     1       3.608   5.968  17.719  0.00  0.00    +0.000 A 
ATOM      4  C   UNL     1       3.162   7.286  17.593  0.00  0.00    +0.000 A 
ATOM      5  C   UNL     1       2.345   7.882  18.573  0.00  0.00    +0.000 A 
ATOM      6 CL   UNL     1       1.831   9.495  18.206  0.00  0.00    +0.000 Cl
ATOM      7  C   UNL     1       1.966   7.165  19.723  0.00  0.00    +0.000 A 
ENDROOT
BRANCH   1   8
ATOM      8  O   UNL     1       1.995   5.123  20.953  0.00  0.00    +0.000 OA
BRANCH   8  10
ATOM      9  C   UNL     1       1.719   2.805  21.653  0.00  0.00    +0.000 C 
ATOM     10  C   UNL     1       1.219   3.935  20.769  0.00  0.00    +0.000 C 
ENDBRANCH   8  10
ENDBRANCH   1   8
BRANCH   3  11
ATOM     11  C   UNL     1       4.598   5.384  16.724  0.00  0.00    +0.000 C 
BRANCH  11  12
ATOM     12  N   UNL     1       5.597   4.615  17.461  0.00  0.00    +0.000 NA
ATOM     13  H   UNL     1       5.365   3.629  17.330  0.00  0.00    +0.000 HD
BRANCH  12  14
ATOM     14  C   UNL     1       6.988   4.811  17.025  0.00  0.00    +0.000 C 
ATOM     15  C   UNL     1       7.270   6.180  16.376  0.00  0.00    +0.000 C 
ATOM     16  C   UNL     1       7.303   7.369  17.345  0.00  0.00    +0.000 C 
ATOM     17  C   UNL     1       8.134   7.096  18.597  0.00  0.00    +0.000 C 
ATOM     18  C   UNL     1       7.714   5.791  19.259  0.00  0.00    +0.000 C 
ATOM     19  C   UNL     1       7.877   4.634  18.273  0.00  0.00    +0.000 C 
ENDBRANCH  12  14
ENDBRANCH  11  12
ENDBRANCH   3  11
BRANCH   7  20
ATOM     20  O   UNL     1       1.181   7.605  20.767  0.00  0.00    +0.000 OA
BRANCH  20  21
ATOM     21  C   UNL     1       1.717   8.569  21.678  0.00  0.00    +0.000 C 
BRANCH  21  22
ATOM     22  C   UNL     1       0.736   9.687  21.974  0.00  0.00    +0.000 A 
ATOM     23  C   UNL     1       0.650  10.829  21.157  0.00  0.00    +0.000 A 
ATOM     24  C   UNL     1      -0.316  11.811  21.401  0.00  0.00    +0.000 A 
ATOM     25  C   UNL     1      -1.209  11.655  22.454  0.00  0.00    +0.000 A 
ATOM     26  F   UNL     1      -2.142  12.591  22.679  0.00  0.00    +0.000 F 
ATOM     27  C   UNL     1      -1.148  10.536  23.273  0.00  0.00    +0.000 A 
ATOM     28  C   UNL     1      -0.180   9.554  23.032  0.00  0.00    +0.000 A 
ENDBRANCH  21  22
ENDBRANCH  20  21
ENDBRANCH   7  20
TORSDOF 8
ENDMDL
MODEL 2
REMARK VINA RESULT:      -7.7      0.706      1.159
REMARK  Name = 
REMARK  9 active torsions:
REMARK  status: ('A' for Active; 'I' for Inactive)
REMARK    1  A    between atoms: C_1  and  C_2
REMARK    2  A    between atoms: C_2  and  O_3
REMARK    3  A    between atoms: O_3  and  C_4
REMARK    4  A    between atoms: C_6  and  C_7
REMARK    5  A    between atoms: C_7  and  N_8
REMARK    6  A    between atoms: N_8  and  C_9
REMARK    7  A    between atoms: C_18  and  O_19
REMARK    8  A    between atoms: O_19  and  C_20
REMARK    9  A    between atoms: C_20  and  C_21
REMARK                            x       y       z     vdW  Elec       q    Type
REMARK                         _______ _______ _______ _____ _____    ______ ____
ROOT
ATOM      1  C   UNL     1       2.541   5.566  19.955  0.00  0.00    +0.000 A 
ATOM      2  C   UNL     1       3.217   4.816  18.978  0.00  0.00    +0.000 A 
ATOM      3  C   UNL     1       3.596   5.389  17.758  0.00  0.00    +0.000 A 
ATOM      4  C   UNL     1       3.300   6.738  17.544  0.00  0.00    +0.000 A 
ATOM      5  C   UNL     1       2.651   7.512  18.525  0.00  0.00    +0.000 A 
ATOM      6 CL   UNL     1       2.303   9.141  18.050  0.00  0.00    +0.000 Cl
ATOM      7  C   UNL     1       2.291   6.946  19.762  0.00  0.00    +0.000 A 
ENDROOT
BRANCH   1   8
ATOM      8  O   UNL     1       2.183   5.027  21.171  0.00  0.00    +0.000 OA
BRANCH   8  10
ATOM      9  C   UNL     1       2.379   2.659  21.713  0.00  0.00    +0.000 C 
ATOM     10  C   UNL     1       1.502   3.767  21.157  0.00  0.00    +0.000 C 
ENDBRANCH   8  10
ENDBRANCH   1   8
BRANCH   3  11
ATOM     11  C   UNL     1       4.417   4.603  16.748  0.00  0.00    +0.000 C 
BRANCH  11  12
ATOM     12  N   UNL     1       5.622   4.114  17.411  0.00  0.00    +0.000 NA
ATOM     13  H   UNL     1       5.586   3.094  17.371  0.00  0.00    +0.000 HD
BRANCH  12  14
ATOM     14  C   UNL     1       6.892   4.543  16.806  0.00  0.00    +0.000 C 
ATOM     15  C   UNL     1       6.858   5.950  16.177  0.00  0.00    +0.000 C 
ATOM     16  C   UNL     1       6.830   7.113  17.178  0.00  0.00    +0.000 C 
ATOM     17  C   UNL     1       7.855   6.961  18.299  0.00  0.00    +0.000 C 
ATOM     18  C   UNL     1       7.745   5.595  18.960  0.00  0.00    +0.000 C 
ATOM     19  C   UNL     1       7.957   4.495  17.919  0.00  0.00    +0.000 C 
ENDBRANCH  12  14
ENDBRANCH  11  12
ENDBRANCH   3  11
BRANCH   7  20
ATOM     20  O   UNL     1       1.658   7.568  20.818  0.00  0.00    +0.000 OA
BRANCH  20  21
ATOM     21  C   UNL     1       0.246   7.782  20.749  0.00  0.00    +0.000 C 
BRANCH  21  22
ATOM     22  C   UNL     1      -0.160   9.123  21.332  0.00  0.00    +0.000 A 
ATOM     23  C   UNL     1      -0.552   9.254  22.676  0.00  0.00    +0.000 A 
ATOM     24  C   UNL     1      -0.845  10.512  23.216  0.00  0.00    +0.000 A 
ATOM     25  C   UNL     1      -0.740  11.646  22.420  0.00  0.00    +0.000 A 
ATOM     26  F   UNL     1      -1.009  12.851  22.941  0.00  0.00    +0.000 F 
ATOM     27  C   UNL     1      -0.351  11.544  21.090  0.00  0.00    +0.000 A 
ATOM     28  C   UNL     1      -0.060  10.287  20.550  0.00  0.00    +0.000 A 
ENDBRANCH  21  22
ENDBRANCH  20  21
ENDBRANCH   7  20
TORSDOF 8
ENDMDL
MODEL 3
REMARK VINA RESULT:      -7.2      5.220      7.291
REMARK  Name = 
REMARK  9 active torsions:
REMARK  status: ('A' for Active; 'I' for Inactive)
REMARK    1  A    between atoms: C_1  and  C_2
REMARK    2  A    between atoms: C_2  and  O_3
REMARK    3  A    between atoms: O_3  and  C_4
REMARK    4  A    between atoms: C_6  and  C_7
REMARK    5  A    between atoms: C_7  and  N_8
REMARK    6  A    between atoms: N_8  and  C_9
REMARK    7  A    between atoms: C_18  and  O_19
REMARK    8  A    between atoms: O_19  and  C_20
REMARK    9  A    between atoms: C_20  and  C_21
REMARK                            x       y       z     vdW  Elec       q    Type
REMARK                         _______ _______ _______ _____ _____    ______ ____
ROOT
ATOM      1  C   UNL     1       6.241   6.493  17.327  0.00  0.00    +0.000 A 
ATOM      2  C   UNL     1       6.794   7.766  17.105  0.00  0.00    +0.000 A 
ATOM      3  C   UNL     1       7.860   8.237  17.880  0.00  0.00    +0.000 A 
ATOM      4  C   UNL     1       8.377   7.397  18.871  0.00  0.00    +0.000 A 
ATOM      5  C   UNL     1       7.855   6.107  19.085  0.00  0.00    +0.000 A 
ATOM      6 CL   UNL     1       8.574   5.245  20.404  0.00  0.00    +0.000 Cl
ATOM      7  C   UNL     1       6.799   5.620  18.292  0.00  0.00    +0.000 A 
ENDROOT
BRANCH   1   8
ATOM      8  O   UNL     1       5.209   6.001  16.559  0.00  0.00    +0.000 OA
BRANCH   8  10
ATOM      9  C   UNL     1       5.659   4.158  15.030  0.00  0.00    +0.000 C 
ATOM     10  C   UNL     1       5.504   5.659  15.201  0.00  0.00    +0.000 C 
ENDBRANCH   8  10
ENDBRANCH   1   8
BRANCH   3  11
ATOM     11  C   UNL     1       8.521   9.571  17.569  0.00  0.00    +0.000 C 
BRANCH  11  12
ATOM     12  N   UNL     1       9.093  10.103  18.803  0.00  0.00    +0.000 NA
ATOM     13  H   UNL     1      10.048   9.745  18.861  0.00  0.00    +0.000 HD
BRANCH  12  14
ATOM     14  C   UNL     1       9.156  11.570  18.886  0.00  0.00    +0.000 C 
ATOM     15  C   UNL     1       9.535  12.117  20.276  0.00  0.00    +0.000 C 
ATOM     16  C   UNL     1      11.007  11.935  20.672  0.00  0.00    +0.000 C 
ATOM     17  C   UNL     1      11.977  12.336  19.563  0.00  0.00    +0.000 C 
ATOM     18  C   UNL     1      11.619  11.657  18.249  0.00  0.00    +0.000 C 
ATOM     19  C   UNL     1      10.194  12.033  17.843  0.00  0.00    +0.000 C 
ENDBRANCH  12  14
ENDBRANCH  11  12
ENDBRANCH   3  11
BRANCH   7  20
ATOM     20  O   UNL     1       6.186   4.388  18.375  0.00  0.00    +0.000 OA
BRANCH  20  21
ATOM     21  C   UNL     1       5.429   4.070  19.546  0.00  0.00    +0.000 C 
BRANCH  21  22
ATOM     22  C   UNL     1       4.019   3.618  19.212  0.00  0.00    +0.000 A 
ATOM     23  C   UNL     1       3.774   2.434  18.494  0.00  0.00    +0.000 A 
ATOM     24  C   UNL     1       2.466   1.993  18.267  0.00  0.00    +0.000 A 
ATOM     25  C   UNL     1       1.395   2.727  18.761  0.00  0.00    +0.000 A 
ATOM     26  F   UNL     1       0.143   2.298  18.552  0.00  0.00    +0.000 F 
ATOM     27  C   UNL     1       1.609   3.899  19.475  0.00  0.00    +0.000 A 
ATOM     28  C   UNL     1       2.918   4.341  19.701  0.00  0.00    +0.000 A 
ENDBRANCH  21  22
ENDBRANCH  20  21
ENDBRANCH   7  20
TORSDOF 8
ENDMDL
MODEL 4
REMARK VINA RESULT:      -7.2      3.784      8.119
REMARK  Name = 
REMARK  9 active torsions:
REMARK  status: ('A' for Active; 'I' for Inactive)
REMARK    1  A    between atoms: C_1  and  C_2
REMARK    2  A    between atoms: C_2  and  O_3
REMARK    3  A    between atoms: O_3  and  C_4
REMARK    4  A    between atoms: C_6  and  C_7
REMARK    5  A    between atoms: C_7  and  N_8
REMARK    6  A    between atoms: N_8  and  C_9
REMARK    7  A    between atoms: C_18  and  O_19
REMARK    8  A    between atoms: O_19  and  C_20
REMARK    9  A    between atoms: C_20  and  C_21
REMARK                            x       y       z     vdW  Elec       q    Type
REMARK                         _______ _______ _______ _____ _____    ______ ____
ROOT
ATOM      1  C   UNL     1       2.351   4.832  20.055  0.00  0.00    +0.000 A 
ATOM      2  C   UNL     1       1.651   5.769  20.834  0.00  0.00    +0.000 A 
ATOM      3  C   UNL     1       1.654   7.129  20.506  0.00  0.00    +0.000 A 
ATOM      4  C   UNL     1       2.357   7.532  19.367  0.00  0.00    +0.000 A 
ATOM      5  C   UNL     1       3.038   6.602  18.558  0.00  0.00    +0.000 A 
ATOM      6 CL   UNL     1       3.913   7.297  17.235  0.00  0.00    +0.000 Cl
ATOM      7  C   UNL     1       3.018   5.230  18.870  0.00  0.00    +0.000 A 
ENDROOT
BRANCH   1   8
ATOM      8  O   UNL     1       2.340   3.486  20.347  0.00  0.00    +0.000 OA
BRANCH   8  10
ATOM      9  C   UNL     1       0.756   2.311  18.914  0.00  0.00    +0.000 C 
ATOM     10  C   UNL     1       1.075   2.816  20.310  0.00  0.00    +0.000 C 
ENDBRANCH   8  10
ENDBRANCH   1   8
BRANCH   3  11
ATOM     11  C   UNL     1       0.812   8.123  21.291  0.00  0.00    +0.000 C 
BRANCH  11  12
ATOM     12  N   UNL     1       1.074   9.463  20.774  0.00  0.00    +0.000 NA
ATOM     13  H   UNL     1       1.699   9.352  19.974  0.00  0.00    +0.000 HD
BRANCH  12  14
ATOM     14  C   UNL     1      -0.111  10.206  20.320  0.00  0.00    +0.000 C 
ATOM     15  C   UNL     1      -0.445  11.454  21.159  0.00  0.00    +0.000 C 
ATOM     16  C   UNL     1       0.499  12.648  20.960  0.00  0.00    +0.000 C 
ATOM     17  C   UNL     1       0.780  12.948  19.489  0.00  0.00    +0.000 C 
ATOM     18  C   UNL     1       1.229  11.695  18.751  0.00  0.00    +0.000 C 
ATOM     19  C   UNL     1       0.151  10.616  18.857  0.00  0.00    +0.000 C 
ENDBRANCH  12  14
ENDBRANCH  11  12
ENDBRANCH   3  11
BRANCH   7  20
ATOM     20  O   UNL     1       3.626   4.202  18.182  0.00  0.00    +0.000 OA
BRANCH  20  21
ATOM     21  C   UNL     1       5.051   4.083  18.234  0.00  0.00    +0.000 C 
BRANCH  21  22
ATOM     22  C   UNL     1       5.693   4.274  16.873  0.00  0.00    +0.000 A 
ATOM     23  C   UNL     1       4.968   4.087  15.683  0.00  0.00    +0.000 A 
ATOM     24  C   UNL     1       5.556   4.346  14.439  0.00  0.00    +0.000 A 
ATOM     25  C   UNL     1       6.867   4.802  14.377  0.00  0.00    +0.000 A 
ATOM     26  F   UNL     1       7.425   5.062  13.187  0.00  0.00    +0.000 F 
ATOM     27  C   UNL     1       7.604   4.999  15.538  0.00  0.00    +0.000 A 
ATOM     28  C   UNL     1       7.017   4.738  16.782  0.00  0.00    +0.000 A 
ENDBRANCH  21  22
ENDBRANCH  20  21
ENDBRANCH   7  20
TORSDOF 8
ENDMDL
MODEL 5
REMARK VINA RESULT:      -7.1      4.230      7.173
REMARK  Name = 
REMARK  9 active torsions:
REMARK  status: ('A' for Active; 'I' for Inactive)
REMARK    1  A    between atoms: C_1  and  C_2
REMARK    2  A    between atoms: C_2  and  O_3
REMARK    3  A    between atoms: O_3  and  C_4
REMARK    4  A    between atoms: C_6  and  C_7
REMARK    5  A    between atoms: C_7  and  N_8
REMARK    6  A    between atoms: N_8  and  C_9
REMARK    7  A    between atoms: C_18  and  O_19
REMARK    8  A    between atoms: O_19  and  C_20
REMARK    9  A    between atoms: C_20  and  C_21
REMARK                            x       y       z     vdW  Elec       q    Type
REMARK                         _______ _______ _______ _____ _____    ______ ____
ROOT
ATOM      1  C   UNL     1       4.288   6.441  17.501  0.00  0.00    +0.000 A 
ATOM      2  C   UNL     1       3.424   5.334  17.544  0.00  0.00    +0.000 A 
ATOM      3  C   UNL     1       3.774   4.118  16.945  0.00  0.00    +0.000 A 
ATOM      4  C   UNL     1       5.020   4.026  16.319  0.00  0.00    +0.000 A 
ATOM      5  C   UNL     1       5.912   5.116  16.295  0.00  0.00    +0.000 A 
ATOM      6 CL   UNL     1       7.373   4.837  15.409  0.00  0.00    +0.000 Cl
ATOM      7  C   UNL     1       5.573   6.333  16.916  0.00  0.00    +0.000 A 
ENDROOT
BRANCH   1   8
ATOM      8  O   UNL     1       3.972   7.637  18.105  0.00  0.00    +0.000 OA
BRANCH   8  10
ATOM      9  C   UNL     1       1.882   8.830  17.721  0.00  0.00    +0.000 C 
ATOM     10  C   UNL     1       2.627   7.808  18.562  0.00  0.00    +0.000 C 
ENDBRANCH   8  10
ENDBRANCH   1   8
BRANCH   3  11
ATOM     11  C   UNL     1       2.881   2.895  17.083  0.00  0.00    +0.000 C 
BRANCH  11  12
ATOM     12  N   UNL     1       1.637   3.300  17.731  0.00  0.00    +0.000 NA
ATOM     13  H   UNL     1       0.904   3.241  17.022  0.00  0.00    +0.000 HD
BRANCH  12  14
ATOM     14  C   UNL     1       1.225   2.473  18.875  0.00  0.00    +0.000 C 
ATOM     15  C   UNL     1       2.391   1.861  19.676  0.00  0.00    +0.000 C 
ATOM     16  C   UNL     1       3.174   2.851  20.549  0.00  0.00    +0.000 C 
ATOM     17  C   UNL     1       2.271   3.766  21.373  0.00  0.00    +0.000 C 
ATOM     18  C   UNL     1       1.224   4.436  20.495  0.00  0.00    +0.000 C 
ATOM     19  C   UNL     1       0.376   3.373  19.795  0.00  0.00    +0.000 C 
ENDBRANCH  12  14
ENDBRANCH  11  12
ENDBRANCH   3  11
BRANCH   7  20
ATOM     20  O   UNL     1       6.332   7.482  16.982  0.00  0.00    +0.000 OA
BRANCH  20  21
ATOM     21  C   UNL     1       7.610   7.431  17.623  0.00  0.00    +0.000 C 
BRANCH  21  22
ATOM     22  C   UNL     1       8.094   8.804  18.048  0.00  0.00    +0.000 A 
ATOM     23  C   UNL     1       8.984   8.973  19.124  0.00  0.00    +0.000 A 
ATOM     24  C   UNL     1       9.481  10.240  19.449  0.00  0.00    +0.000 A 
ATOM     25  C   UNL     1       9.100  11.344  18.697  0.00  0.00    +0.000 A 
ATOM     26  F   UNL     1       9.587  12.555  19.002  0.00  0.00    +0.000 F 
ATOM     27  C   UNL     1       8.225  11.205  17.628  0.00  0.00    +0.000 A 
ATOM     28  C   UNL     1       7.726   9.938  17.304  0.00  0.00    +0.000 A 
ENDBRANCH  21  22
ENDBRANCH  20  21
ENDBRANCH   7  20
TORSDOF 8
ENDMDL
MODEL 6
REMARK VINA RESULT:      -7.1      4.706      7.133
REMARK  Name = 
REMARK  9 active torsions:
REMARK  status: ('A' for Active; 'I' for Inactive)
REMARK    1  A    between atoms: C_1  and  C_2
REMARK    2  A    between atoms: C_2  and  O_3
REMARK    3  A    between atoms: O_3  and  C_4
REMARK    4  A    between atoms: C_6  and  C_7
REMARK    5  A    between atoms: C_7  and  N_8
REMARK    6  A    between atoms: N_8  and  C_9
REMARK    7  A    between atoms: C_18  and  O_19
REMARK    8  A    between atoms: O_19  and  C_20
REMARK    9  A    between atoms: C_20  and  C_21
REMARK                            x       y       z     vdW  Elec       q    Type
REMARK                         _______ _______ _______ _____ _____    ______ ____
ROOT
ATOM      1  C   UNL     1       5.906   6.787  17.467  0.00  0.00    +0.000 A 
ATOM      2  C   UNL     1       6.524   8.029  17.241  0.00  0.00    +0.000 A 
ATOM      3  C   UNL     1       7.751   8.346  17.836  0.00  0.00    +0.000 A 
ATOM      4  C   UNL     1       8.358   7.384  18.648  0.00  0.00    +0.000 A 
ATOM      5  C   UNL     1       7.768   6.123  18.859  0.00  0.00    +0.000 A 
ATOM      6 CL   UNL     1       8.631   5.094  19.953  0.00  0.00    +0.000 Cl
ATOM      7  C   UNL     1       6.547   5.791  18.243  0.00  0.00    +0.000 A 
ENDROOT
BRANCH   1   8
ATOM      8  O   UNL     1       4.712   6.447  16.871  0.00  0.00    +0.000 OA
BRANCH   8  10
ATOM      9  C   UNL     1       2.702   6.773  18.210  0.00  0.00    +0.000 C 
ATOM     10  C   UNL     1       3.593   7.308  17.102  0.00  0.00    +0.000 C 
ENDBRANCH   8  10
ENDBRANCH   1   8
BRANCH   3  11
ATOM     11  C   UNL     1       8.463   9.649  17.508  0.00  0.00    +0.000 C 
BRANCH  11  12
ATOM     12  N   UNL     1       8.978  10.221  18.749  0.00  0.00    +0.000 NA
ATOM     13  H   UNL     1       9.871   9.762  18.937  0.00  0.00    +0.000 HD
BRANCH  12  14
ATOM     14  C   UNL     1       9.214  11.672  18.722  0.00  0.00    +0.000 C 
ATOM     15  C   UNL     1       9.455  12.308  20.105  0.00  0.00    +0.000 C 
ATOM     16  C   UNL     1      10.818  11.999  20.739  0.00  0.00    +0.000 C 
ATOM     17  C   UNL     1      11.982  12.175  19.767  0.00  0.00    +0.000 C 
ATOM     18  C   UNL     1      11.734  11.415  18.472  0.00  0.00    +0.000 C 
ATOM     19  C   UNL     1      10.442  11.909  17.820  0.00  0.00    +0.000 C 
ENDBRANCH  12  14
ENDBRANCH  11  12
ENDBRANCH   3  11
BRANCH   7  20
ATOM     20  O   UNL     1       5.849   4.606  18.346  0.00  0.00    +0.000 OA
BRANCH  20  21
ATOM     21  C   UNL     1       5.164   4.312  19.567  0.00  0.00    +0.000 C 
BRANCH  21  22
ATOM     22  C   UNL     1       3.826   3.639  19.326  0.00  0.00    +0.000 A 
ATOM     23  C   UNL     1       2.814   3.639  20.302  0.00  0.00    +0.000 A 
ATOM     24  C   UNL     1       1.558   3.083  20.031  0.00  0.00    +0.000 A 
ATOM     25  C   UNL     1       1.303   2.533  18.781  0.00  0.00    +0.000 A 
ATOM     26  F   UNL     1       0.097   2.012  18.519  0.00  0.00    +0.000 F 
ATOM     27  C   UNL     1       2.284   2.523  17.798  0.00  0.00    +0.000 A 
ATOM     28  C   UNL     1       3.540   3.076  18.070  0.00  0.00    +0.000 A 
ENDBRANCH  21  22
ENDBRANCH  20  21
ENDBRANCH   7  20
TORSDOF 8
ENDMDL
MODEL 7
REMARK VINA RESULT:      -7.1      4.408      8.260
REMARK  Name = 
REMARK  9 active torsions:
REMARK  status: ('A' for Active; 'I' for Inactive)
REMARK    1  A    between atoms: C_1  and  C_2
REMARK    2  A    between atoms: C_2  and  O_3
REMARK    3  A    between atoms: O_3  and  C_4
REMARK    4  A    between atoms: C_6  and  C_7
REMARK    5  A    between atoms: C_7  and  N_8
REMARK    6  A    between atoms: N_8  and  C_9
REMARK    7  A    between atoms: C_18  and  O_19
REMARK    8  A    between atoms: O_19  and  C_20
REMARK    9  A    between atoms: C_20  and  C_21
REMARK                            x       y       z     vdW  Elec       q    Type
REMARK                         _______ _______ _______ _____ _____    ______ ____
ROOT
ATOM      1  C   UNL     1       0.141   9.505  20.805  0.00  0.00    +0.000 A 
ATOM      2  C   UNL     1      -0.478  10.679  20.342  0.00  0.00    +0.000 A 
ATOM      3  C   UNL     1      -0.124  11.248  19.113  0.00  0.00    +0.000 A 
ATOM      4  C   UNL     1       0.851  10.605  18.346  0.00  0.00    +0.000 A 
ATOM      5  C   UNL     1       1.459   9.411  18.781  0.00  0.00    +0.000 A 
ATOM      6 CL   UNL     1       2.696   8.804  17.732  0.00  0.00    +0.000 Cl
ATOM      7  C   UNL     1       1.088   8.822  20.004  0.00  0.00    +0.000 A 
ENDROOT
BRANCH   1   8
ATOM      8  O   UNL     1      -0.212   8.917  21.999  0.00  0.00    +0.000 OA
BRANCH   8  10
ATOM      9  C   UNL     1      -1.225  10.735  23.267  0.00  0.00    +0.000 C 
ATOM     10  C   UNL     1      -0.103   9.714  23.183  0.00  0.00    +0.000 C 
ENDBRANCH   8  10
ENDBRANCH   1   8
BRANCH   3  11
ATOM     11  C   UNL     1      -0.867  12.458  18.570  0.00  0.00    +0.000 C 
BRANCH  11  12
ATOM     12  N   UNL     1      -1.663  12.035  17.421  0.00  0.00    +0.000 NA
ATOM     13  H   UNL     1      -1.025  11.561  16.779  0.00  0.00    +0.000 HD
BRANCH  12  14
ATOM     14  C   UNL     1      -2.765  11.110  17.724  0.00  0.00    +0.000 C 
ATOM     15  C   UNL     1      -4.150  11.582  17.239  0.00  0.00    +0.000 C 
ATOM     16  C   UNL     1      -4.374  11.505  15.723  0.00  0.00    +0.000 C 
ATOM     17  C   UNL     1      -3.928  10.174  15.121  0.00  0.00    +0.000 C 
ATOM     18  C   UNL     1      -2.505   9.834  15.538  0.00  0.00    +0.000 C 
ATOM     19  C   UNL     1      -2.414   9.762  17.063  0.00  0.00    +0.000 C 
ENDBRANCH  12  14
ENDBRANCH  11  12
ENDBRANCH   3  11
BRANCH   7  20
ATOM     20  O   UNL     1       1.583   7.663  20.563  0.00  0.00    +0.000 OA
BRANCH  20  21
ATOM     21  C   UNL     1       2.511   6.875  19.812  0.00  0.00    +0.000 C 
BRANCH  21  22
ATOM     22  C   UNL     1       1.949   5.512  19.456  0.00  0.00    +0.000 A 
ATOM     23  C   UNL     1       2.044   4.992  18.153  0.00  0.00    +0.000 A 
ATOM     24  C   UNL     1       1.592   3.700  17.863  0.00  0.00    +0.000 A 
ATOM     25  C   UNL     1       1.051   2.916  18.874  0.00  0.00    +0.000 A 
ATOM     26  F   UNL     1       0.629   1.674  18.599  0.00  0.00    +0.000 F 
ATOM     27  C   UNL     1       0.948   3.404  20.171  0.00  0.00    +0.000 A 
ATOM     28  C   UNL     1       1.398   4.697  20.460  0.00  0.00    +0.000 A 
ENDBRANCH  21  22
ENDBRANCH  20  21
ENDBRANCH   7  20
TORSDOF 8
ENDMDL
MODEL 8
REMARK VINA RESULT:      -7.0      1.583      2.888
REMARK  Name = 
REMARK  9 active torsions:
REMARK  status: ('A' for Active; 'I' for Inactive)
REMARK    1  A    between atoms: C_1  and  C_2
REMARK    2  A    between atoms: C_2  and  O_3
REMARK    3  A    between atoms: O_3  and  C_4
REMARK    4  A    between atoms: C_6  and  C_7
REMARK    5  A    between atoms: C_7  and  N_8
REMARK    6  A    between atoms: N_8  and  C_9
REMARK    7  A    between atoms: C_18  and  O_19
REMARK    8  A    between atoms: O_19  and  C_20
REMARK    9  A    between atoms: C_20  and  C_21
REMARK                            x       y       z     vdW  Elec       q    Type
REMARK                         _______ _______ _______ _____ _____    ______ ____
ROOT
ATOM      1  C   UNL     1       2.303   6.885  18.809  0.00  0.00    +0.000 A 
ATOM      2  C   UNL     1       3.094   6.208  17.865  0.00  0.00    +0.000 A 
ATOM      3  C   UNL     1       3.614   4.937  18.134  0.00  0.00    +0.000 A 
ATOM      4  C   UNL     1       3.310   4.346  19.364  0.00  0.00    +0.000 A 
ATOM      5  C   UNL     1       2.494   4.998  20.309  0.00  0.00    +0.000 A 
ATOM      6 CL   UNL     1       2.290   4.143  21.801  0.00  0.00    +0.000 Cl
ATOM      7  C   UNL     1       1.948   6.265  20.032  0.00  0.00    +0.000 A 
ENDROOT
BRANCH   1   8
ATOM      8  O   UNL     1       1.761   8.125  18.553  0.00  0.00    +0.000 OA
BRANCH   8  10
ATOM      9  C   UNL     1       2.048  10.458  17.909  0.00  0.00    +0.000 C 
ATOM     10  C   UNL     1       2.532   9.027  17.752  0.00  0.00    +0.000 C 
ENDBRANCH   8  10
ENDBRANCH   1   8
BRANCH   3  11
ATOM     11  C   UNL     1       4.382   4.167  17.071  0.00  0.00    +0.000 C 
BRANCH  11  12
ATOM     12  N   UNL     1       5.709   3.853  17.594  0.00  0.00    +0.000 NA
ATOM     13  H   UNL     1       5.798   2.835  17.578  0.00  0.00    +0.000 HD
BRANCH  12  14
ATOM     14  C   UNL     1       6.835   4.414  16.833  0.00  0.00    +0.000 C 
ATOM     15  C   UNL     1       6.559   5.795  16.207  0.00  0.00    +0.000 C 
ATOM     16  C   UNL     1       6.519   6.967  17.197  0.00  0.00    +0.000 C 
ATOM     17  C   UNL     1       7.686   6.956  18.182  0.00  0.00    +0.000 C 
ATOM     18  C   UNL     1       7.819   5.599  18.859  0.00  0.00    +0.000 C 
ATOM     19  C   UNL     1       8.028   4.511  17.804  0.00  0.00    +0.000 C 
ENDBRANCH  12  14
ENDBRANCH  11  12
ENDBRANCH   3  11
BRANCH   7  20
ATOM     20  O   UNL     1       1.134   7.025  20.845  0.00  0.00    +0.000 OA
BRANCH  20  21
ATOM     21  C   UNL     1       1.708   8.111  21.578  0.00  0.00    +0.000 C 
BRANCH  21  22
ATOM     22  C   UNL     1       0.707   9.221  21.837  0.00  0.00    +0.000 A 
ATOM     23  C   UNL     1      -0.080   9.246  23.003  0.00  0.00    +0.000 A 
ATOM     24  C   UNL     1      -0.939  10.320  23.262  0.00  0.00    +0.000 A 
ATOM     25  C   UNL     1      -1.011  11.378  22.365  0.00  0.00    +0.000 A 
ATOM     26  F   UNL     1      -1.825  12.412  22.620  0.00  0.00    +0.000 F 
ATOM     27  C   UNL     1      -0.242  11.380  21.208  0.00  0.00    +0.000 A 
ATOM     28  C   UNL     1       0.616  10.305  20.948  0.00  0.00    +0.000 A 
ENDBRANCH  21  22
ENDBRANCH  20  21
ENDBRANCH   7  20
TORSDOF 8
ENDMDL
MODEL 9
REMARK VINA RESULT:      -7.0      5.470      7.263
REMARK  Name = 
REMARK  9 active torsions:
REMARK  status: ('A' for Active; 'I' for Inactive)
REMARK    1  A    between atoms: C_1  and  C_2
REMARK    2  A    between atoms: C_2  and  O_3
REMARK    3  A    between atoms: O_3  and  C_4
REMARK    4  A    between atoms: C_6  and  C_7
REMARK    5  A    between atoms: C_7  and  N_8
REMARK    6  A    between atoms: N_8  and  C_9
REMARK    7  A    between atoms: C_18  and  O_19
REMARK    8  A    between atoms: O_19  and  C_20
REMARK    9  A    between atoms: C_20  and  C_21
REMARK                            x       y       z     vdW  Elec       q    Type
REMARK                         _______ _______ _______ _____ _____    ______ ____
ROOT
ATOM      1  C   UNL     1       6.109   6.254  17.357  0.00  0.00    +0.000 A 
ATOM      2  C   UNL     1       6.642   7.528  17.094  0.00  0.00    +0.000 A 
ATOM      3  C   UNL     1       7.711   8.034  17.843  0.00  0.00    +0.000 A 
ATOM      4  C   UNL     1       8.250   7.229  18.850  0.00  0.00    +0.000 A 
ATOM      5  C   UNL     1       7.748   5.938  19.106  0.00  0.00    +0.000 A 
ATOM      6 CL   UNL     1       8.493   5.122  20.440  0.00  0.00    +0.000 Cl
ATOM      7  C   UNL     1       6.690   5.415  18.339  0.00  0.00    +0.000 A 
ENDROOT
BRANCH   1   8
ATOM      8  O   UNL     1       5.074   5.728  16.615  0.00  0.00    +0.000 OA
BRANCH   8  10
ATOM      9  C   UNL     1       6.146   4.346  14.918  0.00  0.00    +0.000 C 
ATOM     10  C   UNL     1       5.290   5.566  15.209  0.00  0.00    +0.000 C 
ENDBRANCH   8  10
ENDBRANCH   1   8
BRANCH   3  11
ATOM     11  C   UNL     1       8.349   9.367  17.488  0.00  0.00    +0.000 C 
BRANCH  11  12
ATOM     12  N   UNL     1       8.580  10.113  18.722  0.00  0.00    +0.000 NA
ATOM     13  H   UNL     1       8.367   9.479  19.494  0.00  0.00    +0.000 HD
BRANCH  12  14
ATOM     14  C   UNL     1       9.952  10.608  18.912  0.00  0.00    +0.000 C 
ATOM     15  C   UNL     1      10.494  11.455  17.744  0.00  0.00    +0.000 C 
ATOM     16  C   UNL     1       9.898  12.865  17.626  0.00  0.00    +0.000 C 
ATOM     17  C   UNL     1       9.853  13.607  18.960  0.00  0.00    +0.000 C 
ATOM     18  C   UNL     1       9.188  12.760  20.036  0.00  0.00    +0.000 C 
ATOM     19  C   UNL     1       9.951  11.445  20.207  0.00  0.00    +0.000 C 
ENDBRANCH  12  14
ENDBRANCH  11  12
ENDBRANCH   3  11
BRANCH   7  20
ATOM     20  O   UNL     1       6.094   4.178  18.462  0.00  0.00    +0.000 OA
BRANCH  20  21
ATOM     21  C   UNL     1       5.366   3.877  19.656  0.00  0.00    +0.000 C 
BRANCH  21  22
ATOM     22  C   UNL     1       3.978   3.341  19.362  0.00  0.00    +0.000 A 
ATOM     23  C   UNL     1       2.914   3.512  20.267  0.00  0.00    +0.000 A 
ATOM     24  C   UNL     1       1.623   3.081  19.942  0.00  0.00    +0.000 A 
ATOM     25  C   UNL     1       1.384   2.486  18.710  0.00  0.00    +0.000 A 
ATOM     26  F   UNL     1       0.145   2.085  18.394  0.00  0.00    +0.000 F 
ATOM     27  C   UNL     1       2.416   2.308  17.797  0.00  0.00    +0.000 A 
ATOM     28  C   UNL     1       3.708   2.737  18.123  0.00  0.00    +0.000 A 
ENDBRANCH  21  22
ENDBRANCH  20  21
ENDBRANCH   7  20
TORSDOF 8
ENDMDL
