MODEL 1
REMARK VINA RESULT:      -6.5      0.000      0.000
REMARK  Name = 
REMARK  3 active torsions:
REMARK  status: ('A' for Active; 'I' for Inactive)
REMARK    1  A    between atoms: C_1  and  C_2
REMARK    2  A    between atoms: C_2  and  C_3
REMARK    3  A    between atoms: C_3  and  N_4
REMARK                            x       y       z     vdW  Elec       q    Type
REMARK                         _______ _______ _______ _____ _____    ______ ____
ROOT
ATOM      1  N   UNL     1       3.381   3.872  18.974  0.00  0.00    +0.000 N 
ATOM      2  C   UNL     1       4.502   3.188  19.444  0.00  0.00    +0.000 A 
ATOM      3  S   UNL     1       4.526   1.746  20.304  0.00  0.00    +0.000 S 
ATOM      4  N   UNL     1       5.726   3.737  19.169  0.00  0.00    +0.000 N 
ATOM      5  C   UNL     1       5.913   4.921  18.463  0.00  0.00    +0.000 A 
ATOM      6  C   UNL     1       7.203   5.387  18.209  0.00  0.00    +0.000 A 
ATOM      7  C   UNL     1       7.382   6.578  17.500  0.00  0.00    +0.000 A 
ATOM      8  C   UNL     1       6.274   7.303  17.057  0.00  0.00    +0.000 A 
ATOM      9  C   UNL     1       4.986   6.830  17.312  0.00  0.00    +0.000 A 
ATOM     10  C   UNL     1       4.810   5.631  18.011  0.00  0.00    +0.000 A 
ATOM     11  C   UNL     1       3.465   5.085  18.267  0.00  0.00    +0.000 A 
ATOM     12  O   UNL     1       2.493   5.704  17.838  0.00  0.00    +0.000 OA
ATOM     13  H   UNL     1       6.533   3.222  19.507  0.00  0.00    +0.000 HD
ENDROOT
BRANCH   1  14
ATOM     14  C   UNL     1       2.020   3.333  19.144  0.00  0.00    +0.000 C 
BRANCH  14  16
ATOM     15  C   UNL     1       1.283   2.819  21.543  0.00  0.00    +0.000 C 
ATOM     16  C   UNL     1       1.292   3.825  20.401  0.00  0.00    +0.000 C 
ENDBRANCH  14  16
ENDBRANCH   1  14
TORSDOF 2
ENDMDL
MODEL 2
REMARK VINA RESULT:      -6.5      2.178      5.123
REMARK  Name = 
REMARK  3 active torsions:
REMARK  status: ('A' for Active; 'I' for Inactive)
REMARK    1  A    between atoms: C_1  and  C_2
REMARK    2  A    between atoms: C_2  and  C_3
REMARK    3  A    between atoms: C_3  and  N_4
REMARK                            x       y       z     vdW  Elec       q    Type
REMARK                         _______ _______ _______ _____ _____    ______ ____
ROOT
ATOM      1  N   UNL     1       4.890   5.570  17.057  0.00  0.00    +0.000 N 
ATOM      2  C   UNL     1       5.242   4.347  16.485  0.00  0.00    +0.000 A 
ATOM      3  S   UNL     1       6.529   4.042  15.451  0.00  0.00    +0.000 S 
ATOM      4  N   UNL     1       4.467   3.265  16.806  0.00  0.00    +0.000 N 
ATOM      5  C   UNL     1       3.363   3.315  17.652  0.00  0.00    +0.000 A 
ATOM      6  C   UNL     1       2.650   2.150  17.939  0.00  0.00    +0.000 A 
ATOM      7  C   UNL     1       1.542   2.210  18.789  0.00  0.00    +0.000 A 
ATOM      8  C   UNL     1       1.145   3.430  19.339  0.00  0.00    +0.000 A 
ATOM      9  C   UNL     1       1.864   4.591  19.049  0.00  0.00    +0.000 A 
ATOM     10  C   UNL     1       2.981   4.526  18.208  0.00  0.00    +0.000 A 
ATOM     11  C   UNL     1       3.783   5.726  17.909  0.00  0.00    +0.000 A 
ATOM     12  O   UNL     1       3.456   6.791  18.430  0.00  0.00    +0.000 OA
ATOM     13  H   UNL     1       4.742   2.380  16.392  0.00  0.00    +0.000 HD
ENDROOT
BRANCH   1  14
ATOM     14  C   UNL     1       5.700   6.783  16.845  0.00  0.00    +0.000 C 
BRANCH  14  16
ATOM     15  C   UNL     1       7.744   8.153  17.557  0.00  0.00    +0.000 C 
ATOM     16  C   UNL     1       7.004   6.827  17.650  0.00  0.00    +0.000 C 
ENDBRANCH  14  16
ENDBRANCH   1  14
TORSDOF 2
ENDMDL
MODEL 3
REMARK VINA RESULT:      -6.4      2.428      5.192
REMARK  Name = 
REMARK  3 active torsions:
REMARK  status: ('A' for Active; 'I' for Inactive)
REMARK    1  A    between atoms: C_1  and  C_2
REMARK    2  A    between atoms: C_2  and  C_3
REMARK    3  A    between atoms: C_3  and  N_4
REMARK                            x       y       z     vdW  Elec       q    Type
REMARK                         _______ _______ _______ _____ _____    ______ ____
ROOT
ATOM      1  N   UNL     1       6.195   4.615  17.731  0.00  0.00    +0.000 N 
ATOM      2  C   UNL     1       5.685   4.352  16.459  0.00  0.00    +0.000 A 
ATOM      3  S   UNL     1       6.509   4.427  14.998  0.00  0.00    +0.000 S 
ATOM      4  N   UNL     1       4.370   3.977  16.382  0.00  0.00    +0.000 N 
ATOM      5  C   UNL     1       3.526   3.850  17.481  0.00  0.00    +0.000 A 
ATOM      6  C   UNL     1       2.206   3.435  17.303  0.00  0.00    +0.000 A 
ATOM      7  C   UNL     1       1.364   3.311  18.412  0.00  0.00    +0.000 A 
ATOM      8  C   UNL     1       1.840   3.611  19.690  0.00  0.00    +0.000 A 
ATOM      9  C   UNL     1       3.162   4.023  19.861  0.00  0.00    +0.000 A 
ATOM     10  C   UNL     1       4.006   4.134  18.750  0.00  0.00    +0.000 A 
ATOM     11  C   UNL     1       5.417   4.532  18.899  0.00  0.00    +0.000 A 
ATOM     12  O   UNL     1       5.844   4.753  20.031  0.00  0.00    +0.000 OA
ATOM     13  H   UNL     1       4.016   3.777  15.452  0.00  0.00    +0.000 HD
ENDROOT
BRANCH   1  14
ATOM     14  C   UNL     1       7.615   4.949  17.939  0.00  0.00    +0.000 C 
BRANCH  14  16
ATOM     15  C   UNL     1       7.512   7.467  17.475  0.00  0.00    +0.000 C 
ATOM     16  C   UNL     1       7.865   6.368  18.466  0.00  0.00    +0.000 C 
ENDBRANCH  14  16
ENDBRANCH   1  14
TORSDOF 2
ENDMDL
MODEL 4
REMARK VINA RESULT:      -6.3      1.430      1.622
REMARK  Name = 
REMARK  3 active torsions:
REMARK  status: ('A' for Active; 'I' for Inactive)
REMARK    1  A    between atoms: C_1  and  C_2
REMARK    2  A    between atoms: C_2  and  C_3
REMARK    3  A    between atoms: C_3  and  N_4
REMARK                            x       y       z     vdW  Elec       q    Type
REMARK                         _______ _______ _______ _____ _____    ______ ____
ROOT
ATOM      1  N   UNL     1       4.137   4.139  17.936  0.00  0.00    +0.000 N 
ATOM      2  C   UNL     1       4.759   3.616  19.070  0.00  0.00    +0.000 A 
ATOM      3  S   UNL     1       4.264   2.296  19.983  0.00  0.00    +0.000 S 
ATOM      4  N   UNL     1       5.910   4.228  19.487  0.00  0.00    +0.000 N 
ATOM      5  C   UNL     1       6.484   5.330  18.859  0.00  0.00    +0.000 A 
ATOM      6  C   UNL     1       7.675   5.869  19.345  0.00  0.00    +0.000 A 
ATOM      7  C   UNL     1       8.244   6.976  18.708  0.00  0.00    +0.000 A 
ATOM      8  C   UNL     1       7.616   7.545  17.598  0.00  0.00    +0.000 A 
ATOM      9  C   UNL     1       6.425   6.999  17.116  0.00  0.00    +0.000 A 
ATOM     10  C   UNL     1       5.865   5.883  17.748  0.00  0.00    +0.000 A 
ATOM     11  C   UNL     1       4.629   5.260  17.243  0.00  0.00    +0.000 A 
ATOM     12  O   UNL     1       4.103   5.737  16.239  0.00  0.00    +0.000 OA
ATOM     13  H   UNL     1       6.358   3.829  20.306  0.00  0.00    +0.000 HD
ENDROOT
BRANCH   1  14
ATOM     14  C   UNL     1       2.939   3.511  17.353  0.00  0.00    +0.000 C 
BRANCH  14  16
ATOM     15  C   UNL     1       0.832   2.830  18.642  0.00  0.00    +0.000 C 
ATOM     16  C   UNL     1       1.614   3.957  17.986  0.00  0.00    +0.000 C 
ENDBRANCH  14  16
ENDBRANCH   1  14
TORSDOF 2
ENDMDL
MODEL 5
REMARK VINA RESULT:      -6.3      1.439      1.518
REMARK  Name = 
REMARK  3 active torsions:
REMARK  status: ('A' for Active; 'I' for Inactive)
REMARK    1  A    between atoms: C_1  and  C_2
REMARK    2  A    between atoms: C_2  and  C_3
REMARK    3  A    between atoms: C_3  and  N_4
REMARK                            x       y       z     vdW  Elec       q    Type
REMARK                         _______ _______ _______ _____ _____    ______ ____
ROOT
ATOM      1  N   UNL     1       3.483   4.463  19.714  0.00  0.00    +0.000 N 
ATOM      2  C   UNL     1       4.273   3.340  19.468  0.00  0.00    +0.000 A 
ATOM      3  S   UNL     1       4.369   1.942  20.394  0.00  0.00    +0.000 S 
ATOM      4  N   UNL     1       5.049   3.360  18.340  0.00  0.00    +0.000 N 
ATOM      5  C   UNL     1       5.100   4.423  17.444  0.00  0.00    +0.000 A 
ATOM      6  C   UNL     1       5.905   4.340  16.307  0.00  0.00    +0.000 A 
ATOM      7  C   UNL     1       5.951   5.413  15.412  0.00  0.00    +0.000 A 
ATOM      8  C   UNL     1       5.204   6.565  15.661  0.00  0.00    +0.000 A 
ATOM      9  C   UNL     1       4.399   6.641  16.799  0.00  0.00    +0.000 A 
ATOM     10  C   UNL     1       4.345   5.561  17.686  0.00  0.00    +0.000 A 
ATOM     11  C   UNL     1       3.479   5.594  18.878  0.00  0.00    +0.000 A 
ATOM     12  O   UNL     1       2.789   6.593  19.071  0.00  0.00    +0.000 OA
ATOM     13  H   UNL     1       5.609   2.532  18.167  0.00  0.00    +0.000 HD
ENDROOT
BRANCH   1  14
ATOM     14  C   UNL     1       2.550   4.517  20.854  0.00  0.00    +0.000 C 
BRANCH  14  16
ATOM     15  C   UNL     1       0.833   3.000  19.707  0.00  0.00    +0.000 C 
ATOM     16  C   UNL     1       1.080   4.284  20.485  0.00  0.00    +0.000 C 
ENDBRANCH  14  16
ENDBRANCH   1  14
TORSDOF 2
ENDMDL
MODEL 6
REMARK VINA RESULT:      -6.3      2.558      5.446
REMARK  Name = 
REMARK  3 active torsions:
REMARK  status: ('A' for Active; 'I' for Inactive)
REMARK    1  A    between atoms: C_1  and  C_2
REMARK    2  A    between atoms: C_2  and  C_3
REMARK    3  A    between atoms: C_3  and  N_4
REMARK                            x       y       z     vdW  Elec       q    Type
REMARK                         _______ _______ _______ _____ _____    ______ ____
ROOT
ATOM      1  N   UNL     1       4.340   5.892  18.326  0.00  0.00    +0.000 N 
ATOM      2  C   UNL     1       3.152   6.608  18.480  0.00  0.00    +0.000 A 
ATOM      3  S   UNL     1       2.768   8.097  17.806  0.00  0.00    +0.000 S 
ATOM      4  N   UNL     1       2.177   6.036  19.253  0.00  0.00    +0.000 N 
ATOM      5  C   UNL     1       2.303   4.804  19.888  0.00  0.00    +0.000 A 
ATOM      6  C   UNL     1       1.241   4.292  20.635  0.00  0.00    +0.000 A 
ATOM      7  C   UNL     1       1.376   3.054  21.270  0.00  0.00    +0.000 A 
ATOM      8  C   UNL     1       2.572   2.340  21.167  0.00  0.00    +0.000 A 
ATOM      9  C   UNL     1       3.629   2.857  20.416  0.00  0.00    +0.000 A 
ATOM     10  C   UNL     1       3.486   4.090  19.771  0.00  0.00    +0.000 A 
ATOM     11  C   UNL     1       4.569   4.649  18.942  0.00  0.00    +0.000 A 
ATOM     12  O   UNL     1       5.604   3.997  18.818  0.00  0.00    +0.000 OA
ATOM     13  H   UNL     1       1.314   6.562  19.346  0.00  0.00    +0.000 HD
ENDROOT
BRANCH   1  14
ATOM     14  C   UNL     1       5.424   6.375  17.453  0.00  0.00    +0.000 C 
BRANCH  14  16
ATOM     15  C   UNL     1       6.323   5.093  15.425  0.00  0.00    +0.000 C 
ATOM     16  C   UNL     1       5.252   6.025  15.970  0.00  0.00    +0.000 C 
ENDBRANCH  14  16
ENDBRANCH   1  14
TORSDOF 2
ENDMDL
MODEL 7
REMARK VINA RESULT:      -6.2      1.786      4.740
REMARK  Name = 
REMARK  3 active torsions:
REMARK  status: ('A' for Active; 'I' for Inactive)
REMARK    1  A    between atoms: C_1  and  C_2
REMARK    2  A    between atoms: C_2  and  C_3
REMARK    3  A    between atoms: C_3  and  N_4
REMARK                            x       y       z     vdW  Elec       q    Type
REMARK                         _______ _______ _______ _____ _____    ______ ____
ROOT
ATOM      1  N   UNL     1       4.972   5.695  17.906  0.00  0.00    +0.000 N 
ATOM      2  C   UNL     1       5.872   4.717  18.331  0.00  0.00    +0.000 A 
ATOM      3  S   UNL     1       7.504   4.605  17.954  0.00  0.00    +0.000 S 
ATOM      4  N   UNL     1       5.385   3.741  19.159  0.00  0.00    +0.000 N 
ATOM      5  C   UNL     1       4.064   3.667  19.590  0.00  0.00    +0.000 A 
ATOM      6  C   UNL     1       3.668   2.647  20.456  0.00  0.00    +0.000 A 
ATOM      7  C   UNL     1       2.339   2.579  20.884  0.00  0.00    +0.000 A 
ATOM      8  C   UNL     1       1.411   3.521  20.437  0.00  0.00    +0.000 A 
ATOM      9  C   UNL     1       1.814   4.540  19.573  0.00  0.00    +0.000 A 
ATOM     10  C   UNL     1       3.148   4.613  19.157  0.00  0.00    +0.000 A 
ATOM     11  C   UNL     1       3.614   5.696  18.273  0.00  0.00    +0.000 A 
ATOM     12  O   UNL     1       2.803   6.549  17.916  0.00  0.00    +0.000 OA
ATOM     13  H   UNL     1       6.053   3.043  19.469  0.00  0.00    +0.000 HD
ENDROOT
BRANCH   1  14
ATOM     14  C   UNL     1       5.404   6.835  17.079  0.00  0.00    +0.000 C 
BRANCH  14  16
ATOM     15  C   UNL     1       5.555   5.364  14.987  0.00  0.00    +0.000 C 
ATOM     16  C   UNL     1       5.101   6.688  15.583  0.00  0.00    +0.000 C 
ENDBRANCH  14  16
ENDBRANCH   1  14
TORSDOF 2
ENDMDL
MODEL 8
REMARK VINA RESULT:      -6.1      2.293      5.134
REMARK  Name = 
REMARK  3 active torsions:
REMARK  status: ('A' for Active; 'I' for Inactive)
REMARK    1  A    between atoms: C_1  and  C_2
REMARK    2  A    between atoms: C_2  and  C_3
REMARK    3  A    between atoms: C_3  and  N_4
REMARK                            x       y       z     vdW  Elec       q    Type
REMARK                         _______ _______ _______ _____ _____    ______ ____
ROOT
ATOM      1  N   UNL     1       4.376   4.452  17.410  0.00  0.00    +0.000 N 
ATOM      2  C   UNL     1       5.052   4.783  18.585  0.00  0.00    +0.000 A 
ATOM      3  S   UNL     1       6.565   5.499  18.719  0.00  0.00    +0.000 S 
ATOM      4  N   UNL     1       4.416   4.511  19.766  0.00  0.00    +0.000 N 
ATOM      5  C   UNL     1       3.156   3.928  19.861  0.00  0.00    +0.000 A 
ATOM      6  C   UNL     1       2.578   3.713  21.113  0.00  0.00    +0.000 A 
ATOM      7  C   UNL     1       1.313   3.126  21.200  0.00  0.00    +0.000 A 
ATOM      8  C   UNL     1       0.636   2.746  20.039  0.00  0.00    +0.000 A 
ATOM      9  C   UNL     1       1.219   2.965  18.790  0.00  0.00    +0.000 A 
ATOM     10  C   UNL     1       2.480   3.565  18.706  0.00  0.00    +0.000 A 
ATOM     11  C   UNL     1       3.109   3.843  17.402  0.00  0.00    +0.000 A 
ATOM     12  O   UNL     1       2.491   3.547  16.382  0.00  0.00    +0.000 OA
ATOM     13  H   UNL     1       4.914   4.769  20.612  0.00  0.00    +0.000 HD
ENDROOT
BRANCH   1  14
ATOM     14  C   UNL     1       4.932   4.772  16.083  0.00  0.00    +0.000 C 
BRANCH  14  16
ATOM     15  C   UNL     1       6.265   3.930  14.064  0.00  0.00    +0.000 C 
ATOM     16  C   UNL     1       5.892   3.715  15.523  0.00  0.00    +0.000 C 
ENDBRANCH  14  16
ENDBRANCH   1  14
TORSDOF 2
ENDMDL
MODEL 9
REMARK VINA RESULT:      -6.1      2.511      2.994
REMARK  Name = 
REMARK  3 active torsions:
REMARK  status: ('A' for Active; 'I' for Inactive)
REMARK    1  A    between atoms: C_1  and  C_2
REMARK    2  A    between atoms: C_2  and  C_3
REMARK    3  A    between atoms: C_3  and  N_4
REMARK                            x       y       z     vdW  Elec       q    Type
REMARK                         _______ _______ _______ _____ _____    ______ ____
ROOT
ATOM      1  N   UNL     1       3.082   4.662  19.178  0.00  0.00    +0.000 N 
ATOM      2  C   UNL     1       2.991   6.033  18.936  0.00  0.00    +0.000 A 
ATOM      3  S   UNL     1       2.144   7.170  19.837  0.00  0.00    +0.000 S 
ATOM      4  N   UNL     1       3.674   6.521  17.855  0.00  0.00    +0.000 N 
ATOM      5  C   UNL     1       4.438   5.739  16.993  0.00  0.00    +0.000 A 
ATOM      6  C   UNL     1       5.121   6.333  15.931  0.00  0.00    +0.000 A 
ATOM      7  C   UNL     1       5.885   5.540  15.070  0.00  0.00    +0.000 A 
ATOM      8  C   UNL     1       5.956   4.160  15.267  0.00  0.00    +0.000 A 
ATOM      9  C   UNL     1       5.272   3.572  16.332  0.00  0.00    +0.000 A 
ATOM     10  C   UNL     1       4.518   4.370  17.200  0.00  0.00    +0.000 A 
ATOM     11  C   UNL     1       3.813   3.787  18.356  0.00  0.00    +0.000 A 
ATOM     12  O   UNL     1       3.914   2.577  18.551  0.00  0.00    +0.000 OA
ATOM     13  H   UNL     1       3.609   7.521  17.698  0.00  0.00    +0.000 HD
ENDROOT
BRANCH   1  14
ATOM     14  C   UNL     1       2.453   4.042  20.358  0.00  0.00    +0.000 C 
BRANCH  14  16
ATOM     15  C   UNL     1       0.599   2.677  19.236  0.00  0.00    +0.000 C 
ATOM     16  C   UNL     1       0.947   3.786  20.216  0.00  0.00    +0.000 C 
ENDBRANCH  14  16
ENDBRANCH   1  14
TORSDOF 2
ENDMDL
