MODEL 1
REMARK VINA RESULT:      -6.3      0.000      0.000
REMARK  Name = 
REMARK  3 active torsions:
REMARK  status: ('A' for Active; 'I' for Inactive)
REMARK    1  A    between atoms: C_1  and  O_2
REMARK    2  A    between atoms: O_2  and  C_3
REMARK    3  A    between atoms: C_5  and  C_6
REMARK                            x       y       z     vdW  Elec       q    Type
REMARK                         _______ _______ _______ _____ _____    ______ ____
ROOT
ATOM      1  C   UNL     1       2.509   6.846  19.329  0.00  0.00    +0.000 A 
ATOM      2  N   UNL     1       3.435   6.457  18.444  0.00  0.00    +0.000 NA
ATOM      3  C   UNL     1       3.913   5.196  18.515  0.00  0.00    +0.000 A 
ATOM      4  C   UNL     1       3.435   4.342  19.508  0.00  0.00    +0.000 A 
ATOM      5  S   UNL     1       3.843   2.722  19.936  0.00  0.00    +0.000 S 
ATOM      6  C   UNL     1       2.712   2.680  21.211  0.00  0.00    +0.000 A 
ATOM      7  C   UNL     1       2.039   3.872  21.334  0.00  0.00    +0.000 A 
ATOM      8  C   UNL     1       2.456   4.836  20.369  0.00  0.00    +0.000 A 
ATOM      9  N   UNL     1       1.970   6.096  20.290  0.00  0.00    +0.000 NA
ENDROOT
BRANCH   3  10
ATOM     10  C   UNL     1       4.928   4.811  17.532  0.00  0.00    +0.000 A 
ATOM     11  C   UNL     1       4.800   4.159  16.316  0.00  0.00    +0.000 A 
ATOM     12  C   UNL     1       6.048   3.946  15.660  0.00  0.00    +0.000 A 
ATOM     13  C   UNL     1       7.098   4.467  16.377  0.00  0.00    +0.000 A 
ATOM     14  S   UNL     1       6.583   5.192  17.833  0.00  0.00    +0.000 S 
ENDBRANCH   3  10
BRANCH   1  16
ATOM     15  C   UNL     1       2.105   8.712  17.985  0.00  0.00    +0.000 C 
ATOM     16  O   UNL     1       2.035   8.139  19.285  0.00  0.00    +0.000 OA
ENDBRANCH   1  16
TORSDOF 2
ENDMDL
MODEL 2
REMARK VINA RESULT:      -6.3      3.495      5.408
REMARK  Name = 
REMARK  3 active torsions:
REMARK  status: ('A' for Active; 'I' for Inactive)
REMARK    1  A    between atoms: C_1  and  O_2
REMARK    2  A    between atoms: O_2  and  C_3
REMARK    3  A    between atoms: C_5  and  C_6
REMARK                            x       y       z     vdW  Elec       q    Type
REMARK                         _______ _______ _______ _____ _____    ______ ____
ROOT
ATOM      1  C   UNL     1       6.275   4.313  15.150  0.00  0.00    +0.000 A 
ATOM      2  N   UNL     1       5.091   3.921  15.638  0.00  0.00    +0.000 NA
ATOM      3  C   UNL     1       4.824   4.130  16.945  0.00  0.00    +0.000 A 
ATOM      4  C   UNL     1       5.789   4.739  17.747  0.00  0.00    +0.000 A 
ATOM      5  S   UNL     1       5.829   5.108  19.431  0.00  0.00    +0.000 S 
ATOM      6  C   UNL     1       7.382   5.802  19.333  0.00  0.00    +0.000 A 
ATOM      7  C   UNL     1       7.883   5.750  18.054  0.00  0.00    +0.000 A 
ATOM      8  C   UNL     1       6.982   5.130  17.139  0.00  0.00    +0.000 A 
ATOM      9  N   UNL     1       7.243   4.930  15.827  0.00  0.00    +0.000 NA
ENDROOT
BRANCH   3  10
ATOM     10  C   UNL     1       3.522   3.681  17.440  0.00  0.00    +0.000 A 
ATOM     11  C   UNL     1       2.319   4.360  17.548  0.00  0.00    +0.000 A 
ATOM     12  C   UNL     1       1.276   3.567  18.110  0.00  0.00    +0.000 A 
ATOM     13  C   UNL     1       1.698   2.291  18.392  0.00  0.00    +0.000 A 
ATOM     14  S   UNL     1       3.341   2.058  17.995  0.00  0.00    +0.000 S 
ENDBRANCH   3  10
BRANCH   1  16
ATOM     15  C   UNL     1       5.444   3.635  13.076  0.00  0.00    +0.000 C 
ATOM     16  O   UNL     1       6.569   4.080  13.824  0.00  0.00    +0.000 OA
ENDBRANCH   1  16
TORSDOF 2
ENDMDL
MODEL 3
REMARK VINA RESULT:      -6.2      2.978      4.503
REMARK  Name = 
REMARK  3 active torsions:
REMARK  status: ('A' for Active; 'I' for Inactive)
REMARK    1  A    between atoms: C_1  and  O_2
REMARK    2  A    between atoms: O_2  and  C_3
REMARK    3  A    between atoms: C_5  and  C_6
REMARK                            x       y       z     vdW  Elec       q    Type
REMARK                         _______ _______ _______ _____ _____    ______ ____
ROOT
ATOM      1  C   UNL     1       5.658   4.826  19.304  0.00  0.00    +0.000 A 
ATOM      2  N   UNL     1       4.918   5.936  19.177  0.00  0.00    +0.000 NA
ATOM      3  C   UNL     1       3.623   5.816  18.815  0.00  0.00    +0.000 A 
ATOM      4  C   UNL     1       3.097   4.546  18.576  0.00  0.00    +0.000 A 
ATOM      5  S   UNL     1       1.542   4.017  18.052  0.00  0.00    +0.000 S 
ATOM      6  C   UNL     1       1.987   2.373  18.103  0.00  0.00    +0.000 A 
ATOM      7  C   UNL     1       3.295   2.210  18.493  0.00  0.00    +0.000 A 
ATOM      8  C   UNL     1       3.945   3.452  18.755  0.00  0.00    +0.000 A 
ATOM      9  N   UNL     1       5.239   3.574  19.129  0.00  0.00    +0.000 NA
ENDROOT
BRANCH   3  10
ATOM     10  C   UNL     1       2.850   7.052  18.682  0.00  0.00    +0.000 A 
ATOM     11  C   UNL     1       2.734   7.929  17.616  0.00  0.00    +0.000 A 
ATOM     12  C   UNL     1       1.892   9.045  17.896  0.00  0.00    +0.000 A 
ATOM     13  C   UNL     1       1.359   8.979  19.161  0.00  0.00    +0.000 A 
ATOM     14  S   UNL     1       1.883   7.592  20.005  0.00  0.00    +0.000 S 
ENDBRANCH   3  10
BRANCH   1  16
ATOM     15  C   UNL     1       7.688   5.885  18.847  0.00  0.00    +0.000 C 
ATOM     16  O   UNL     1       6.988   4.938  19.645  0.00  0.00    +0.000 OA
ENDBRANCH   1  16
TORSDOF 2
ENDMDL
MODEL 4
REMARK VINA RESULT:      -6.2      0.819      1.083
REMARK  Name = 
REMARK  3 active torsions:
REMARK  status: ('A' for Active; 'I' for Inactive)
REMARK    1  A    between atoms: C_1  and  O_2
REMARK    2  A    between atoms: O_2  and  C_3
REMARK    3  A    between atoms: C_5  and  C_6
REMARK                            x       y       z     vdW  Elec       q    Type
REMARK                         _______ _______ _______ _____ _____    ______ ____
ROOT
ATOM      1  C   UNL     1       2.515   6.767  19.488  0.00  0.00    +0.000 A 
ATOM      2  N   UNL     1       3.571   6.447  18.729  0.00  0.00    +0.000 NA
ATOM      3  C   UNL     1       4.087   5.203  18.825  0.00  0.00    +0.000 A 
ATOM      4  C   UNL     1       3.513   4.294  19.714  0.00  0.00    +0.000 A 
ATOM      5  S   UNL     1       3.925   2.675  20.142  0.00  0.00    +0.000 S 
ATOM      6  C   UNL     1       2.631   2.543  21.242  0.00  0.00    +0.000 A 
ATOM      7  C   UNL     1       1.897   3.703  21.308  0.00  0.00    +0.000 A 
ATOM      8  C   UNL     1       2.403   4.718  20.444  0.00  0.00    +0.000 A 
ATOM      9  N   UNL     1       1.880   5.961  20.338  0.00  0.00    +0.000 NA
ENDROOT
BRANCH   3  10
ATOM     10  C   UNL     1       5.245   4.894  17.984  0.00  0.00    +0.000 A 
ATOM     11  C   UNL     1       6.600   4.939  18.269  0.00  0.00    +0.000 A 
ATOM     12  C   UNL     1       7.419   4.582  17.158  0.00  0.00    +0.000 A 
ATOM     13  C   UNL     1       6.669   4.245  16.057  0.00  0.00    +0.000 A 
ATOM     14  S   UNL     1       4.995   4.371  16.359  0.00  0.00    +0.000 S 
ENDBRANCH   3  10
BRANCH   1  16
ATOM     15  C   UNL     1       2.034   8.586  18.106  0.00  0.00    +0.000 C 
ATOM     16  O   UNL     1       1.997   8.042  19.420  0.00  0.00    +0.000 OA
ENDBRANCH   1  16
TORSDOF 2
ENDMDL
MODEL 5
REMARK VINA RESULT:      -6.2      3.647      5.388
REMARK  Name = 
REMARK  3 active torsions:
REMARK  status: ('A' for Active; 'I' for Inactive)
REMARK    1  A    between atoms: C_1  and  O_2
REMARK    2  A    between atoms: O_2  and  C_3
REMARK    3  A    between atoms: C_5  and  C_6
REMARK                            x       y       z     vdW  Elec       q    Type
REMARK                         _______ _______ _______ _____ _____    ______ ____
ROOT
ATOM      1  C   UNL     1       6.308   4.803  15.056  0.00  0.00    +0.000 A 
ATOM      2  N   UNL     1       5.193   4.248  15.550  0.00  0.00    +0.000 NA
ATOM      3  C   UNL     1       4.973   4.307  16.881  0.00  0.00    +0.000 A 
ATOM      4  C   UNL     1       5.912   4.933  17.700  0.00  0.00    +0.000 A 
ATOM      5  S   UNL     1       6.000   5.146  19.409  0.00  0.00    +0.000 S 
ATOM      6  C   UNL     1       7.471   6.000  19.316  0.00  0.00    +0.000 A 
ATOM      7  C   UNL     1       7.912   6.117  18.019  0.00  0.00    +0.000 A 
ATOM      8  C   UNL     1       7.030   5.498  17.085  0.00  0.00    +0.000 A 
ATOM      9  N   UNL     1       7.244   5.448  15.751  0.00  0.00    +0.000 NA
ENDROOT
BRANCH   3  10
ATOM     10  C   UNL     1       3.746   3.684  17.382  0.00  0.00    +0.000 A 
ATOM     11  C   UNL     1       3.437   2.350  17.592  0.00  0.00    +0.000 A 
ATOM     12  C   UNL     1       2.110   2.151  18.074  0.00  0.00    +0.000 A 
ATOM     13  C   UNL     1       1.445   3.340  18.249  0.00  0.00    +0.000 A 
ATOM     14  S   UNL     1       2.409   4.682  17.822  0.00  0.00    +0.000 S 
ENDBRANCH   3  10
BRANCH   1  16
ATOM     15  C   UNL     1       6.011   3.555  13.105  0.00  0.00    +0.000 C 
ATOM     16  O   UNL     1       6.557   4.724  13.703  0.00  0.00    +0.000 OA
ENDBRANCH   1  16
TORSDOF 2
ENDMDL
MODEL 6
REMARK VINA RESULT:      -6.1      2.909      5.314
REMARK  Name = 
REMARK  3 active torsions:
REMARK  status: ('A' for Active; 'I' for Inactive)
REMARK    1  A    between atoms: C_1  and  O_2
REMARK    2  A    between atoms: O_2  and  C_3
REMARK    3  A    between atoms: C_5  and  C_6
REMARK                            x       y       z     vdW  Elec       q    Type
REMARK                         _______ _______ _______ _____ _____    ______ ____
ROOT
ATOM      1  C   UNL     1       7.433   6.521  17.985  0.00  0.00    +0.000 A 
ATOM      2  N   UNL     1       6.490   5.931  18.732  0.00  0.00    +0.000 NA
ATOM      3  C   UNL     1       5.693   5.003  18.158  0.00  0.00    +0.000 A 
ATOM      4  C   UNL     1       5.868   4.694  16.810  0.00  0.00    +0.000 A 
ATOM      5  S   UNL     1       5.022   3.633  15.746  0.00  0.00    +0.000 S 
ATOM      6  C   UNL     1       6.024   4.017  14.423  0.00  0.00    +0.000 A 
ATOM      7  C   UNL     1       6.980   4.946  14.760  0.00  0.00    +0.000 A 
ATOM      8  C   UNL     1       6.891   5.350  16.125  0.00  0.00    +0.000 A 
ATOM      9  N   UNL     1       7.696   6.270  16.703  0.00  0.00    +0.000 NA
ENDROOT
BRANCH   3  10
ATOM     10  C   UNL     1       4.672   4.386  19.007  0.00  0.00    +0.000 A 
ATOM     11  C   UNL     1       4.557   3.086  19.473  0.00  0.00    +0.000 A 
ATOM     12  C   UNL     1       3.389   2.875  20.263  0.00  0.00    +0.000 A 
ATOM     13  C   UNL     1       2.654   4.027  20.408  0.00  0.00    +0.000 A 
ATOM     14  S   UNL     1       3.360   5.345  19.586  0.00  0.00    +0.000 S 
ENDBRANCH   3  10
BRANCH   1  16
ATOM     15  C   UNL     1       8.118   8.751  17.905  0.00  0.00    +0.000 C 
ATOM     16  O   UNL     1       8.234   7.489  18.551  0.00  0.00    +0.000 OA
ENDBRANCH   1  16
TORSDOF 2
ENDMDL
MODEL 7
REMARK VINA RESULT:      -6.0      2.709      4.631
REMARK  Name = 
REMARK  3 active torsions:
REMARK  status: ('A' for Active; 'I' for Inactive)
REMARK    1  A    between atoms: C_1  and  O_2
REMARK    2  A    between atoms: O_2  and  C_3
REMARK    3  A    between atoms: C_5  and  C_6
REMARK                            x       y       z     vdW  Elec       q    Type
REMARK                         _______ _______ _______ _____ _____    ______ ____
ROOT
ATOM      1  C   UNL     1       5.629   4.751  19.117  0.00  0.00    +0.000 A 
ATOM      2  N   UNL     1       4.845   5.833  19.219  0.00  0.00    +0.000 NA
ATOM      3  C   UNL     1       3.505   5.665  19.223  0.00  0.00    +0.000 A 
ATOM      4  C   UNL     1       2.979   4.379  19.114  0.00  0.00    +0.000 A 
ATOM      5  S   UNL     1       1.359   3.794  19.027  0.00  0.00    +0.000 S 
ATOM      6  C   UNL     1       1.857   2.168  18.923  0.00  0.00    +0.000 A 
ATOM      7  C   UNL     1       3.227   2.053  18.937  0.00  0.00    +0.000 A 
ATOM      8  C   UNL     1       3.880   3.317  19.034  0.00  0.00    +0.000 A 
ATOM      9  N   UNL     1       5.222   3.485  19.041  0.00  0.00    +0.000 NA
ENDROOT
BRANCH   3  10
ATOM     10  C   UNL     1       2.683   6.872  19.331  0.00  0.00    +0.000 A 
ATOM     11  C   UNL     1       1.964   7.378  20.402  0.00  0.00    +0.000 A 
ATOM     12  C   UNL     1       1.266   8.581  20.091  0.00  0.00    +0.000 A 
ATOM     13  C   UNL     1       1.491   8.984  18.797  0.00  0.00    +0.000 A 
ATOM     14  S   UNL     1       2.524   7.912  17.963  0.00  0.00    +0.000 S 
ENDBRANCH   3  10
BRANCH   1  16
ATOM     15  C   UNL     1       7.558   4.621  17.807  0.00  0.00    +0.000 C 
ATOM     16  O   UNL     1       6.997   4.911  19.082  0.00  0.00    +0.000 OA
ENDBRANCH   1  16
TORSDOF 2
ENDMDL
MODEL 8
REMARK VINA RESULT:      -6.0      1.191      1.449
REMARK  Name = 
REMARK  3 active torsions:
REMARK  status: ('A' for Active; 'I' for Inactive)
REMARK    1  A    between atoms: C_1  and  O_2
REMARK    2  A    between atoms: O_2  and  C_3
REMARK    3  A    between atoms: C_5  and  C_6
REMARK                            x       y       z     vdW  Elec       q    Type
REMARK                         _______ _______ _______ _____ _____    ______ ____
ROOT
ATOM      1  C   UNL     1       2.734   8.021  17.987  0.00  0.00    +0.000 A 
ATOM      2  N   UNL     1       3.644   7.331  17.287  0.00  0.00    +0.000 NA
ATOM      3  C   UNL     1       3.970   6.085  17.695  0.00  0.00    +0.000 A 
ATOM      4  C   UNL     1       3.357   5.558  18.831  0.00  0.00    +0.000 A 
ATOM      5  S   UNL     1       3.557   4.063  19.666  0.00  0.00    +0.000 S 
ATOM      6  C   UNL     1       2.378   4.455  20.833  0.00  0.00    +0.000 A 
ATOM      7  C   UNL     1       1.843   5.702  20.617  0.00  0.00    +0.000 A 
ATOM      8  C   UNL     1       2.407   6.349  19.477  0.00  0.00    +0.000 A 
ATOM      9  N   UNL     1       2.074   7.592  19.062  0.00  0.00    +0.000 NA
ENDROOT
BRANCH   3  10
ATOM     10  C   UNL     1       4.973   5.367  16.906  0.00  0.00    +0.000 A 
ATOM     11  C   UNL     1       4.842   4.269  16.070  0.00  0.00    +0.000 A 
ATOM     12  C   UNL     1       6.079   3.849  15.498  0.00  0.00    +0.000 A 
ATOM     13  C   UNL     1       7.122   4.654  15.887  0.00  0.00    +0.000 A 
ATOM     14  S   UNL     1       6.615   5.895  16.943  0.00  0.00    +0.000 S 
ENDBRANCH   3  10
BRANCH   1  16
ATOM     15  C   UNL     1       1.216   9.782  18.197  0.00  0.00    +0.000 C 
ATOM     16  O   UNL     1       2.415   9.303  17.598  0.00  0.00    +0.000 OA
ENDBRANCH   1  16
TORSDOF 2
ENDMDL
MODEL 9
REMARK VINA RESULT:      -6.0      1.162      1.162
REMARK  Name = 
REMARK  3 active torsions:
REMARK  status: ('A' for Active; 'I' for Inactive)
REMARK    1  A    between atoms: C_1  and  O_2
REMARK    2  A    between atoms: O_2  and  C_3
REMARK    3  A    between atoms: C_5  and  C_6
REMARK                            x       y       z     vdW  Elec       q    Type
REMARK                         _______ _______ _______ _____ _____    ______ ____
ROOT
ATOM      1  C   UNL     1       2.601   6.509  18.846  0.00  0.00    +0.000 A 
ATOM      2  N   UNL     1       3.611   6.250  18.005  0.00  0.00    +0.000 NA
ATOM      3  C   UNL     1       3.893   4.964  17.704  0.00  0.00    +0.000 A 
ATOM      4  C   UNL     1       3.133   3.947  18.282  0.00  0.00    +0.000 A 
ATOM      5  S   UNL     1       3.233   2.228  18.184  0.00  0.00    +0.000 S 
ATOM      6  C   UNL     1       1.896   2.003  19.215  0.00  0.00    +0.000 A 
ATOM      7  C   UNL     1       1.378   3.201  19.648  0.00  0.00    +0.000 A 
ATOM      8  C   UNL     1       2.089   4.322  19.128  0.00  0.00    +0.000 A 
ATOM      9  N   UNL     1       1.801   5.611  19.420  0.00  0.00    +0.000 NA
ENDROOT
BRANCH   3  10
ATOM     10  C   UNL     1       5.008   4.723  16.786  0.00  0.00    +0.000 A 
ATOM     11  C   UNL     1       5.008   4.404  15.438  0.00  0.00    +0.000 A 
ATOM     12  C   UNL     1       6.318   4.224  14.905  0.00  0.00    +0.000 A 
ATOM     13  C   UNL     1       7.290   4.438  15.852  0.00  0.00    +0.000 A 
ATOM     14  S   UNL     1       6.626   4.839  17.372  0.00  0.00    +0.000 S 
ENDBRANCH   3  10
BRANCH   1  16
ATOM     15  C   UNL     1       2.152   8.657  18.047  0.00  0.00    +0.000 C 
ATOM     16  O   UNL     1       2.322   7.816  19.182  0.00  0.00    +0.000 OA
ENDBRANCH   1  16
TORSDOF 2
ENDMDL
