MODEL 1
REMARK VINA RESULT:      -7.9      0.000      0.000
REMARK  Name = 
REMARK  9 active torsions:
REMARK  status: ('A' for Active; 'I' for Inactive)
REMARK    1  A    between atoms: C_1  and  O_2
REMARK    2  A    between atoms: O_2  and  C_3
REMARK    3  A    between atoms: C_3  and  C_5
REMARK    4  A    between atoms: C_9  and  C_11
REMARK    5  A    between atoms: C_13  and  N_14
REMARK    6  A    between atoms: C_15  and  C_17
REMARK    7  A    between atoms: C_17  and  C_18
REMARK    8  A    between atoms: C_26  and  C_27
REMARK    9  A    between atoms: N_32  and  C_33
REMARK                            x       y       z     vdW  Elec       q    Type
REMARK                         _______ _______ _______ _____ _____    ______ ____
ROOT
ATOM      1  C   UNL     1       0.137  11.767  19.712  0.00  0.00    +0.000 A 
ATOM      2  C   UNL     1       1.067  10.942  19.070  0.00  0.00    +0.000 A 
ATOM      3  C   UNL     1       0.703   9.880  18.249  0.00  0.00    +0.000 A 
ATOM      4  C   UNL     1      -0.644   9.729  17.901  0.00  0.00    +0.000 A 
ATOM      5  C   UNL     1      -1.595  10.647  18.401  0.00  0.00    +0.000 A 
ATOM      6  N   UNL     1      -2.943  10.702  18.144  0.00  0.00    +0.000 NA
ATOM      7  C   UNL     1      -3.402  11.759  18.793  0.00  0.00    +0.000 A 
ATOM      8  N   UNL     1      -2.379  12.364  19.502  0.00  0.00    +0.000 N 
ATOM      9  C   UNL     1      -2.505  13.596  20.248  0.00  0.00    +0.000 C 
ATOM     10  C   UNL     1      -1.206  11.658  19.284  0.00  0.00    +0.000 A 
ENDROOT
BRANCH   1  15
ATOM     11  C   UNL     1       0.809  16.878  19.998  0.00  0.00    +0.000 C 
ATOM     12  C   UNL     1       0.813  16.206  21.381  0.00  0.00    +0.000 C 
ATOM     13  C   UNL     1       1.602  14.895  21.377  0.00  0.00    +0.000 C 
ATOM     14  N   UNL     1       1.121  14.005  20.323  0.00  0.00    +0.000 N 
ATOM     15  C   UNL     1       0.632  12.747  20.704  0.00  0.00    +0.000 C 
ATOM     16  O   UNL     1       0.595  12.410  21.890  0.00  0.00    +0.000 OA
ATOM     17  C   UNL     1       1.200  14.595  18.977  0.00  0.00    +0.000 C 
ATOM     18  C   UNL     1       0.352  15.872  18.930  0.00  0.00    +0.000 C 
BRANCH  11  19
ATOM     19  C   UNL     1       2.177  17.461  19.672  0.00  0.00    +0.000 C 
ATOM     20  O   UNL     1       2.693  17.454  18.562  0.00  0.00    +0.000 OA
BRANCH  19  22
ATOM     21  C   UNL     1       4.184  17.848  20.802  0.00  0.00    +0.000 C 
ATOM     22  O   UNL     1       2.761  17.978  20.788  0.00  0.00    +0.000 OA
ENDBRANCH  19  22
ENDBRANCH  11  19
ENDBRANCH   1  15
BRANCH   7  23
ATOM     23  C   UNL     1      -4.824  12.255  18.806  0.00  0.00    +0.000 C 
ATOM     24  C   UNL     1      -5.595  11.973  20.084  0.00  0.00    +0.000 C 
ATOM     25  C   UNL     1      -7.010  11.791  19.595  0.00  0.00    +0.000 C 
ATOM     26  C   UNL     1      -6.823  11.180  18.225  0.00  0.00    +0.000 C 
ATOM     27  O   UNL     1      -5.541  11.593  17.744  0.00  0.00    +0.000 OA
ENDBRANCH   7  23
BRANCH   3  28
ATOM     28  N   UNL     1       1.654   8.945  17.770  0.00  0.00    +0.000 N 
ATOM     29  C   UNL     1       2.306   7.986  18.532  0.00  0.00    +0.000 C 
ATOM     30  O   UNL     1       2.098   7.732  19.715  0.00  0.00    +0.000 OA
ATOM     31  H   UNL     1       1.787   8.914  16.767  0.00  0.00    +0.000 HD
BRANCH  29  32
ATOM     32  C   UNL     1       3.321   7.151  17.776  0.00  0.00    +0.000 C 
BRANCH  32  33
ATOM     33  C   UNL     1       3.247   5.666  18.092  0.00  0.00    +0.000 C 
ATOM     34  C   UNL     1       1.894   5.020  17.796  0.00  0.00    +0.000 C 
ATOM     35  C   UNL     1       2.215   3.532  17.843  0.00  0.00    +0.000 C 
ATOM     36  C   UNL     1       3.661   3.408  17.357  0.00  0.00    +0.000 C 
ATOM     37  C   UNL     1       4.185   4.836  17.218  0.00  0.00    +0.000 C 
ENDBRANCH  32  33
ENDBRANCH  29  32
ENDBRANCH   3  28
TORSDOF 7
ENDMDL
MODEL 2
REMARK VINA RESULT:      -7.8      2.328      6.213
REMARK  Name = 
REMARK  9 active torsions:
REMARK  status: ('A' for Active; 'I' for Inactive)
REMARK    1  A    between atoms: C_1  and  O_2
REMARK    2  A    between atoms: O_2  and  C_3
REMARK    3  A    between atoms: C_3  and  C_5
REMARK    4  A    between atoms: C_9  and  C_11
REMARK    5  A    between atoms: C_13  and  N_14
REMARK    6  A    between atoms: C_15  and  C_17
REMARK    7  A    between atoms: C_17  and  C_18
REMARK    8  A    between atoms: C_26  and  C_27
REMARK    9  A    between atoms: N_32  and  C_33
REMARK                            x       y       z     vdW  Elec       q    Type
REMARK                         _______ _______ _______ _____ _____    ______ ____
ROOT
ATOM      1  C   UNL     1      -0.283  11.451  18.610  0.00  0.00    +0.000 A 
ATOM      2  C   UNL     1       0.096  10.105  18.664  0.00  0.00    +0.000 A 
ATOM      3  C   UNL     1       1.388   9.667  18.400  0.00  0.00    +0.000 A 
ATOM      4  C   UNL     1       2.403  10.619  18.245  0.00  0.00    +0.000 A 
ATOM      5  C   UNL     1       2.085  11.992  18.349  0.00  0.00    +0.000 A 
ATOM      6  N   UNL     1       2.933  13.071  18.277  0.00  0.00    +0.000 NA
ATOM      7  C   UNL     1       2.186  14.143  18.480  0.00  0.00    +0.000 A 
ATOM      8  N   UNL     1       0.861  13.778  18.639  0.00  0.00    +0.000 N 
ATOM      9  C   UNL     1      -0.214  14.688  18.969  0.00  0.00    +0.000 C 
ATOM     10  C   UNL     1       0.762  12.399  18.540  0.00  0.00    +0.000 A 
ENDROOT
BRANCH   1  15
ATOM     11  C   UNL     1      -3.416  13.594  22.110  0.00  0.00    +0.000 C 
ATOM     12  C   UNL     1      -4.034  13.573  20.702  0.00  0.00    +0.000 C 
ATOM     13  C   UNL     1      -3.774  12.248  19.983  0.00  0.00    +0.000 C 
ATOM     14  N   UNL     1      -2.347  11.936  19.973  0.00  0.00    +0.000 N 
ATOM     15  C   UNL     1      -1.720  11.783  18.727  0.00  0.00    +0.000 C 
ATOM     16  O   UNL     1      -2.351  11.922  17.676  0.00  0.00    +0.000 OA
ATOM     17  C   UNL     1      -1.756  11.854  21.318  0.00  0.00    +0.000 C 
ATOM     18  C   UNL     1      -1.933  13.198  22.035  0.00  0.00    +0.000 C 
BRANCH  11  19
ATOM     19  C   UNL     1      -4.191  12.688  23.057  0.00  0.00    +0.000 C 
ATOM     20  O   UNL     1      -3.695  12.052  23.979  0.00  0.00    +0.000 OA
BRANCH  19  22
ATOM     21  C   UNL     1      -6.377  12.972  23.828  0.00  0.00    +0.000 C 
ATOM     22  O   UNL     1      -5.513  12.666  22.732  0.00  0.00    +0.000 OA
ENDBRANCH  19  22
ENDBRANCH  11  19
ENDBRANCH   1  15
BRANCH   7  23
ATOM     23  C   UNL     1       2.662  15.572  18.518  0.00  0.00    +0.000 C 
ATOM     24  C   UNL     1       3.961  15.840  17.778  0.00  0.00    +0.000 C 
ATOM     25  C   UNL     1       4.588  16.951  18.584  0.00  0.00    +0.000 C 
ATOM     26  C   UNL     1       4.125  16.657  19.992  0.00  0.00    +0.000 C 
ATOM     27  O   UNL     1       2.896  15.932  19.896  0.00  0.00    +0.000 OA
ENDBRANCH   7  23
BRANCH   3  28
ATOM     28  N   UNL     1       1.701   8.292  18.271  0.00  0.00    +0.000 N 
ATOM     29  C   UNL     1       2.042   7.435  19.307  0.00  0.00    +0.000 C 
ATOM     30  O   UNL     1       2.037   7.705  20.505  0.00  0.00    +0.000 OA
ATOM     31  H   UNL     1       1.561   7.883  17.355  0.00  0.00    +0.000 HD
BRANCH  29  32
ATOM     32  C   UNL     1       2.387   6.021  18.881  0.00  0.00    +0.000 C 
BRANCH  32  33
ATOM     33  C   UNL     1       2.371   5.018  20.024  0.00  0.00    +0.000 C 
ATOM     34  C   UNL     1       1.042   4.289  20.210  0.00  0.00    +0.000 C 
ATOM     35  C   UNL     1       1.419   3.132  21.128  0.00  0.00    +0.000 C 
ATOM     36  C   UNL     1       2.864   2.780  20.769  0.00  0.00    +0.000 C 
ATOM     37  C   UNL     1       3.334   3.854  19.791  0.00  0.00    +0.000 C 
ENDBRANCH  32  33
ENDBRANCH  29  32
ENDBRANCH   3  28
TORSDOF 7
ENDMDL
MODEL 3
REMARK VINA RESULT:      -7.6      2.130      6.204
REMARK  Name = 
REMARK  9 active torsions:
REMARK  status: ('A' for Active; 'I' for Inactive)
REMARK    1  A    between atoms: C_1  and  O_2
REMARK    2  A    between atoms: O_2  and  C_3
REMARK    3  A    between atoms: C_3  and  C_5
REMARK    4  A    between atoms: C_9  and  C_11
REMARK    5  A    between atoms: C_13  and  N_14
REMARK    6  A    between atoms: C_15  and  C_17
REMARK    7  A    between atoms: C_17  and  C_18
REMARK    8  A    between atoms: C_26  and  C_27
REMARK    9  A    between atoms: N_32  and  C_33
REMARK                            x       y       z     vdW  Elec       q    Type
REMARK                         _______ _______ _______ _____ _____    ______ ____
ROOT
ATOM      1  C   UNL     1      -0.206  11.509  18.502  0.00  0.00    +0.000 A 
ATOM      2  C   UNL     1       0.161  10.162  18.395  0.00  0.00    +0.000 A 
ATOM      3  C   UNL     1       1.449   9.748  18.079  0.00  0.00    +0.000 A 
ATOM      4  C   UNL     1       2.473  10.702  18.037  0.00  0.00    +0.000 A 
ATOM      5  C   UNL     1       2.167  12.056  18.303  0.00  0.00    +0.000 A 
ATOM      6  N   UNL     1       3.025  13.127  18.359  0.00  0.00    +0.000 NA
ATOM      7  C   UNL     1       2.289  14.175  18.690  0.00  0.00    +0.000 A 
ATOM      8  N   UNL     1       0.960  13.805  18.807  0.00  0.00    +0.000 N 
ATOM      9  C   UNL     1      -0.106  14.679  19.245  0.00  0.00    +0.000 C 
ATOM     10  C   UNL     1       0.848  12.449  18.544  0.00  0.00    +0.000 A 
ENDROOT
BRANCH   1  15
ATOM     11  C   UNL     1      -3.259  13.544  22.135  0.00  0.00    +0.000 C 
ATOM     12  C   UNL     1      -3.908  13.567  20.741  0.00  0.00    +0.000 C 
ATOM     13  C   UNL     1      -3.665  12.265  19.975  0.00  0.00    +0.000 C 
ATOM     14  N   UNL     1      -2.239  11.952  19.925  0.00  0.00    +0.000 N 
ATOM     15  C   UNL     1      -1.640  11.837  18.661  0.00  0.00    +0.000 C 
ATOM     16  O   UNL     1      -2.293  12.009  17.629  0.00  0.00    +0.000 OA
ATOM     17  C   UNL     1      -1.619  11.829  21.254  0.00  0.00    +0.000 C 
ATOM     18  C   UNL     1      -1.778  13.150  22.015  0.00  0.00    +0.000 C 
BRANCH  11  19
ATOM     19  C   UNL     1      -4.014  12.610  23.070  0.00  0.00    +0.000 C 
ATOM     20  O   UNL     1      -3.500  11.951  23.965  0.00  0.00    +0.000 OA
BRANCH  19  22
ATOM     21  C   UNL     1      -6.186  12.913  23.875  0.00  0.00    +0.000 C 
ATOM     22  O   UNL     1      -5.342  12.591  22.768  0.00  0.00    +0.000 OA
ENDBRANCH  19  22
ENDBRANCH  11  19
ENDBRANCH   1  15
BRANCH   7  23
ATOM     23  C   UNL     1       2.778  15.584  18.897  0.00  0.00    +0.000 C 
ATOM     24  C   UNL     1       3.969  15.986  18.046  0.00  0.00    +0.000 C 
ATOM     25  C   UNL     1       4.707  16.959  18.931  0.00  0.00    +0.000 C 
ATOM     26  C   UNL     1       4.432  16.434  20.322  0.00  0.00    +0.000 C 
ATOM     27  O   UNL     1       3.194  15.719  20.271  0.00  0.00    +0.000 OA
ENDBRANCH   7  23
BRANCH   3  28
ATOM     28  N   UNL     1       1.749   8.394  17.786  0.00  0.00    +0.000 N 
ATOM     29  C   UNL     1       2.183   7.442  18.697  0.00  0.00    +0.000 C 
ATOM     30  O   UNL     1       2.287   7.592  19.912  0.00  0.00    +0.000 OA
ATOM     31  H   UNL     1       1.527   8.077  16.850  0.00  0.00    +0.000 HD
BRANCH  29  32
ATOM     32  C   UNL     1       2.487   6.081  18.104  0.00  0.00    +0.000 C 
BRANCH  32  33
ATOM     33  C   UNL     1       3.974   5.803  17.943  0.00  0.00    +0.000 C 
ATOM     34  C   UNL     1       4.305   4.409  17.413  0.00  0.00    +0.000 C 
ATOM     35  C   UNL     1       5.769   4.543  17.010  0.00  0.00    +0.000 C 
ATOM     36  C   UNL     1       5.939   5.996  16.561  0.00  0.00    +0.000 C 
ATOM     37  C   UNL     1       4.623   6.699  16.889  0.00  0.00    +0.000 C 
ENDBRANCH  32  33
ENDBRANCH  29  32
ENDBRANCH   3  28
TORSDOF 7
ENDMDL
MODEL 4
REMARK VINA RESULT:      -7.5      2.068      5.880
REMARK  Name = 
REMARK  9 active torsions:
REMARK  status: ('A' for Active; 'I' for Inactive)
REMARK    1  A    between atoms: C_1  and  O_2
REMARK    2  A    between atoms: O_2  and  C_3
REMARK    3  A    between atoms: C_3  and  C_5
REMARK    4  A    between atoms: C_9  and  C_11
REMARK    5  A    between atoms: C_13  and  N_14
REMARK    6  A    between atoms: C_15  and  C_17
REMARK    7  A    between atoms: C_17  and  C_18
REMARK    8  A    between atoms: C_26  and  C_27
REMARK    9  A    between atoms: N_32  and  C_33
REMARK                            x       y       z     vdW  Elec       q    Type
REMARK                         _______ _______ _______ _____ _____    ______ ____
ROOT
ATOM      1  C   UNL     1      -0.276  11.627  18.592  0.00  0.00    +0.000 A 
ATOM      2  C   UNL     1       0.165  10.301  18.516  0.00  0.00    +0.000 A 
ATOM      3  C   UNL     1       1.478   9.952  18.220  0.00  0.00    +0.000 A 
ATOM      4  C   UNL     1       2.447  10.961  18.168  0.00  0.00    +0.000 A 
ATOM      5  C   UNL     1       2.065  12.301  18.404  0.00  0.00    +0.000 A 
ATOM      6  N   UNL     1       2.861  13.419  18.445  0.00  0.00    +0.000 NA
ATOM      7  C   UNL     1       2.065  14.431  18.747  0.00  0.00    +0.000 A 
ATOM      8  N   UNL     1       0.757  13.990  18.860  0.00  0.00    +0.000 N 
ATOM      9  C   UNL     1      -0.360  14.812  19.270  0.00  0.00    +0.000 C 
ATOM     10  C   UNL     1       0.724  12.625  18.624  0.00  0.00    +0.000 A 
ENDROOT
BRANCH   1  15
ATOM     11  C   UNL     1      -3.470  13.600  22.137  0.00  0.00    +0.000 C 
ATOM     12  C   UNL     1      -4.107  13.542  20.739  0.00  0.00    +0.000 C 
ATOM     13  C   UNL     1      -3.785  12.232  20.017  0.00  0.00    +0.000 C 
ATOM     14  N   UNL     1      -2.343  12.000  19.987  0.00  0.00    +0.000 N 
ATOM     15  C   UNL     1      -1.728  11.878  18.731  0.00  0.00    +0.000 C 
ATOM     16  O   UNL     1      -2.381  11.980  17.689  0.00  0.00    +0.000 OA
ATOM     17  C   UNL     1      -1.728  11.954  21.322  0.00  0.00    +0.000 C 
ATOM     18  C   UNL     1      -1.968  13.288  22.040  0.00  0.00    +0.000 C 
BRANCH  11  19
ATOM     19  C   UNL     1      -4.179  12.655  23.097  0.00  0.00    +0.000 C 
ATOM     20  O   UNL     1      -3.623  11.995  23.966  0.00  0.00    +0.000 OA
BRANCH  19  22
ATOM     21  C   UNL     1      -6.319  12.646  24.034  0.00  0.00    +0.000 C 
ATOM     22  O   UNL     1      -5.518  12.628  22.850  0.00  0.00    +0.000 OA
ENDBRANCH  19  22
ENDBRANCH  11  19
ENDBRANCH   1  15
BRANCH   7  23
ATOM     23  C   UNL     1       2.473  15.869  18.930  0.00  0.00    +0.000 C 
ATOM     24  C   UNL     1       2.123  16.474  20.278  0.00  0.00    +0.000 C 
ATOM     25  C   UNL     1       1.863  17.922  19.944  0.00  0.00    +0.000 C 
ATOM     26  C   UNL     1       1.289  17.854  18.548  0.00  0.00    +0.000 C 
ATOM     27  O   UNL     1       1.788  16.661  17.938  0.00  0.00    +0.000 OA
ENDBRANCH   7  23
BRANCH   3  28
ATOM     28  N   UNL     1       1.855   8.612  17.958  0.00  0.00    +0.000 N 
ATOM     29  C   UNL     1       2.199   7.663  18.911  0.00  0.00    +0.000 C 
ATOM     30  O   UNL     1       2.142   7.803  20.129  0.00  0.00    +0.000 OA
ATOM     31  H   UNL     1       1.764   8.298  16.999  0.00  0.00    +0.000 HD
BRANCH  29  32
ATOM     32  C   UNL     1       2.620   6.319  18.351  0.00  0.00    +0.000 C 
BRANCH  32  33
ATOM     33  C   UNL     1       1.663   5.188  18.694  0.00  0.00    +0.000 C 
ATOM     34  C   UNL     1       1.803   3.949  17.811  0.00  0.00    +0.000 C 
ATOM     35  C   UNL     1       1.027   2.893  18.589  0.00  0.00    +0.000 C 
ATOM     36  C   UNL     1       1.204   3.259  20.064  0.00  0.00    +0.000 C 
ATOM     37  C   UNL     1       1.918   4.609  20.084  0.00  0.00    +0.000 C 
ENDBRANCH  32  33
ENDBRANCH  29  32
ENDBRANCH   3  28
TORSDOF 7
ENDMDL
MODEL 5
REMARK VINA RESULT:      -7.5      0.718      1.077
REMARK  Name = 
REMARK  9 active torsions:
REMARK  status: ('A' for Active; 'I' for Inactive)
REMARK    1  A    between atoms: C_1  and  O_2
REMARK    2  A    between atoms: O_2  and  C_3
REMARK    3  A    between atoms: C_3  and  C_5
REMARK    4  A    between atoms: C_9  and  C_11
REMARK    5  A    between atoms: C_13  and  N_14
REMARK    6  A    between atoms: C_15  and  C_17
REMARK    7  A    between atoms: C_17  and  C_18
REMARK    8  A    between atoms: C_26  and  C_27
REMARK    9  A    between atoms: N_32  and  C_33
REMARK                            x       y       z     vdW  Elec       q    Type
REMARK                         _______ _______ _______ _____ _____    ______ ____
ROOT
ATOM      1  C   UNL     1       0.441  11.530  19.490  0.00  0.00    +0.000 A 
ATOM      2  C   UNL     1       1.363  10.647  18.916  0.00  0.00    +0.000 A 
ATOM      3  C   UNL     1       0.989   9.520  18.195  0.00  0.00    +0.000 A 
ATOM      4  C   UNL     1      -0.361   9.345  17.870  0.00  0.00    +0.000 A 
ATOM      5  C   UNL     1      -1.305  10.308  18.294  0.00  0.00    +0.000 A 
ATOM      6  N   UNL     1      -2.654  10.347  18.042  0.00  0.00    +0.000 NA
ATOM      7  C   UNL     1      -3.104  11.459  18.599  0.00  0.00    +0.000 A 
ATOM      8  N   UNL     1      -2.073  12.118  19.246  0.00  0.00    +0.000 N 
ATOM      9  C   UNL     1      -2.189  13.412  19.882  0.00  0.00    +0.000 C 
ATOM     10  C   UNL     1      -0.905  11.390  19.082  0.00  0.00    +0.000 A 
ENDROOT
BRANCH   1  15
ATOM     11  C   UNL     1       0.829  16.678  19.455  0.00  0.00    +0.000 C 
ATOM     12  C   UNL     1       0.972  16.087  20.867  0.00  0.00    +0.000 C 
ATOM     13  C   UNL     1       1.835  14.824  20.874  0.00  0.00    +0.000 C 
ATOM     14  N   UNL     1       1.333  13.850  19.907  0.00  0.00    +0.000 N 
ATOM     15  C   UNL     1       0.947  12.590  20.389  0.00  0.00    +0.000 C 
ATOM     16  O   UNL     1       1.015  12.320  21.591  0.00  0.00    +0.000 OA
ATOM     17  C   UNL     1       1.280  14.366  18.530  0.00  0.00    +0.000 C 
ATOM     18  C   UNL     1       0.357  15.589  18.479  0.00  0.00    +0.000 C 
BRANCH  11  19
ATOM     19  C   UNL     1       2.133  17.316  18.998  0.00  0.00    +0.000 C 
ATOM     20  O   UNL     1       3.118  17.479  19.707  0.00  0.00    +0.000 OA
BRANCH  19  22
ATOM     21  C   UNL     1       1.005  18.630  17.431  0.00  0.00    +0.000 C 
ATOM     22  O   UNL     1       2.055  17.697  17.693  0.00  0.00    +0.000 OA
ENDBRANCH  19  22
ENDBRANCH  11  19
ENDBRANCH   1  15
BRANCH   7  23
ATOM     23  C   UNL     1      -4.524  11.961  18.578  0.00  0.00    +0.000 C 
ATOM     24  C   UNL     1      -5.159  12.160  19.944  0.00  0.00    +0.000 C 
ATOM     25  C   UNL     1      -6.614  11.851  19.691  0.00  0.00    +0.000 C 
ATOM     26  C   UNL     1      -6.557  10.797  18.609  0.00  0.00    +0.000 C 
ATOM     27  O   UNL     1      -5.336  10.987  17.890  0.00  0.00    +0.000 OA
ENDBRANCH   7  23
BRANCH   3  28
ATOM     28  N   UNL     1       1.932   8.542  17.793  0.00  0.00    +0.000 N 
ATOM     29  C   UNL     1       2.531   7.601  18.619  0.00  0.00    +0.000 C 
ATOM     30  O   UNL     1       2.273   7.405  19.804  0.00  0.00    +0.000 OA
ATOM     31  H   UNL     1       2.102   8.462  16.797  0.00  0.00    +0.000 HD
BRANCH  29  32
ATOM     32  C   UNL     1       3.551   6.710  17.939  0.00  0.00    +0.000 C 
BRANCH  32  33
ATOM     33  C   UNL     1       3.294   5.224  18.139  0.00  0.00    +0.000 C 
ATOM     34  C   UNL     1       1.899   4.760  17.723  0.00  0.00    +0.000 C 
ATOM     35  C   UNL     1       2.050   3.245  17.677  0.00  0.00    +0.000 C 
ATOM     36  C   UNL     1       3.501   2.990  17.261  0.00  0.00    +0.000 C 
ATOM     37  C   UNL     1       4.187   4.354  17.258  0.00  0.00    +0.000 C 
ENDBRANCH  32  33
ENDBRANCH  29  32
ENDBRANCH   3  28
TORSDOF 7
ENDMDL
MODEL 6
REMARK VINA RESULT:      -7.3      1.246      1.694
REMARK  Name = 
REMARK  9 active torsions:
REMARK  status: ('A' for Active; 'I' for Inactive)
REMARK    1  A    between atoms: C_1  and  O_2
REMARK    2  A    between atoms: O_2  and  C_3
REMARK    3  A    between atoms: C_3  and  C_5
REMARK    4  A    between atoms: C_9  and  C_11
REMARK    5  A    between atoms: C_13  and  N_14
REMARK    6  A    between atoms: C_15  and  C_17
REMARK    7  A    between atoms: C_17  and  C_18
REMARK    8  A    between atoms: C_26  and  C_27
REMARK    9  A    between atoms: N_32  and  C_33
REMARK                            x       y       z     vdW  Elec       q    Type
REMARK                         _______ _______ _______ _____ _____    ______ ____
ROOT
ATOM      1  C   UNL     1       0.448  11.338  19.611  0.00  0.00    +0.000 A 
ATOM      2  C   UNL     1       1.379  10.519  18.961  0.00  0.00    +0.000 A 
ATOM      3  C   UNL     1       1.017   9.512  18.074  0.00  0.00    +0.000 A 
ATOM      4  C   UNL     1      -0.321   9.419  17.671  0.00  0.00    +0.000 A 
ATOM      5  C   UNL     1      -1.264  10.338  18.183  0.00  0.00    +0.000 A 
ATOM      6  N   UNL     1      -2.599  10.446  17.880  0.00  0.00    +0.000 NA
ATOM      7  C   UNL     1      -3.052  11.482  18.567  0.00  0.00    +0.000 A 
ATOM      8  N   UNL     1      -2.040  12.019  19.342  0.00  0.00    +0.000 N 
ATOM      9  C   UNL     1      -2.160  13.215  20.147  0.00  0.00    +0.000 C 
ATOM     10  C   UNL     1      -0.880  11.290  19.130  0.00  0.00    +0.000 A 
ENDROOT
BRANCH   1  15
ATOM     11  C   UNL     1       1.300  16.400  20.168  0.00  0.00    +0.000 C 
ATOM     12  C   UNL     1       1.214  15.666  21.517  0.00  0.00    +0.000 C 
ATOM     13  C   UNL     1       1.951  14.326  21.487  0.00  0.00    +0.000 C 
ATOM     14  N   UNL     1       1.487  13.505  20.371  0.00  0.00    +0.000 N 
ATOM     15  C   UNL     1       0.933  12.251  20.670  0.00  0.00    +0.000 C 
ATOM     16  O   UNL     1       0.827  11.863  21.836  0.00  0.00    +0.000 OA
ATOM     17  C   UNL     1       1.652  14.152  19.060  0.00  0.00    +0.000 C 
ATOM     18  C   UNL     1       0.856  15.462  19.034  0.00  0.00    +0.000 C 
BRANCH  11  19
ATOM     19  C   UNL     1       2.703  16.941  19.933  0.00  0.00    +0.000 C 
ATOM     20  O   UNL     1       3.518  17.178  20.815  0.00  0.00    +0.000 OA
BRANCH  19  22
ATOM     21  C   UNL     1       4.172  16.612  18.147  0.00  0.00    +0.000 C 
ATOM     22  O   UNL     1       2.928  17.143  18.605  0.00  0.00    +0.000 OA
ENDBRANCH  19  22
ENDBRANCH  11  19
ENDBRANCH   1  15
BRANCH   7  23
ATOM     23  C   UNL     1      -4.460  12.018  18.554  0.00  0.00    +0.000 C 
ATOM     24  C   UNL     1      -5.159  12.028  19.902  0.00  0.00    +0.000 C 
ATOM     25  C   UNL     1      -6.605  11.798  19.537  0.00  0.00    +0.000 C 
ATOM     26  C   UNL     1      -6.513  10.917  18.313  0.00  0.00    +0.000 C 
ATOM     27  O   UNL     1      -5.253  11.180  17.689  0.00  0.00    +0.000 OA
ENDBRANCH   7  23
BRANCH   3  28
ATOM     28  N   UNL     1       1.958   8.575  17.582  0.00  0.00    +0.000 N 
ATOM     29  C   UNL     1       2.523   7.534  18.305  0.00  0.00    +0.000 C 
ATOM     30  O   UNL     1       2.232   7.202  19.451  0.00  0.00    +0.000 OA
ATOM     31  H   UNL     1       2.152   8.612  16.589  0.00  0.00    +0.000 HD
BRANCH  29  32
ATOM     32  C   UNL     1       3.550   6.714  17.549  0.00  0.00    +0.000 C 
BRANCH  32  33
ATOM     33  C   UNL     1       4.925   6.707  18.198  0.00  0.00    +0.000 C 
ATOM     34  C   UNL     1       5.333   5.366  18.805  0.00  0.00    +0.000 C 
ATOM     35  C   UNL     1       6.830   5.542  19.030  0.00  0.00    +0.000 C 
ATOM     36  C   UNL     1       7.306   6.472  17.912  0.00  0.00    +0.000 C 
ATOM     37  C   UNL     1       6.047   6.947  17.190  0.00  0.00    +0.000 C 
ENDBRANCH  32  33
ENDBRANCH  29  32
ENDBRANCH   3  28
TORSDOF 7
ENDMDL
MODEL 7
REMARK VINA RESULT:      -7.2      2.807      3.633
REMARK  Name = 
REMARK  9 active torsions:
REMARK  status: ('A' for Active; 'I' for Inactive)
REMARK    1  A    between atoms: C_1  and  O_2
REMARK    2  A    between atoms: O_2  and  C_3
REMARK    3  A    between atoms: C_3  and  C_5
REMARK    4  A    between atoms: C_9  and  C_11
REMARK    5  A    between atoms: C_13  and  N_14
REMARK    6  A    between atoms: C_15  and  C_17
REMARK    7  A    between atoms: C_17  and  C_18
REMARK    8  A    between atoms: C_26  and  C_27
REMARK    9  A    between atoms: N_32  and  C_33
REMARK                            x       y       z     vdW  Elec       q    Type
REMARK                         _______ _______ _______ _____ _____    ______ ____
ROOT
ATOM      1  C   UNL     1       0.398  11.563  20.377  0.00  0.00    +0.000 A 
ATOM      2  C   UNL     1       0.933  10.287  20.165  0.00  0.00    +0.000 A 
ATOM      3  C   UNL     1       0.809   9.249  21.079  0.00  0.00    +0.000 A 
ATOM      4  C   UNL     1      -0.036   9.420  22.183  0.00  0.00    +0.000 A 
ATOM      5  C   UNL     1      -0.725  10.644  22.343  0.00  0.00    +0.000 A 
ATOM      6  N   UNL     1      -1.626  10.993  23.319  0.00  0.00    +0.000 NA
ATOM      7  C   UNL     1      -2.039  12.214  23.023  0.00  0.00    +0.000 A 
ATOM      8  N   UNL     1      -1.386  12.677  21.894  0.00  0.00    +0.000 N 
ATOM      9  C   UNL     1      -1.661  13.936  21.238  0.00  0.00    +0.000 C 
ATOM     10  C   UNL     1      -0.518  11.694  21.445  0.00  0.00    +0.000 A 
ENDROOT
BRANCH   1  15
ATOM     11  C   UNL     1       4.119  15.103  19.841  0.00  0.00    +0.000 C 
ATOM     12  C   UNL     1       3.338  14.868  18.538  0.00  0.00    +0.000 C 
ATOM     13  C   UNL     1       1.833  14.745  18.787  0.00  0.00    +0.000 C 
ATOM     14  N   UNL     1       1.559  13.724  19.796  0.00  0.00    +0.000 N 
ATOM     15  C   UNL     1       0.748  12.640  19.425  0.00  0.00    +0.000 C 
ATOM     16  O   UNL     1       0.295  12.546  18.281  0.00  0.00    +0.000 OA
ATOM     17  C   UNL     1       2.220  13.982  21.085  0.00  0.00    +0.000 C 
ATOM     18  C   UNL     1       3.739  14.033  20.877  0.00  0.00    +0.000 C 
BRANCH  11  19
ATOM     19  C   UNL     1       3.880  16.509  20.373  0.00  0.00    +0.000 C 
ATOM     20  O   UNL     1       3.292  16.772  21.414  0.00  0.00    +0.000 OA
BRANCH  19  22
ATOM     21  C   UNL     1       5.807  17.325  19.336  0.00  0.00    +0.000 C 
ATOM     22  O   UNL     1       4.396  17.441  19.525  0.00  0.00    +0.000 OA
ENDBRANCH  19  22
ENDBRANCH  11  19
ENDBRANCH   1  15
BRANCH   7  23
ATOM     23  C   UNL     1      -3.052  13.026  23.786  0.00  0.00    +0.000 C 
ATOM     24  C   UNL     1      -4.291  13.417  23.000  0.00  0.00    +0.000 C 
ATOM     25  C   UNL     1      -4.664  14.753  23.595  0.00  0.00    +0.000 C 
ATOM     26  C   UNL     1      -3.325  15.345  23.971  0.00  0.00    +0.000 C 
ATOM     27  O   UNL     1      -2.424  14.258  24.197  0.00  0.00    +0.000 OA
ENDBRANCH   7  23
BRANCH   3  28
ATOM     28  N   UNL     1       1.520   8.032  20.932  0.00  0.00    +0.000 N 
ATOM     29  C   UNL     1       2.090   7.561  19.758  0.00  0.00    +0.000 C 
ATOM     30  O   UNL     1       2.150   8.160  18.687  0.00  0.00    +0.000 OA
ATOM     31  H   UNL     1       1.713   7.518  21.783  0.00  0.00    +0.000 HD
BRANCH  29  32
ATOM     32  C   UNL     1       2.745   6.198  19.867  0.00  0.00    +0.000 C 
BRANCH  32  33
ATOM     33  C   UNL     1       1.765   5.071  20.151  0.00  0.00    +0.000 C 
ATOM     34  C   UNL     1       1.616   4.059  19.016  0.00  0.00    +0.000 C 
ATOM     35  C   UNL     1       0.903   2.896  19.696  0.00  0.00    +0.000 C 
ATOM     36  C   UNL     1       1.389   2.909  21.146  0.00  0.00    +0.000 C 
ATOM     37  C   UNL     1       2.221   4.179  21.305  0.00  0.00    +0.000 C 
ENDBRANCH  32  33
ENDBRANCH  29  32
ENDBRANCH   3  28
TORSDOF 7
ENDMDL
MODEL 8
REMARK VINA RESULT:      -7.1      2.046      5.828
REMARK  Name = 
REMARK  9 active torsions:
REMARK  status: ('A' for Active; 'I' for Inactive)
REMARK    1  A    between atoms: C_1  and  O_2
REMARK    2  A    between atoms: O_2  and  C_3
REMARK    3  A    between atoms: C_3  and  C_5
REMARK    4  A    between atoms: C_9  and  C_11
REMARK    5  A    between atoms: C_13  and  N_14
REMARK    6  A    between atoms: C_15  and  C_17
REMARK    7  A    between atoms: C_17  and  C_18
REMARK    8  A    between atoms: C_26  and  C_27
REMARK    9  A    between atoms: N_32  and  C_33
REMARK                            x       y       z     vdW  Elec       q    Type
REMARK                         _______ _______ _______ _____ _____    ______ ____
ROOT
ATOM      1  C   UNL     1      -0.347  11.600  18.445  0.00  0.00    +0.000 A 
ATOM      2  C   UNL     1       0.092  10.273  18.373  0.00  0.00    +0.000 A 
ATOM      3  C   UNL     1       1.422   9.921  18.179  0.00  0.00    +0.000 A 
ATOM      4  C   UNL     1       2.399  10.922  18.231  0.00  0.00    +0.000 A 
ATOM      5  C   UNL     1       2.006  12.259  18.467  0.00  0.00    +0.000 A 
ATOM      6  N   UNL     1       2.803  13.370  18.602  0.00  0.00    +0.000 NA
ATOM      7  C   UNL     1       1.991  14.380  18.861  0.00  0.00    +0.000 A 
ATOM      8  N   UNL     1       0.676  13.948  18.854  0.00  0.00    +0.000 N 
ATOM      9  C   UNL     1      -0.467  14.769  19.190  0.00  0.00    +0.000 C 
ATOM     10  C   UNL     1       0.653  12.589  18.583  0.00  0.00    +0.000 A 
ENDROOT
BRANCH   1  15
ATOM     11  C   UNL     1      -3.801  13.574  21.735  0.00  0.00    +0.000 C 
ATOM     12  C   UNL     1      -4.325  13.527  20.290  0.00  0.00    +0.000 C 
ATOM     13  C   UNL     1      -3.954  12.219  19.589  0.00  0.00    +0.000 C 
ATOM     14  N   UNL     1      -2.516  11.978  19.672  0.00  0.00    +0.000 N 
ATOM     15  C   UNL     1      -1.803  11.860  18.469  0.00  0.00    +0.000 C 
ATOM     16  O   UNL     1      -2.370  11.972  17.379  0.00  0.00    +0.000 OA
ATOM     17  C   UNL     1      -2.010  11.921  21.052  0.00  0.00    +0.000 C 
ATOM     18  C   UNL     1      -2.299  13.252  21.757  0.00  0.00    +0.000 C 
BRANCH  11  19
ATOM     19  C   UNL     1      -4.590  12.628  22.630  0.00  0.00    +0.000 C 
ATOM     20  O   UNL     1      -5.762  12.316  22.457  0.00  0.00    +0.000 OA
BRANCH  19  22
ATOM     21  C   UNL     1      -4.379  12.458  24.950  0.00  0.00    +0.000 C 
ATOM     22  O   UNL     1      -3.822  12.184  23.663  0.00  0.00    +0.000 OA
ENDBRANCH  19  22
ENDBRANCH  11  19
ENDBRANCH   1  15
BRANCH   7  23
ATOM     23  C   UNL     1       2.391  15.811  19.112  0.00  0.00    +0.000 C 
ATOM     24  C   UNL     1       1.876  16.408  20.410  0.00  0.00    +0.000 C 
ATOM     25  C   UNL     1       1.682  17.863  20.061  0.00  0.00    +0.000 C 
ATOM     26  C   UNL     1       1.296  17.817  18.601  0.00  0.00    +0.000 C 
ATOM     27  O   UNL     1       1.854  16.622  18.048  0.00  0.00    +0.000 OA
ENDBRANCH   7  23
BRANCH   3  28
ATOM     28  N   UNL     1       1.811   8.584  17.916  0.00  0.00    +0.000 N 
ATOM     29  C   UNL     1       2.148   7.633  18.869  0.00  0.00    +0.000 C 
ATOM     30  O   UNL     1       2.074   7.768  20.088  0.00  0.00    +0.000 OA
ATOM     31  H   UNL     1       1.735   8.274  16.955  0.00  0.00    +0.000 HD
BRANCH  29  32
ATOM     32  C   UNL     1       2.585   6.294  18.310  0.00  0.00    +0.000 C 
BRANCH  32  33
ATOM     33  C   UNL     1       4.094   6.145  18.188  0.00  0.00    +0.000 C 
ATOM     34  C   UNL     1       4.731   5.253  19.252  0.00  0.00    +0.000 C 
ATOM     35  C   UNL     1       6.120   4.992  18.682  0.00  0.00    +0.000 C 
ATOM     36  C   UNL     1       5.946   4.995  17.162  0.00  0.00    +0.000 C 
ATOM     37  C   UNL     1       4.508   5.437  16.900  0.00  0.00    +0.000 C 
ENDBRANCH  32  33
ENDBRANCH  29  32
ENDBRANCH   3  28
TORSDOF 7
ENDMDL
MODEL 9
REMARK VINA RESULT:      -7.0      2.449      3.135
REMARK  Name = 
REMARK  9 active torsions:
REMARK  status: ('A' for Active; 'I' for Inactive)
REMARK    1  A    between atoms: C_1  and  O_2
REMARK    2  A    between atoms: O_2  and  C_3
REMARK    3  A    between atoms: C_3  and  C_5
REMARK    4  A    between atoms: C_9  and  C_11
REMARK    5  A    between atoms: C_13  and  N_14
REMARK    6  A    between atoms: C_15  and  C_17
REMARK    7  A    between atoms: C_17  and  C_18
REMARK    8  A    between atoms: C_26  and  C_27
REMARK    9  A    between atoms: N_32  and  C_33
REMARK                            x       y       z     vdW  Elec       q    Type
REMARK                         _______ _______ _______ _____ _____    ______ ____
ROOT
ATOM      1  C   UNL     1       0.010  13.591  19.238  0.00  0.00    +0.000 A 
ATOM      2  C   UNL     1       0.459  12.538  18.433  0.00  0.00    +0.000 A 
ATOM      3  C   UNL     1       0.230  11.200  18.732  0.00  0.00    +0.000 A 
ATOM      4  C   UNL     1      -0.636  10.884  19.786  0.00  0.00    +0.000 A 
ATOM      5  C   UNL     1      -1.241  11.929  20.521  0.00  0.00    +0.000 A 
ATOM      6  N   UNL     1      -2.147  11.833  21.549  0.00  0.00    +0.000 NA
ATOM      7  C   UNL     1      -2.461  13.074  21.883  0.00  0.00    +0.000 A 
ATOM      8  N   UNL     1      -1.740  13.971  21.115  0.00  0.00    +0.000 N 
ATOM      9  C   UNL     1      -1.902  15.408  21.150  0.00  0.00    +0.000 C 
ATOM     10  C   UNL     1      -0.929  13.262  20.241  0.00  0.00    +0.000 A 
ENDROOT
BRANCH   1  15
ATOM     11  C   UNL     1       4.464  15.949  18.117  0.00  0.00    +0.000 C 
ATOM     12  C   UNL     1       3.238  16.789  17.722  0.00  0.00    +0.000 C 
ATOM     13  C   UNL     1       2.145  16.745  18.792  0.00  0.00    +0.000 C 
ATOM     14  N   UNL     1       1.797  15.364  19.119  0.00  0.00    +0.000 N 
ATOM     15  C   UNL     1       0.467  14.962  18.924  0.00  0.00    +0.000 C 
ATOM     16  O   UNL     1      -0.376  15.745  18.477  0.00  0.00    +0.000 OA
ATOM     17  C   UNL     1       2.940  14.568  19.593  0.00  0.00    +0.000 C 
ATOM     18  C   UNL     1       4.021  14.529  18.506  0.00  0.00    +0.000 C 
BRANCH  11  19
ATOM     19  C   UNL     1       5.244  16.620  19.238  0.00  0.00    +0.000 C 
ATOM     20  O   UNL     1       5.284  17.828  19.436  0.00  0.00    +0.000 OA
BRANCH  19  22
ATOM     21  C   UNL     1       7.221  16.111  20.373  0.00  0.00    +0.000 C 
ATOM     22  O   UNL     1       5.910  15.697  19.985  0.00  0.00    +0.000 OA
ENDBRANCH  19  22
ENDBRANCH  11  19
ENDBRANCH   1  15
BRANCH   7  23
ATOM     23  C   UNL     1      -3.438  13.494  22.949  0.00  0.00    +0.000 C 
ATOM     24  C   UNL     1      -3.669  12.476  24.052  0.00  0.00    +0.000 C 
ATOM     25  C   UNL     1      -5.108  12.712  24.437  0.00  0.00    +0.000 C 
ATOM     26  C   UNL     1      -5.746  13.138  23.135  0.00  0.00    +0.000 C 
ATOM     27  O   UNL     1      -4.719  13.716  22.324  0.00  0.00    +0.000 OA
ENDBRANCH   7  23
BRANCH   3  28
ATOM     28  N   UNL     1       0.857  10.154  18.011  0.00  0.00    +0.000 N 
ATOM     29  C   UNL     1       1.552   9.088  18.565  0.00  0.00    +0.000 C 
ATOM     30  O   UNL     1       1.654   8.829  19.761  0.00  0.00    +0.000 OA
ATOM     31  H   UNL     1       0.693  10.135  17.012  0.00  0.00    +0.000 HD
BRANCH  29  32
ATOM     32  C   UNL     1       2.176   8.140  17.560  0.00  0.00    +0.000 C 
BRANCH  32  33
ATOM     33  C   UNL     1       2.980   7.018  18.196  0.00  0.00    +0.000 C 
ATOM     34  C   UNL     1       2.298   5.651  18.164  0.00  0.00    +0.000 C 
ATOM     35  C   UNL     1       3.438   4.699  18.506  0.00  0.00    +0.000 C 
ATOM     36  C   UNL     1       4.700   5.350  17.935  0.00  0.00    +0.000 C 
ATOM     37  C   UNL     1       4.281   6.734  17.446  0.00  0.00    +0.000 C 
ENDBRANCH  32  33
ENDBRANCH  29  32
ENDBRANCH   3  28
TORSDOF 7
ENDMDL
