MODEL 1
REMARK VINA RESULT:      -8.0      0.000      0.000
REMARK  Name = 
REMARK  6 active torsions:
REMARK  status: ('A' for Active; 'I' for Inactive)
REMARK    1  A    between atoms: C_1  and  O_2
REMARK    2  A    between atoms: O_2  and  C_3
REMARK    3  A    between atoms: C_5  and  C_6
REMARK    4  A    between atoms: C_6  and  O_7
REMARK    5  A    between atoms: C_9  and  C_10
REMARK    6  A    between atoms: C_16  and  C_17
REMARK                            x       y       z     vdW  Elec       q    Type
REMARK                         _______ _______ _______ _____ _____    ______ ____
ROOT
ATOM      1  C   UNL     1       2.429   7.271  18.726  0.00  0.00    +0.000 A 
ATOM      2  C   UNL     1       2.284   8.235  17.805  0.00  0.00    +0.000 A 
ATOM      3  C   UNL     1       1.892   9.573  18.216  0.00  0.00    +0.000 A 
ATOM      4  O   UNL     1       2.050  10.538  17.492  0.00  0.00    +0.000 OA
ATOM      5  C   UNL     1       1.240   9.661  19.516  0.00  0.00    +0.000 A 
ATOM      6  C   UNL     1       0.476  10.790  19.815  0.00  0.00    +0.000 A 
ATOM      7  C   UNL     1      -0.311  10.814  20.960  0.00  0.00    +0.000 A 
ATOM      8  C   UNL     1      -1.215  11.990  21.198  0.00  0.00    +0.000 C 
ATOM      9  C   UNL     1      -0.291   9.701  21.816  0.00  0.00    +0.000 A 
ATOM     10  C   UNL     1       0.528   8.587  21.539  0.00  0.00    +0.000 A 
ATOM     11  C   UNL     1       1.291   8.558  20.371  0.00  0.00    +0.000 A 
ATOM     12  O   UNL     1       2.043   7.436  20.066  0.00  0.00    +0.000 OA
ENDROOT
BRANCH   1  17
ATOM     13  C   UNL     1       2.654   3.591  17.795  0.00  0.00    +0.000 A 
ATOM     14  C   UNL     1       3.961   3.515  17.291  0.00  0.00    +0.000 A 
ATOM     15  C   UNL     1       4.811   4.615  17.351  0.00  0.00    +0.000 A 
ATOM     16  C   UNL     1       4.316   5.802  17.905  0.00  0.00    +0.000 A 
ATOM     17  C   UNL     1       2.969   5.944  18.324  0.00  0.00    +0.000 A 
ATOM     18  C   UNL     1       2.164   4.792  18.306  0.00  0.00    +0.000 A 
BRANCH  13  20
ATOM     19  C   UNL     1       0.923   2.247  18.659  0.00  0.00    +0.000 C 
ATOM     20  O   UNL     1       1.938   2.431  17.681  0.00  0.00    +0.000 OA
ENDBRANCH  13  20
BRANCH  15  21
ATOM     21  C   UNL     1       6.235   4.490  16.875  0.00  0.00    +0.000 C 
BRANCH  21  22
ATOM     22  O   UNL     1       7.114   4.159  17.942  0.00  0.00    +0.000 OA
ATOM     23  H   UNL     1       7.953   4.621  17.769  0.00  0.00    +0.000 HD
ENDBRANCH  21  22
ENDBRANCH  15  21
ENDBRANCH   1  17
TORSDOF 4
ENDMDL
MODEL 2
REMARK VINA RESULT:      -7.8      0.732      2.647
REMARK  Name = 
REMARK  6 active torsions:
REMARK  status: ('A' for Active; 'I' for Inactive)
REMARK    1  A    between atoms: C_1  and  O_2
REMARK    2  A    between atoms: O_2  and  C_3
REMARK    3  A    between atoms: C_5  and  C_6
REMARK    4  A    between atoms: C_6  and  O_7
REMARK    5  A    between atoms: C_9  and  C_10
REMARK    6  A    between atoms: C_16  and  C_17
REMARK                            x       y       z     vdW  Elec       q    Type
REMARK                         _______ _______ _______ _____ _____    ______ ____
ROOT
ATOM      1  C   UNL     1       2.577   7.275  18.862  0.00  0.00    +0.000 A 
ATOM      2  C   UNL     1       2.368   8.154  17.872  0.00  0.00    +0.000 A 
ATOM      3  C   UNL     1       1.859   9.480  18.180  0.00  0.00    +0.000 A 
ATOM      4  O   UNL     1       1.947  10.401  17.389  0.00  0.00    +0.000 OA
ATOM      5  C   UNL     1       1.180   9.606  19.463  0.00  0.00    +0.000 A 
ATOM      6  C   UNL     1       0.320  10.685  19.671  0.00  0.00    +0.000 A 
ATOM      7  C   UNL     1      -0.486  10.725  20.802  0.00  0.00    +0.000 A 
ATOM      8  C   UNL     1      -1.488  11.835  20.945  0.00  0.00    +0.000 C 
ATOM      9  C   UNL     1      -0.387   9.682  21.738  0.00  0.00    +0.000 A 
ATOM     10  C   UNL     1       0.527   8.624  21.551  0.00  0.00    +0.000 A 
ATOM     11  C   UNL     1       1.310   8.576  20.397  0.00  0.00    +0.000 A 
ATOM     12  O   UNL     1       2.157   7.502  20.182  0.00  0.00    +0.000 OA
ENDROOT
BRANCH   1  17
ATOM     13  C   UNL     1       5.197   4.539  18.530  0.00  0.00    +0.000 A 
ATOM     14  C   UNL     1       4.394   3.420  18.261  0.00  0.00    +0.000 A 
ATOM     15  C   UNL     1       3.022   3.559  18.076  0.00  0.00    +0.000 A 
ATOM     16  C   UNL     1       2.467   4.840  18.188  0.00  0.00    +0.000 A 
ATOM     17  C   UNL     1       3.233   5.972  18.564  0.00  0.00    +0.000 A 
ATOM     18  C   UNL     1       4.623   5.800  18.679  0.00  0.00    +0.000 A 
BRANCH  13  20
ATOM     19  C   UNL     1       7.358   4.672  17.600  0.00  0.00    +0.000 C 
ATOM     20  O   UNL     1       6.528   4.254  18.676  0.00  0.00    +0.000 OA
ENDBRANCH  13  20
BRANCH  15  21
ATOM     21  C   UNL     1       2.189   2.358  17.712  0.00  0.00    +0.000 C 
BRANCH  21  22
ATOM     22  O   UNL     1       2.183   1.391  18.756  0.00  0.00    +0.000 OA
ATOM     23  H   UNL     1       3.101   1.088  18.863  0.00  0.00    +0.000 HD
ENDBRANCH  21  22
ENDBRANCH  15  21
ENDBRANCH   1  17
TORSDOF 4
ENDMDL
MODEL 3
REMARK VINA RESULT:      -7.7      0.903      2.732
REMARK  Name = 
REMARK  6 active torsions:
REMARK  status: ('A' for Active; 'I' for Inactive)
REMARK    1  A    between atoms: C_1  and  O_2
REMARK    2  A    between atoms: O_2  and  C_3
REMARK    3  A    between atoms: C_5  and  C_6
REMARK    4  A    between atoms: C_6  and  O_7
REMARK    5  A    between atoms: C_9  and  C_10
REMARK    6  A    between atoms: C_16  and  C_17
REMARK                            x       y       z     vdW  Elec       q    Type
REMARK                         _______ _______ _______ _____ _____    ______ ____
ROOT
ATOM      1  C   UNL     1       2.360   7.598  18.701  0.00  0.00    +0.000 A 
ATOM      2  C   UNL     1       2.039   8.673  17.967  0.00  0.00    +0.000 A 
ATOM      3  C   UNL     1       1.594   9.889  18.627  0.00  0.00    +0.000 A 
ATOM      4  O   UNL     1       1.595  10.965  18.057  0.00  0.00    +0.000 OA
ATOM      5  C   UNL     1       1.086   9.716  19.982  0.00  0.00    +0.000 A 
ATOM      6  C   UNL     1       0.277  10.709  20.533  0.00  0.00    +0.000 A 
ATOM      7  C   UNL     1      -0.378  10.483  21.739  0.00  0.00    +0.000 A 
ATOM      8  C   UNL     1      -1.336  11.519  22.253  0.00  0.00    +0.000 C 
ATOM      9  C   UNL     1      -0.176   9.259  22.397  0.00  0.00    +0.000 A 
ATOM     10  C   UNL     1       0.690   8.282  21.863  0.00  0.00    +0.000 A 
ATOM     11  C   UNL     1       1.318   8.504  20.637  0.00  0.00    +0.000 A 
ATOM     12  O   UNL     1       2.115   7.518  20.081  0.00  0.00    +0.000 OA
ENDROOT
BRANCH   1  17
ATOM     13  C   UNL     1       4.778   5.314  16.856  0.00  0.00    +0.000 A 
ATOM     14  C   UNL     1       4.168   4.063  17.040  0.00  0.00    +0.000 A 
ATOM     15  C   UNL     1       2.926   3.962  17.659  0.00  0.00    +0.000 A 
ATOM     16  C   UNL     1       2.316   5.139  18.111  0.00  0.00    +0.000 A 
ATOM     17  C   UNL     1       2.952   6.404  18.037  0.00  0.00    +0.000 A 
ATOM     18  C   UNL     1       4.175   6.470  17.350  0.00  0.00    +0.000 A 
BRANCH  13  20
ATOM     19  C   UNL     1       7.051   4.714  16.992  0.00  0.00    +0.000 C 
ATOM     20  O   UNL     1       5.989   5.262  16.223  0.00  0.00    +0.000 OA
ENDBRANCH  13  20
BRANCH  15  21
ATOM     21  C   UNL     1       2.254   2.619  17.777  0.00  0.00    +0.000 C 
BRANCH  21  22
ATOM     22  O   UNL     1       0.914   2.745  18.236  0.00  0.00    +0.000 OA
ATOM     23  H   UNL     1       0.392   3.085  17.488  0.00  0.00    +0.000 HD
ENDBRANCH  21  22
ENDBRANCH  15  21
ENDBRANCH   1  17
TORSDOF 4
ENDMDL
MODEL 4
REMARK VINA RESULT:      -7.6      1.630      3.046
REMARK  Name = 
REMARK  6 active torsions:
REMARK  status: ('A' for Active; 'I' for Inactive)
REMARK    1  A    between atoms: C_1  and  O_2
REMARK    2  A    between atoms: O_2  and  C_3
REMARK    3  A    between atoms: C_5  and  C_6
REMARK    4  A    between atoms: C_6  and  O_7
REMARK    5  A    between atoms: C_9  and  C_10
REMARK    6  A    between atoms: C_16  and  C_17
REMARK                            x       y       z     vdW  Elec       q    Type
REMARK                         _______ _______ _______ _____ _____    ______ ____
ROOT
ATOM      1  C   UNL     1       2.182   7.339  19.486  0.00  0.00    +0.000 A 
ATOM      2  C   UNL     1       2.169   8.002  18.321  0.00  0.00    +0.000 A 
ATOM      3  C   UNL     1       1.805   9.410  18.296  0.00  0.00    +0.000 A 
ATOM      4  O   UNL     1       2.074  10.125  17.348  0.00  0.00    +0.000 OA
ATOM      5  C   UNL     1       1.041   9.878  19.445  0.00  0.00    +0.000 A 
ATOM      6  C   UNL     1       0.308  11.060  19.334  0.00  0.00    +0.000 A 
ATOM      7  C   UNL     1      -0.579  11.425  20.340  0.00  0.00    +0.000 A 
ATOM      8  C   UNL     1      -1.444  12.638  20.144  0.00  0.00    +0.000 C 
ATOM      9  C   UNL     1      -0.690  10.603  21.473  0.00  0.00    +0.000 A 
ATOM     10  C   UNL     1       0.097   9.440  21.605  0.00  0.00    +0.000 A 
ATOM     11  C   UNL     1       0.962   9.064  20.577  0.00  0.00    +0.000 A 
ATOM     12  O   UNL     1       1.684   7.887  20.679  0.00  0.00    +0.000 OA
ENDROOT
BRANCH   1  17
ATOM     13  C   UNL     1       4.497   4.328  19.292  0.00  0.00    +0.000 A 
ATOM     14  C   UNL     1       3.710   3.337  19.899  0.00  0.00    +0.000 A 
ATOM     15  C   UNL     1       2.395   3.603  20.270  0.00  0.00    +0.000 A 
ATOM     16  C   UNL     1       1.892   4.889  20.043  0.00  0.00    +0.000 A 
ATOM     17  C   UNL     1       2.693   5.942  19.532  0.00  0.00    +0.000 A 
ATOM     18  C   UNL     1       3.993   5.616  19.111  0.00  0.00    +0.000 A 
BRANCH  13  20
ATOM     19  C   UNL     1       6.532   4.865  18.236  0.00  0.00    +0.000 C 
ATOM     20  O   UNL     1       5.763   3.922  18.970  0.00  0.00    +0.000 OA
ENDBRANCH  13  20
BRANCH  15  21
ATOM     21  C   UNL     1       1.543   2.504  20.849  0.00  0.00    +0.000 C 
BRANCH  21  22
ATOM     22  O   UNL     1       1.568   2.518  22.271  0.00  0.00    +0.000 OA
ATOM     23  H   UNL     1       0.741   2.103  22.570  0.00  0.00    +0.000 HD
ENDBRANCH  21  22
ENDBRANCH  15  21
ENDBRANCH   1  17
TORSDOF 4
ENDMDL
MODEL 5
REMARK VINA RESULT:      -7.6      4.887      6.910
REMARK  Name = 
REMARK  6 active torsions:
REMARK  status: ('A' for Active; 'I' for Inactive)
REMARK    1  A    between atoms: C_1  and  O_2
REMARK    2  A    between atoms: O_2  and  C_3
REMARK    3  A    between atoms: C_5  and  C_6
REMARK    4  A    between atoms: C_6  and  O_7
REMARK    5  A    between atoms: C_9  and  C_10
REMARK    6  A    between atoms: C_16  and  C_17
REMARK                            x       y       z     vdW  Elec       q    Type
REMARK                         _______ _______ _______ _____ _____    ______ ____
ROOT
ATOM      1  C   UNL     1       5.269   4.004  16.488  0.00  0.00    +0.000 A 
ATOM      2  C   UNL     1       5.545   4.905  17.441  0.00  0.00    +0.000 A 
ATOM      3  C   UNL     1       5.130   4.656  18.812  0.00  0.00    +0.000 A 
ATOM      4  O   UNL     1       5.613   5.264  19.749  0.00  0.00    +0.000 OA
ATOM      5  C   UNL     1       4.053   3.686  18.973  0.00  0.00    +0.000 A 
ATOM      6  C   UNL     1       3.320   3.680  20.159  0.00  0.00    +0.000 A 
ATOM      7  C   UNL     1       2.171   2.906  20.263  0.00  0.00    +0.000 A 
ATOM      8  C   UNL     1       1.333   3.007  21.505  0.00  0.00    +0.000 C 
ATOM      9  C   UNL     1       1.792   2.111  19.168  0.00  0.00    +0.000 A 
ATOM     10  C   UNL     1       2.571   2.077  17.993  0.00  0.00    +0.000 A 
ATOM     11  C   UNL     1       3.705   2.882  17.886  0.00  0.00    +0.000 A 
ATOM     12  O   UNL     1       4.431   2.899  16.706  0.00  0.00    +0.000 OA
ENDROOT
BRANCH   1  17
ATOM     13  C   UNL     1       7.499   5.083  13.603  0.00  0.00    +0.000 A 
ATOM     14  C   UNL     1       6.997   4.292  12.558  0.00  0.00    +0.000 A 
ATOM     15  C   UNL     1       5.873   3.495  12.747  0.00  0.00    +0.000 A 
ATOM     16  C   UNL     1       5.274   3.487  14.012  0.00  0.00    +0.000 A 
ATOM     17  C   UNL     1       5.819   4.190  15.118  0.00  0.00    +0.000 A 
ATOM     18  C   UNL     1       6.915   5.031  14.868  0.00  0.00    +0.000 A 
BRANCH  13  20
ATOM     19  C   UNL     1       8.582   6.379  11.962  0.00  0.00    +0.000 C 
ATOM     20  O   UNL     1       8.600   5.824  13.270  0.00  0.00    +0.000 OA
ENDBRANCH  13  20
BRANCH  15  21
ATOM     21  C   UNL     1       5.305   2.713  11.591  0.00  0.00    +0.000 C 
BRANCH  21  22
ATOM     22  O   UNL     1       5.930   1.442  11.463  0.00  0.00    +0.000 OA
ATOM     23  H   UNL     1       6.528   1.499  10.697  0.00  0.00    +0.000 HD
ENDBRANCH  21  22
ENDBRANCH  15  21
ENDBRANCH   1  17
TORSDOF 4
ENDMDL
MODEL 6
REMARK VINA RESULT:      -7.6      1.101      1.112
REMARK  Name = 
REMARK  6 active torsions:
REMARK  status: ('A' for Active; 'I' for Inactive)
REMARK    1  A    between atoms: C_1  and  O_2
REMARK    2  A    between atoms: O_2  and  C_3
REMARK    3  A    between atoms: C_5  and  C_6
REMARK    4  A    between atoms: C_6  and  O_7
REMARK    5  A    between atoms: C_9  and  C_10
REMARK    6  A    between atoms: C_16  and  C_17
REMARK                            x       y       z     vdW  Elec       q    Type
REMARK                         _______ _______ _______ _____ _____    ______ ____
ROOT
ATOM      1  C   UNL     1       2.179   7.616  18.997  0.00  0.00    +0.000 A 
ATOM      2  C   UNL     1       1.890   8.658  18.205  0.00  0.00    +0.000 A 
ATOM      3  C   UNL     1       1.458   9.915  18.794  0.00  0.00    +0.000 A 
ATOM      4  O   UNL     1       1.488  10.959  18.170  0.00  0.00    +0.000 OA
ATOM      5  C   UNL     1       0.928   9.821  20.148  0.00  0.00    +0.000 A 
ATOM      6  C   UNL     1       0.130  10.855  20.636  0.00  0.00    +0.000 A 
ATOM      7  C   UNL     1      -0.546  10.704  21.841  0.00  0.00    +0.000 A 
ATOM      8  C   UNL     1      -1.492  11.783  22.286  0.00  0.00    +0.000 C 
ATOM      9  C   UNL     1      -0.377   9.512  22.564  0.00  0.00    +0.000 A 
ATOM     10  C   UNL     1       0.477   8.493  22.094  0.00  0.00    +0.000 A 
ATOM     11  C   UNL     1       1.127   8.640  20.868  0.00  0.00    +0.000 A 
ATOM     12  O   UNL     1       1.913   7.612  20.376  0.00  0.00    +0.000 OA
ENDROOT
BRANCH   1  17
ATOM     13  C   UNL     1       2.624   4.008  17.880  0.00  0.00    +0.000 A 
ATOM     14  C   UNL     1       3.738   4.118  17.035  0.00  0.00    +0.000 A 
ATOM     15  C   UNL     1       4.417   5.326  16.907  0.00  0.00    +0.000 A 
ATOM     16  C   UNL     1       3.943   6.429  17.627  0.00  0.00    +0.000 A 
ATOM     17  C   UNL     1       2.758   6.379  18.405  0.00  0.00    +0.000 A 
ATOM     18  C   UNL     1       2.140   5.127  18.557  0.00  0.00    +0.000 A 
BRANCH  13  20
ATOM     19  C   UNL     1       0.972   2.612  18.812  0.00  0.00    +0.000 C 
ATOM     20  O   UNL     1       2.065   2.760  17.916  0.00  0.00    +0.000 OA
ENDBRANCH  13  20
BRANCH  15  21
ATOM     21  C   UNL     1       5.657   5.403  16.055  0.00  0.00    +0.000 C 
BRANCH  21  22
ATOM     22  O   UNL     1       5.644   6.554  15.219  0.00  0.00    +0.000 OA
ATOM     23  H   UNL     1       5.230   6.287  14.380  0.00  0.00    +0.000 HD
ENDBRANCH  21  22
ENDBRANCH  15  21
ENDBRANCH   1  17
TORSDOF 4
ENDMDL
MODEL 7
REMARK VINA RESULT:      -7.6      1.116      1.143
REMARK  Name = 
REMARK  6 active torsions:
REMARK  status: ('A' for Active; 'I' for Inactive)
REMARK    1  A    between atoms: C_1  and  O_2
REMARK    2  A    between atoms: O_2  and  C_3
REMARK    3  A    between atoms: C_5  and  C_6
REMARK    4  A    between atoms: C_6  and  O_7
REMARK    5  A    between atoms: C_9  and  C_10
REMARK    6  A    between atoms: C_16  and  C_17
REMARK                            x       y       z     vdW  Elec       q    Type
REMARK                         _______ _______ _______ _____ _____    ______ ____
ROOT
ATOM      1  C   UNL     1       2.247   7.231  19.159  0.00  0.00    +0.000 A 
ATOM      2  C   UNL     1       2.151   8.044  18.097  0.00  0.00    +0.000 A 
ATOM      3  C   UNL     1       1.806   9.443  18.290  0.00  0.00    +0.000 A 
ATOM      4  O   UNL     1       2.010  10.278  17.428  0.00  0.00    +0.000 OA
ATOM      5  C   UNL     1       1.143   9.756  19.549  0.00  0.00    +0.000 A 
ATOM      6  C   UNL     1       0.421  10.945  19.656  0.00  0.00    +0.000 A 
ATOM      7  C   UNL     1      -0.379  11.175  20.769  0.00  0.00    +0.000 A 
ATOM      8  C   UNL     1      -1.239  12.407  20.807  0.00  0.00    +0.000 C 
ATOM      9  C   UNL     1      -0.412  10.209  21.788  0.00  0.00    +0.000 A 
ATOM     10  C   UNL     1       0.366   9.036  21.700  0.00  0.00    +0.000 A 
ATOM     11  C   UNL     1       1.142   8.798  20.565  0.00  0.00    +0.000 A 
ATOM     12  O   UNL     1       1.853   7.615  20.450  0.00  0.00    +0.000 OA
ENDROOT
BRANCH   1  17
ATOM     13  C   UNL     1       2.644   3.464  19.494  0.00  0.00    +0.000 A 
ATOM     14  C   UNL     1       3.492   3.180  18.412  0.00  0.00    +0.000 A 
ATOM     15  C   UNL     1       4.027   4.206  17.640  0.00  0.00    +0.000 A 
ATOM     16  C   UNL     1       3.677   5.523  17.960  0.00  0.00    +0.000 A 
ATOM     17  C   UNL     1       2.740   5.838  18.977  0.00  0.00    +0.000 A 
ATOM     18  C   UNL     1       2.274   4.778  19.772  0.00  0.00    +0.000 A 
BRANCH  13  20
ATOM     19  C   UNL     1       1.662   2.613  21.458  0.00  0.00    +0.000 C 
ATOM     20  O   UNL     1       2.204   2.358  20.169  0.00  0.00    +0.000 OA
ENDBRANCH  13  20
BRANCH  15  21
ATOM     21  C   UNL     1       4.995   3.885  16.532  0.00  0.00    +0.000 C 
BRANCH  21  22
ATOM     22  O   UNL     1       6.343   3.932  16.987  0.00  0.00    +0.000 OA
ATOM     23  H   UNL     1       6.564   4.871  17.112  0.00  0.00    +0.000 HD
ENDBRANCH  21  22
ENDBRANCH  15  21
ENDBRANCH   1  17
TORSDOF 4
ENDMDL
MODEL 8
REMARK VINA RESULT:      -7.6      1.782      3.013
REMARK  Name = 
REMARK  6 active torsions:
REMARK  status: ('A' for Active; 'I' for Inactive)
REMARK    1  A    between atoms: C_1  and  O_2
REMARK    2  A    between atoms: O_2  and  C_3
REMARK    3  A    between atoms: C_5  and  C_6
REMARK    4  A    between atoms: C_6  and  O_7
REMARK    5  A    between atoms: C_9  and  C_10
REMARK    6  A    between atoms: C_16  and  C_17
REMARK                            x       y       z     vdW  Elec       q    Type
REMARK                         _______ _______ _______ _____ _____    ______ ____
ROOT
ATOM      1  C   UNL     1       1.662   7.900  20.192  0.00  0.00    +0.000 A 
ATOM      2  C   UNL     1       1.492   8.794  19.208  0.00  0.00    +0.000 A 
ATOM      3  C   UNL     1       1.108  10.159  19.531  0.00  0.00    +0.000 A 
ATOM      4  O   UNL     1       1.245  11.069  18.735  0.00  0.00    +0.000 OA
ATOM      5  C   UNL     1       0.489  10.341  20.838  0.00  0.00    +0.000 A 
ATOM      6  C   UNL     1      -0.269  11.488  21.074  0.00  0.00    +0.000 A 
ATOM      7  C   UNL     1      -1.027  11.594  22.234  0.00  0.00    +0.000 A 
ATOM      8  C   UNL     1      -1.927  12.784  22.410  0.00  0.00    +0.000 C 
ATOM      9  C   UNL     1      -0.983  10.546  23.168  0.00  0.00    +0.000 A 
ATOM     10  C   UNL     1      -0.169   9.415  22.950  0.00  0.00    +0.000 A 
ATOM     11  C   UNL     1       0.565   9.302  21.769  0.00  0.00    +0.000 A 
ATOM     12  O   UNL     1       1.311   8.160  21.526  0.00  0.00    +0.000 OA
ENDROOT
BRANCH   1  17
ATOM     13  C   UNL     1       3.818   5.104  18.778  0.00  0.00    +0.000 A 
ATOM     14  C   UNL     1       3.354   4.002  19.513  0.00  0.00    +0.000 A 
ATOM     15  C   UNL     1       2.276   4.130  20.382  0.00  0.00    +0.000 A 
ATOM     16  C   UNL     1       1.684   5.392  20.518  0.00  0.00    +0.000 A 
ATOM     17  C   UNL     1       2.195   6.547  19.873  0.00  0.00    +0.000 A 
ATOM     18  C   UNL     1       3.244   6.362  18.957  0.00  0.00    +0.000 A 
BRANCH  13  20
ATOM     19  C   UNL     1       4.529   4.296  16.683  0.00  0.00    +0.000 C 
ATOM     20  O   UNL     1       4.875   4.828  17.955  0.00  0.00    +0.000 OA
ENDBRANCH  13  20
BRANCH  15  21
ATOM     21  C   UNL     1       1.745   2.919  21.103  0.00  0.00    +0.000 C 
BRANCH  21  22
ATOM     22  O   UNL     1       2.525   2.611  22.251  0.00  0.00    +0.000 OA
ATOM     23  H   UNL     1       2.632   1.645  22.267  0.00  0.00    +0.000 HD
ENDBRANCH  21  22
ENDBRANCH  15  21
ENDBRANCH   1  17
TORSDOF 4
ENDMDL
MODEL 9
REMARK VINA RESULT:      -7.5      1.895      7.470
REMARK  Name = 
REMARK  6 active torsions:
REMARK  status: ('A' for Active; 'I' for Inactive)
REMARK    1  A    between atoms: C_1  and  O_2
REMARK    2  A    between atoms: O_2  and  C_3
REMARK    3  A    between atoms: C_5  and  C_6
REMARK    4  A    between atoms: C_6  and  O_7
REMARK    5  A    between atoms: C_9  and  C_10
REMARK    6  A    between atoms: C_16  and  C_17
REMARK                            x       y       z     vdW  Elec       q    Type
REMARK                         _______ _______ _______ _____ _____    ______ ____
ROOT
ATOM      1  C   UNL     1       2.516   7.451  19.036  0.00  0.00    +0.000 A 
ATOM      2  C   UNL     1       2.431   6.200  19.512  0.00  0.00    +0.000 A 
ATOM      3  C   UNL     1       3.439   5.219  19.146  0.00  0.00    +0.000 A 
ATOM      4  O   UNL     1       3.593   4.190  19.778  0.00  0.00    +0.000 OA
ATOM      5  C   UNL     1       4.198   5.522  17.939  0.00  0.00    +0.000 A 
ATOM      6  C   UNL     1       4.874   4.491  17.287  0.00  0.00    +0.000 A 
ATOM      7  C   UNL     1       5.438   4.710  16.036  0.00  0.00    +0.000 A 
ATOM      8  C   UNL     1       6.057   3.554  15.303  0.00  0.00    +0.000 C 
ATOM      9  C   UNL     1       5.343   5.991  15.468  0.00  0.00    +0.000 A 
ATOM     10  C   UNL     1       4.708   7.045  16.158  0.00  0.00    +0.000 A 
ATOM     11  C   UNL     1       4.117   6.808  17.399  0.00  0.00    +0.000 A 
ATOM     12  O   UNL     1       3.436   7.827  18.045  0.00  0.00    +0.000 OA
ENDROOT
BRANCH   1  17
ATOM     13  C   UNL     1       0.089  10.378  19.120  0.00  0.00    +0.000 A 
ATOM     14  C   UNL     1      -0.434  10.264  20.417  0.00  0.00    +0.000 A 
ATOM     15  C   UNL     1       0.070   9.318  21.305  0.00  0.00    +0.000 A 
ATOM     16  C   UNL     1       1.093   8.473  20.860  0.00  0.00    +0.000 A 
ATOM     17  C   UNL     1       1.569   8.490  19.524  0.00  0.00    +0.000 A 
ATOM     18  C   UNL     1       1.079   9.500  18.680  0.00  0.00    +0.000 A 
BRANCH  13  20
ATOM     19  C   UNL     1      -1.748  11.824  18.837  0.00  0.00    +0.000 C 
ATOM     20  O   UNL     1      -0.492  11.358  18.363  0.00  0.00    +0.000 OA
ENDBRANCH  13  20
BRANCH  15  21
ATOM     21  C   UNL     1      -0.452   9.263  22.718  0.00  0.00    +0.000 C 
BRANCH  21  22
ATOM     22  O   UNL     1       0.519   9.722  23.651  0.00  0.00    +0.000 OA
ATOM     23  H   UNL     1       0.794  10.608  23.358  0.00  0.00    +0.000 HD
ENDBRANCH  21  22
ENDBRANCH  15  21
ENDBRANCH   1  17
TORSDOF 4
ENDMDL
