MODEL 1
REMARK VINA RESULT:      -6.8      0.000      0.000
REMARK  Name = 
REMARK  4 active torsions:
REMARK  status: ('A' for Active; 'I' for Inactive)
REMARK    1  A    between atoms: C_1  and  C_2
REMARK    2  A    between atoms: C_5  and  N_6
REMARK    3  A    between atoms: N_6  and  C_7
REMARK    4  A    between atoms: C_13  and  C_14
REMARK                            x       y       z     vdW  Elec       q    Type
REMARK                         _______ _______ _______ _____ _____    ______ ____
ROOT
ATOM      1  C   UNL     1       7.938   7.566  17.909  0.00  0.00    +0.000 C 
ATOM      2  C   UNL     1       7.242   6.261  18.044  0.00  0.00    +0.000 A 
ATOM      3  N   UNL     1       7.606   5.388  18.991  0.00  0.00    +0.000 NA
ATOM      4  N   UNL     1       6.803   4.328  18.776  0.00  0.00    +0.000 N 
ATOM      5  C   UNL     1       5.919   4.498  17.739  0.00  0.00    +0.000 A 
ATOM      6  C   UNL     1       6.189   5.754  17.247  0.00  0.00    +0.000 A 
ATOM      7  H   UNL     1       6.920   3.501  19.352  0.00  0.00    +0.000 HD
ENDROOT
BRANCH   5   8
ATOM      8  N   UNL     1       5.081   3.511  17.329  0.00  0.00    +0.000 N 
ATOM      9  H   UNL     1       5.270   3.020  16.455  0.00  0.00    +0.000 HD
BRANCH   8  10
ATOM     10  C   UNL     1       3.772   3.266  17.798  0.00  0.00    +0.000 A 
ATOM     11  C   UNL     1       3.403   2.055  18.399  0.00  0.00    +0.000 A 
ATOM     12  C   UNL     1       2.084   1.821  18.790  0.00  0.00    +0.000 A 
ATOM     13  C   UNL     1       1.112   2.793  18.578  0.00  0.00    +0.000 A 
ATOM     14  C   UNL     1       1.460   4.004  17.983  0.00  0.00    +0.000 A 
ATOM     15  C   UNL     1       2.783   4.239  17.597  0.00  0.00    +0.000 A 
ENDBRANCH   8  10
ENDBRANCH   5   8
BRANCH   6  16
ATOM     16  C   UNL     1       5.537   6.396  16.159  0.00  0.00    +0.000 C 
ATOM     17  N   UNL     1       5.003   6.923  15.273  0.00  0.00    +0.000 NA
ENDBRANCH   6  16
TORSDOF 3
ENDMDL
MODEL 2
REMARK VINA RESULT:      -6.8      0.142      1.250
REMARK  Name = 
REMARK  4 active torsions:
REMARK  status: ('A' for Active; 'I' for Inactive)
REMARK    1  A    between atoms: C_1  and  C_2
REMARK    2  A    between atoms: C_5  and  N_6
REMARK    3  A    between atoms: N_6  and  C_7
REMARK    4  A    between atoms: C_13  and  C_14
REMARK                            x       y       z     vdW  Elec       q    Type
REMARK                         _______ _______ _______ _____ _____    ______ ____
ROOT
ATOM      1  C   UNL     1       7.871   7.607  18.026  0.00  0.00    +0.000 C 
ATOM      2  C   UNL     1       7.165   6.303  18.115  0.00  0.00    +0.000 A 
ATOM      3  N   UNL     1       7.443   5.442  19.102  0.00  0.00    +0.000 NA
ATOM      4  N   UNL     1       6.662   4.379  18.830  0.00  0.00    +0.000 N 
ATOM      5  C   UNL     1       5.874   4.535  17.716  0.00  0.00    +0.000 A 
ATOM      6  C   UNL     1       6.187   5.785  17.234  0.00  0.00    +0.000 A 
ATOM      7  H   UNL     1       6.727   3.560  19.424  0.00  0.00    +0.000 HD
ENDROOT
BRANCH   5   8
ATOM      8  N   UNL     1       5.076   3.542  17.245  0.00  0.00    +0.000 N 
ATOM      9  H   UNL     1       5.310   3.081  16.366  0.00  0.00    +0.000 HD
BRANCH   8  10
ATOM     10  C   UNL     1       3.756   3.255  17.654  0.00  0.00    +0.000 A 
ATOM     11  C   UNL     1       2.715   4.187  17.548  0.00  0.00    +0.000 A 
ATOM     12  C   UNL     1       1.436   3.893  18.024  0.00  0.00    +0.000 A 
ATOM     13  C   UNL     1       1.182   2.663  18.621  0.00  0.00    +0.000 A 
ATOM     14  C   UNL     1       2.203   1.722  18.734  0.00  0.00    +0.000 A 
ATOM     15  C   UNL     1       3.482   2.017  18.252  0.00  0.00    +0.000 A 
ENDBRANCH   8  10
ENDBRANCH   5   8
BRANCH   6  16
ATOM     16  C   UNL     1       5.636   6.413  16.084  0.00  0.00    +0.000 C 
ATOM     17  N   UNL     1       5.182   6.924  15.145  0.00  0.00    +0.000 NA
ENDBRANCH   6  16
TORSDOF 3
ENDMDL
MODEL 3
REMARK VINA RESULT:      -6.6      1.938      5.508
REMARK  Name = 
REMARK  4 active torsions:
REMARK  status: ('A' for Active; 'I' for Inactive)
REMARK    1  A    between atoms: C_1  and  C_2
REMARK    2  A    between atoms: C_5  and  N_6
REMARK    3  A    between atoms: N_6  and  C_7
REMARK    4  A    between atoms: C_13  and  C_14
REMARK                            x       y       z     vdW  Elec       q    Type
REMARK                         _______ _______ _______ _____ _____    ______ ____
ROOT
ATOM      1  C   UNL     1       0.813   2.416  18.729  0.00  0.00    +0.000 C 
ATOM      2  C   UNL     1       2.277   2.666  18.692  0.00  0.00    +0.000 A 
ATOM      3  N   UNL     1       3.095   1.833  18.037  0.00  0.00    +0.000 NA
ATOM      4  N   UNL     1       4.320   2.344  18.263  0.00  0.00    +0.000 N 
ATOM      5  C   UNL     1       4.318   3.490  19.020  0.00  0.00    +0.000 A 
ATOM      6  C   UNL     1       2.993   3.717  19.311  0.00  0.00    +0.000 A 
ATOM      7  H   UNL     1       5.130   1.853  17.897  0.00  0.00    +0.000 HD
ENDROOT
BRANCH   5   8
ATOM      8  N   UNL     1       5.463   4.105  19.410  0.00  0.00    +0.000 N 
ATOM      9  H   UNL     1       5.794   3.995  20.369  0.00  0.00    +0.000 HD
BRANCH   8  10
ATOM     10  C   UNL     1       6.122   5.162  18.745  0.00  0.00    +0.000 A 
ATOM     11  C   UNL     1       7.359   5.664  19.171  0.00  0.00    +0.000 A 
ATOM     12  C   UNL     1       7.950   6.755  18.531  0.00  0.00    +0.000 A 
ATOM     13  C   UNL     1       7.308   7.364  17.458  0.00  0.00    +0.000 A 
ATOM     14  C   UNL     1       6.079   6.878  17.019  0.00  0.00    +0.000 A 
ATOM     15  C   UNL     1       5.491   5.782  17.658  0.00  0.00    +0.000 A 
ENDBRANCH   8  10
ENDBRANCH   5   8
BRANCH   6  16
ATOM     16  C   UNL     1       2.466   4.791  20.079  0.00  0.00    +0.000 C 
ATOM     17  N   UNL     1       2.039   5.670  20.707  0.00  0.00    +0.000 NA
ENDBRANCH   6  16
TORSDOF 3
ENDMDL
MODEL 4
REMARK VINA RESULT:      -6.6      1.518      1.547
REMARK  Name = 
REMARK  4 active torsions:
REMARK  status: ('A' for Active; 'I' for Inactive)
REMARK    1  A    between atoms: C_1  and  C_2
REMARK    2  A    between atoms: C_5  and  N_6
REMARK    3  A    between atoms: N_6  and  C_7
REMARK    4  A    between atoms: C_13  and  C_14
REMARK                            x       y       z     vdW  Elec       q    Type
REMARK                         _______ _______ _______ _____ _____    ______ ____
ROOT
ATOM      1  C   UNL     1       7.538   7.473  17.512  0.00  0.00    +0.000 C 
ATOM      2  C   UNL     1       6.941   6.129  17.717  0.00  0.00    +0.000 A 
ATOM      3  N   UNL     1       7.723   5.051  17.866  0.00  0.00    +0.000 NA
ATOM      4  N   UNL     1       6.847   4.033  17.976  0.00  0.00    +0.000 N 
ATOM      5  C   UNL     1       5.530   4.420  17.927  0.00  0.00    +0.000 A 
ATOM      6  C   UNL     1       5.570   5.786  17.758  0.00  0.00    +0.000 A 
ATOM      7  H   UNL     1       7.203   3.087  18.055  0.00  0.00    +0.000 HD
ENDROOT
BRANCH   5   8
ATOM      8  N   UNL     1       4.508   3.527  17.948  0.00  0.00    +0.000 N 
ATOM      9  H   UNL     1       4.274   3.008  17.102  0.00  0.00    +0.000 HD
BRANCH   8  10
ATOM     10  C   UNL     1       3.489   3.433  18.922  0.00  0.00    +0.000 A 
ATOM     11  C   UNL     1       3.704   2.861  20.182  0.00  0.00    +0.000 A 
ATOM     12  C   UNL     1       2.657   2.723  21.096  0.00  0.00    +0.000 A 
ATOM     13  C   UNL     1       1.378   3.151  20.757  0.00  0.00    +0.000 A 
ATOM     14  C   UNL     1       1.145   3.724  19.509  0.00  0.00    +0.000 A 
ATOM     15  C   UNL     1       2.196   3.866  18.598  0.00  0.00    +0.000 A 
ENDBRANCH   8  10
ENDBRANCH   5   8
BRANCH   6  16
ATOM     16  C   UNL     1       4.454   6.659  17.647  0.00  0.00    +0.000 C 
ATOM     17  N   UNL     1       3.544   7.375  17.555  0.00  0.00    +0.000 NA
ENDBRANCH   6  16
TORSDOF 3
ENDMDL
MODEL 5
REMARK VINA RESULT:      -6.5      1.441      1.801
REMARK  Name = 
REMARK  4 active torsions:
REMARK  status: ('A' for Active; 'I' for Inactive)
REMARK    1  A    between atoms: C_1  and  C_2
REMARK    2  A    between atoms: C_5  and  N_6
REMARK    3  A    between atoms: N_6  and  C_7
REMARK    4  A    between atoms: C_13  and  C_14
REMARK                            x       y       z     vdW  Elec       q    Type
REMARK                         _______ _______ _______ _____ _____    ______ ____
ROOT
ATOM      1  C   UNL     1       7.552   7.509  17.618  0.00  0.00    +0.000 C 
ATOM      2  C   UNL     1       6.972   6.146  17.725  0.00  0.00    +0.000 A 
ATOM      3  N   UNL     1       7.767   5.072  17.823  0.00  0.00    +0.000 NA
ATOM      4  N   UNL     1       6.905   4.038  17.850  0.00  0.00    +0.000 N 
ATOM      5  C   UNL     1       5.584   4.408  17.796  0.00  0.00    +0.000 A 
ATOM      6  C   UNL     1       5.606   5.782  17.714  0.00  0.00    +0.000 A 
ATOM      7  H   UNL     1       7.275   3.093  17.878  0.00  0.00    +0.000 HD
ENDROOT
BRANCH   5   8
ATOM      8  N   UNL     1       4.576   3.500  17.739  0.00  0.00    +0.000 N 
ATOM      9  H   UNL     1       4.393   3.004  16.866  0.00  0.00    +0.000 HD
BRANCH   8  10
ATOM     10  C   UNL     1       3.511   3.362  18.656  0.00  0.00    +0.000 A 
ATOM     11  C   UNL     1       2.197   3.734  18.344  0.00  0.00    +0.000 A 
ATOM     12  C   UNL     1       1.181   3.647  19.298  0.00  0.00    +0.000 A 
ATOM     13  C   UNL     1       1.468   3.192  20.580  0.00  0.00    +0.000 A 
ATOM     14  C   UNL     1       2.768   2.815  20.908  0.00  0.00    +0.000 A 
ATOM     15  C   UNL     1       3.783   2.898  19.950  0.00  0.00    +0.000 A 
ENDBRANCH   8  10
ENDBRANCH   5   8
BRANCH   6  16
ATOM     16  C   UNL     1       4.479   6.643  17.633  0.00  0.00    +0.000 C 
ATOM     17  N   UNL     1       3.558   7.348  17.564  0.00  0.00    +0.000 NA
ENDBRANCH   6  16
TORSDOF 3
ENDMDL
MODEL 6
REMARK VINA RESULT:      -6.5      1.224      2.562
REMARK  Name = 
REMARK  4 active torsions:
REMARK  status: ('A' for Active; 'I' for Inactive)
REMARK    1  A    between atoms: C_1  and  C_2
REMARK    2  A    between atoms: C_5  and  N_6
REMARK    3  A    between atoms: N_6  and  C_7
REMARK    4  A    between atoms: C_13  and  C_14
REMARK                            x       y       z     vdW  Elec       q    Type
REMARK                         _______ _______ _______ _____ _____    ______ ____
ROOT
ATOM      1  C   UNL     1       7.643   8.173  17.550  0.00  0.00    +0.000 C 
ATOM      2  C   UNL     1       6.810   6.967  17.311  0.00  0.00    +0.000 A 
ATOM      3  N   UNL     1       6.045   6.873  16.215  0.00  0.00    +0.000 NA
ATOM      4  N   UNL     1       5.413   5.692  16.367  0.00  0.00    +0.000 N 
ATOM      5  C   UNL     1       5.763   5.013  17.508  0.00  0.00    +0.000 A 
ATOM      6  C   UNL     1       6.673   5.829  18.139  0.00  0.00    +0.000 A 
ATOM      7  H   UNL     1       4.731   5.410  15.671  0.00  0.00    +0.000 HD
ENDROOT
BRANCH   5   8
ATOM      8  N   UNL     1       5.177   3.842  17.865  0.00  0.00    +0.000 N 
ATOM      9  H   UNL     1       5.594   2.959  17.571  0.00  0.00    +0.000 HD
BRANCH   8  10
ATOM     10  C   UNL     1       3.859   3.668  18.341  0.00  0.00    +0.000 A 
ATOM     11  C   UNL     1       2.740   3.738  17.501  0.00  0.00    +0.000 A 
ATOM     12  C   UNL     1       1.447   3.629  18.016  0.00  0.00    +0.000 A 
ATOM     13  C   UNL     1       1.255   3.453  19.382  0.00  0.00    +0.000 A 
ATOM     14  C   UNL     1       2.355   3.378  20.234  0.00  0.00    +0.000 A 
ATOM     15  C   UNL     1       3.650   3.483  19.715  0.00  0.00    +0.000 A 
ENDBRANCH   8  10
ENDBRANCH   5   8
BRANCH   6  16
ATOM     16  C   UNL     1       7.332   5.569  19.371  0.00  0.00    +0.000 C 
ATOM     17  N   UNL     1       7.869   5.355  20.379  0.00  0.00    +0.000 NA
ENDBRANCH   6  16
TORSDOF 3
ENDMDL
MODEL 7
REMARK VINA RESULT:      -6.5      1.919      5.286
REMARK  Name = 
REMARK  4 active torsions:
REMARK  status: ('A' for Active; 'I' for Inactive)
REMARK    1  A    between atoms: C_1  and  C_2
REMARK    2  A    between atoms: C_5  and  N_6
REMARK    3  A    between atoms: N_6  and  C_7
REMARK    4  A    between atoms: C_13  and  C_14
REMARK                            x       y       z     vdW  Elec       q    Type
REMARK                         _______ _______ _______ _____ _____    ______ ____
ROOT
ATOM      1  C   UNL     1       1.524   2.502  20.994  0.00  0.00    +0.000 C 
ATOM      2  C   UNL     1       2.804   2.628  20.253  0.00  0.00    +0.000 A 
ATOM      3  N   UNL     1       3.952   2.199  20.795  0.00  0.00    +0.000 NA
ATOM      4  N   UNL     1       4.880   2.518  19.873  0.00  0.00    +0.000 N 
ATOM      5  C   UNL     1       4.369   3.115  18.747  0.00  0.00    +0.000 A 
ATOM      6  C   UNL     1       3.014   3.196  18.975  0.00  0.00    +0.000 A 
ATOM      7  H   UNL     1       5.856   2.329  20.076  0.00  0.00    +0.000 HD
ENDROOT
BRANCH   5   8
ATOM      8  N   UNL     1       5.160   3.571  17.742  0.00  0.00    +0.000 N 
ATOM      9  H   UNL     1       5.540   2.914  17.061  0.00  0.00    +0.000 HD
BRANCH   8  10
ATOM     10  C   UNL     1       5.807   4.824  17.681  0.00  0.00    +0.000 A 
ATOM     11  C   UNL     1       5.322   5.884  16.903  0.00  0.00    +0.000 A 
ATOM     12  C   UNL     1       6.023   7.088  16.812  0.00  0.00    +0.000 A 
ATOM     13  C   UNL     1       7.225   7.246  17.494  0.00  0.00    +0.000 A 
ATOM     14  C   UNL     1       7.723   6.205  18.274  0.00  0.00    +0.000 A 
ATOM     15  C   UNL     1       7.016   5.002  18.368  0.00  0.00    +0.000 A 
ENDBRANCH   8  10
ENDBRANCH   5   8
BRANCH   6  16
ATOM     16  C   UNL     1       2.039   3.743  18.098  0.00  0.00    +0.000 C 
ATOM     17  N   UNL     1       1.242   4.193  17.383  0.00  0.00    +0.000 NA
ENDBRANCH   6  16
TORSDOF 3
ENDMDL
MODEL 8
REMARK VINA RESULT:      -6.5      1.850      5.463
REMARK  Name = 
REMARK  4 active torsions:
REMARK  status: ('A' for Active; 'I' for Inactive)
REMARK    1  A    between atoms: C_1  and  C_2
REMARK    2  A    between atoms: C_5  and  N_6
REMARK    3  A    between atoms: N_6  and  C_7
REMARK    4  A    between atoms: C_13  and  C_14
REMARK                            x       y       z     vdW  Elec       q    Type
REMARK                         _______ _______ _______ _____ _____    ______ ____
ROOT
ATOM      1  C   UNL     1       0.860   2.668  18.797  0.00  0.00    +0.000 C 
ATOM      2  C   UNL     1       2.343   2.715  18.738  0.00  0.00    +0.000 A 
ATOM      3  N   UNL     1       3.042   1.660  18.299  0.00  0.00    +0.000 NA
ATOM      4  N   UNL     1       4.325   2.047  18.433  0.00  0.00    +0.000 N 
ATOM      5  C   UNL     1       4.477   3.322  18.920  0.00  0.00    +0.000 A 
ATOM      6  C   UNL     1       3.193   3.776  19.127  0.00  0.00    +0.000 A 
ATOM      7  H   UNL     1       5.062   1.389  18.202  0.00  0.00    +0.000 HD
ENDROOT
BRANCH   5   8
ATOM      8  N   UNL     1       5.694   3.857  19.191  0.00  0.00    +0.000 N 
ATOM      9  H   UNL     1       6.210   3.547  20.014  0.00  0.00    +0.000 HD
BRANCH   8  10
ATOM     10  C   UNL     1       6.234   5.044  18.649  0.00  0.00    +0.000 A 
ATOM     11  C   UNL     1       5.692   5.669  17.518  0.00  0.00    +0.000 A 
ATOM     12  C   UNL     1       6.291   6.804  16.968  0.00  0.00    +0.000 A 
ATOM     13  C   UNL     1       7.446   7.327  17.540  0.00  0.00    +0.000 A 
ATOM     14  C   UNL     1       7.999   6.721  18.666  0.00  0.00    +0.000 A 
ATOM     15  C   UNL     1       7.394   5.587  19.218  0.00  0.00    +0.000 A 
ENDBRANCH   8  10
ENDBRANCH   5   8
BRANCH   6  16
ATOM     16  C   UNL     1       2.816   5.050  19.629  0.00  0.00    +0.000 C 
ATOM     17  N   UNL     1       2.505   6.091  20.043  0.00  0.00    +0.000 NA
ENDBRANCH   6  16
TORSDOF 3
ENDMDL
MODEL 9
REMARK VINA RESULT:      -6.5      2.047      5.112
REMARK  Name = 
REMARK  4 active torsions:
REMARK  status: ('A' for Active; 'I' for Inactive)
REMARK    1  A    between atoms: C_1  and  C_2
REMARK    2  A    between atoms: C_5  and  N_6
REMARK    3  A    between atoms: N_6  and  C_7
REMARK    4  A    between atoms: C_13  and  C_14
REMARK                            x       y       z     vdW  Elec       q    Type
REMARK                         _______ _______ _______ _____ _____    ______ ____
ROOT
ATOM      1  C   UNL     1       1.621   2.846  21.338  0.00  0.00    +0.000 C 
ATOM      2  C   UNL     1       2.874   2.792  20.544  0.00  0.00    +0.000 A 
ATOM      3  N   UNL     1       3.972   2.207  21.041  0.00  0.00    +0.000 NA
ATOM      4  N   UNL     1       4.897   2.394  20.080  0.00  0.00    +0.000 N 
ATOM      5  C   UNL     1       4.428   3.056  18.973  0.00  0.00    +0.000 A 
ATOM      6  C   UNL     1       3.108   3.326  19.256  0.00  0.00    +0.000 A 
ATOM      7  H   UNL     1       5.844   2.071  20.244  0.00  0.00    +0.000 HD
ENDROOT
BRANCH   5   8
ATOM      8  N   UNL     1       5.232   3.398  17.934  0.00  0.00    +0.000 N 
ATOM      9  H   UNL     1       5.627   2.668  17.340  0.00  0.00    +0.000 HD
BRANCH   8  10
ATOM     10  C   UNL     1       5.873   4.640  17.736  0.00  0.00    +0.000 A 
ATOM     11  C   UNL     1       7.070   4.981  18.380  0.00  0.00    +0.000 A 
ATOM     12  C   UNL     1       7.640   6.244  18.213  0.00  0.00    +0.000 A 
ATOM     13  C   UNL     1       7.017   7.188  17.404  0.00  0.00    +0.000 A 
ATOM     14  C   UNL     1       5.827   6.867  16.754  0.00  0.00    +0.000 A 
ATOM     15  C   UNL     1       5.260   5.600  16.918  0.00  0.00    +0.000 A 
ENDBRANCH   8  10
ENDBRANCH   5   8
BRANCH   6  16
ATOM     16  C   UNL     1       2.183   4.004  18.417  0.00  0.00    +0.000 C 
ATOM     17  N   UNL     1       1.429   4.558  17.728  0.00  0.00    +0.000 NA
ENDBRANCH   6  16
TORSDOF 3
ENDMDL
