MODEL 1
REMARK VINA RESULT:      -9.0      0.000      0.000
REMARK  Name = 
REMARK  11 active torsions:
REMARK  status: ('A' for Active; 'I' for Inactive)
REMARK    1  A    between atoms: C_1  and  O_2
REMARK    2  A    between atoms: O_2  and  C_3
REMARK    3  A    between atoms: C_7  and  C_8
REMARK    4  A    between atoms: C_8  and  O_9
REMARK    5  A    between atoms: C_10  and  C_11
REMARK    6  A    between atoms: C_16  and  C_17
REMARK    7  A    between atoms: N_19  and  C_20
REMARK    8  A    between atoms: C_20  and  C_21
REMARK    9  A    between atoms: C_21  and  C_22
REMARK   10  A    between atoms: C_26  and  C_27
REMARK   11  A    between atoms: C_32  and  O_33
REMARK                            x       y       z     vdW  Elec       q    Type
REMARK                         _______ _______ _______ _____ _____    ______ ____
ROOT
ATOM      1  C   UNL     1       1.446   9.154  19.059  0.00  0.00    +0.000 A 
ATOM      2  N   UNL     1       1.274   8.878  20.354  0.00  0.00    +0.000 NA
ATOM      3  C   UNL     1       0.571   9.797  21.058  0.00  0.00    +0.000 A 
ATOM      4  C   UNL     1      -0.107   9.444  22.208  0.00  0.00    +0.000 A 
ATOM      5  C   UNL     1      -0.899  10.361  22.879  0.00  0.00    +0.000 A 
ATOM      6  C   UNL     1      -0.886  11.722  22.530  0.00  0.00    +0.000 A 
ATOM      7  C   UNL     1      -0.224  12.098  21.371  0.00  0.00    +0.000 A 
ATOM      8  C   UNL     1       0.320  11.105  20.558  0.00  0.00    +0.000 A 
ATOM      9  N   UNL     1       0.428  11.321  19.248  0.00  0.00    +0.000 NA
ATOM     10  C   UNL     1       0.736  10.224  18.522  0.00  0.00    +0.000 A 
ENDROOT
BRANCH   6  11
ATOM     11  C   UNL     1      -1.743  12.641  23.333  0.00  0.00    +0.000 C 
ATOM     12  O   UNL     1      -1.264  13.725  23.663  0.00  0.00    +0.000 OA
ATOM     13  N   UNL     1      -3.051  12.293  23.627  0.00  0.00    +0.000 N 
ATOM     14  H   UNL     1      -3.476  11.501  23.163  0.00  0.00    +0.000 HD
BRANCH  13  15
ATOM     15  C   UNL     1      -3.903  13.359  24.169  0.00  0.00    +0.000 C 
BRANCH  15  16
ATOM     16  C   UNL     1      -4.674  14.187  23.139  0.00  0.00    +0.000 C 
BRANCH  16  17
ATOM     17  C   UNL     1      -5.442  13.309  22.167  0.00  0.00    +0.000 A 
ATOM     18  C   UNL     1      -6.689  12.768  22.524  0.00  0.00    +0.000 A 
ATOM     19  C   UNL     1      -7.392  11.949  21.637  0.00  0.00    +0.000 A 
ATOM     20  C   UNL     1      -6.864  11.651  20.382  0.00  0.00    +0.000 A 
ATOM     21  C   UNL     1      -5.620  12.169  20.005  0.00  0.00    +0.000 A 
ATOM     22  C   UNL     1      -5.041  11.854  18.657  0.00  0.00    +0.000 C 
ATOM     23  C   UNL     1      -4.916  12.990  20.906  0.00  0.00    +0.000 A 
ENDBRANCH  16  17
ENDBRANCH  15  16
ENDBRANCH  13  15
ENDBRANCH   6  11
BRANCH   1  25
ATOM     24  C   UNL     1       2.789   7.079  18.670  0.00  0.00    +0.000 C 
ATOM     25  C   UNL     1       2.258   8.238  18.233  0.00  0.00    +0.000 C 
BRANCH  24  30
ATOM     26  C   UNL     1       5.344   5.590  16.298  0.00  0.00    +0.000 A 
ATOM     27  C   UNL     1       4.930   4.260  16.249  0.00  0.00    +0.000 A 
ATOM     28  C   UNL     1       3.822   3.846  16.986  0.00  0.00    +0.000 A 
ATOM     29  C   UNL     1       3.118   4.762  17.768  0.00  0.00    +0.000 A 
ATOM     30  C   UNL     1       3.498   6.110  17.807  0.00  0.00    +0.000 A 
ATOM     31  C   UNL     1       4.617   6.511  17.053  0.00  0.00    +0.000 A 
BRANCH  26  33
ATOM     32  C   UNL     1       7.000   4.832  14.795  0.00  0.00    +0.000 C 
ATOM     33  O   UNL     1       6.430   5.909  15.532  0.00  0.00    +0.000 OA
ENDBRANCH  26  33
ENDBRANCH  24  30
BRANCH  24  34
ATOM     34  O   UNL     1       2.677   6.711  19.998  0.00  0.00    +0.000 OA
ATOM     35  H   UNL     1       1.793   6.930  20.339  0.00  0.00    +0.000 HD
ENDBRANCH  24  34
ENDBRANCH   1  25
BRANCH  10  36
ATOM     36  O   UNL     1      -0.324   9.845  17.690  0.00  0.00    +0.000 OA
ATOM     37  H   UNL     1      -0.705  10.676  17.367  0.00  0.00    +0.000 HD
ENDBRANCH  10  36
TORSDOF 9
ENDMDL
MODEL 2
REMARK VINA RESULT:      -8.6      3.150      5.357
REMARK  Name = 
REMARK  11 active torsions:
REMARK  status: ('A' for Active; 'I' for Inactive)
REMARK    1  A    between atoms: C_1  and  O_2
REMARK    2  A    between atoms: O_2  and  C_3
REMARK    3  A    between atoms: C_7  and  C_8
REMARK    4  A    between atoms: C_8  and  O_9
REMARK    5  A    between atoms: C_10  and  C_11
REMARK    6  A    between atoms: C_16  and  C_17
REMARK    7  A    between atoms: N_19  and  C_20
REMARK    8  A    between atoms: C_20  and  C_21
REMARK    9  A    between atoms: C_21  and  C_22
REMARK   10  A    between atoms: C_26  and  C_27
REMARK   11  A    between atoms: C_32  and  O_33
REMARK                            x       y       z     vdW  Elec       q    Type
REMARK                         _______ _______ _______ _____ _____    ______ ____
ROOT
ATOM      1  C   UNL     1       4.035   5.571  17.512  0.00  0.00    +0.000 A 
ATOM      2  N   UNL     1       3.226   6.613  17.313  0.00  0.00    +0.000 NA
ATOM      3  C   UNL     1       2.663   7.136  18.429  0.00  0.00    +0.000 A 
ATOM      4  C   UNL     1       2.245   8.452  18.464  0.00  0.00    +0.000 A 
ATOM      5  C   UNL     1       1.752   9.012  19.631  0.00  0.00    +0.000 A 
ATOM      6  C   UNL     1       1.477   8.218  20.757  0.00  0.00    +0.000 A 
ATOM      7  C   UNL     1       1.901   6.897  20.749  0.00  0.00    +0.000 A 
ATOM      8  C   UNL     1       2.657   6.442  19.671  0.00  0.00    +0.000 A 
ATOM      9  N   UNL     1       3.533   5.456  19.857  0.00  0.00    +0.000 NA
ATOM     10  C   UNL     1       4.378   5.254  18.823  0.00  0.00    +0.000 A 
ENDROOT
BRANCH   6  11
ATOM     11  C   UNL     1       0.914   8.904  21.955  0.00  0.00    +0.000 C 
ATOM     12  O   UNL     1       1.701   9.262  22.829  0.00  0.00    +0.000 OA
ATOM     13  N   UNL     1      -0.443   9.177  22.027  0.00  0.00    +0.000 N 
ATOM     14  H   UNL     1      -1.022   9.063  21.206  0.00  0.00    +0.000 HD
BRANCH  13  15
ATOM     15  C   UNL     1      -0.866  10.093  23.092  0.00  0.00    +0.000 C 
BRANCH  15  16
ATOM     16  C   UNL     1      -1.015  11.562  22.691  0.00  0.00    +0.000 C 
BRANCH  16  17
ATOM     17  C   UNL     1      -0.555  11.809  21.265  0.00  0.00    +0.000 A 
ATOM     18  C   UNL     1       0.689  12.409  21.009  0.00  0.00    +0.000 A 
ATOM     19  C   UNL     1       1.109  12.649  19.698  0.00  0.00    +0.000 A 
ATOM     20  C   UNL     1       0.297  12.300  18.621  0.00  0.00    +0.000 A 
ATOM     21  C   UNL     1      -0.952  11.711  18.849  0.00  0.00    +0.000 A 
ATOM     22  C   UNL     1      -1.836  11.332  17.697  0.00  0.00    +0.000 C 
ATOM     23  C   UNL     1      -1.370  11.475  20.172  0.00  0.00    +0.000 A 
ENDBRANCH  16  17
ENDBRANCH  15  16
ENDBRANCH  13  15
ENDBRANCH   6  11
BRANCH   1  25
ATOM     24  C   UNL     1       5.224   5.535  15.310  0.00  0.00    +0.000 C 
ATOM     25  C   UNL     1       4.638   4.899  16.343  0.00  0.00    +0.000 C 
BRANCH  24  30
ATOM     26  C   UNL     1       5.933   3.207  12.403  0.00  0.00    +0.000 A 
ATOM     27  C   UNL     1       7.209   3.621  12.026  0.00  0.00    +0.000 A 
ATOM     28  C   UNL     1       7.840   4.656  12.714  0.00  0.00    +0.000 A 
ATOM     29  C   UNL     1       7.201   5.274  13.788  0.00  0.00    +0.000 A 
ATOM     30  C   UNL     1       5.931   4.854  14.204  0.00  0.00    +0.000 A 
ATOM     31  C   UNL     1       5.310   3.805  13.500  0.00  0.00    +0.000 A 
BRANCH  26  33
ATOM     32  C   UNL     1       6.338   1.262  11.127  0.00  0.00    +0.000 C 
ATOM     33  O   UNL     1       5.397   2.177  11.682  0.00  0.00    +0.000 OA
ENDBRANCH  26  33
ENDBRANCH  24  30
BRANCH  24  34
ATOM     34  O   UNL     1       5.214   6.916  15.238  0.00  0.00    +0.000 OA
ATOM     35  H   UNL     1       4.417   7.273  15.665  0.00  0.00    +0.000 HD
ENDBRANCH  24  34
ENDBRANCH   1  25
BRANCH  10  36
ATOM     36  O   UNL     1       5.695   5.583  19.164  0.00  0.00    +0.000 OA
ATOM     37  H   UNL     1       6.204   4.768  19.036  0.00  0.00    +0.000 HD
ENDBRANCH  10  36
TORSDOF 9
ENDMDL
MODEL 3
REMARK VINA RESULT:      -8.5      3.020      5.383
REMARK  Name = 
REMARK  11 active torsions:
REMARK  status: ('A' for Active; 'I' for Inactive)
REMARK    1  A    between atoms: C_1  and  O_2
REMARK    2  A    between atoms: O_2  and  C_3
REMARK    3  A    between atoms: C_7  and  C_8
REMARK    4  A    between atoms: C_8  and  O_9
REMARK    5  A    between atoms: C_10  and  C_11
REMARK    6  A    between atoms: C_16  and  C_17
REMARK    7  A    between atoms: N_19  and  C_20
REMARK    8  A    between atoms: C_20  and  C_21
REMARK    9  A    between atoms: C_21  and  C_22
REMARK   10  A    between atoms: C_26  and  C_27
REMARK   11  A    between atoms: C_32  and  O_33
REMARK                            x       y       z     vdW  Elec       q    Type
REMARK                         _______ _______ _______ _____ _____    ______ ____
ROOT
ATOM      1  C   UNL     1       4.016   5.579  17.504  0.00  0.00    +0.000 A 
ATOM      2  N   UNL     1       3.193   6.610  17.303  0.00  0.00    +0.000 NA
ATOM      3  C   UNL     1       2.635   7.138  18.419  0.00  0.00    +0.000 A 
ATOM      4  C   UNL     1       2.204   8.449  18.445  0.00  0.00    +0.000 A 
ATOM      5  C   UNL     1       1.717   9.016  19.612  0.00  0.00    +0.000 A 
ATOM      6  C   UNL     1       1.463   8.230  20.749  0.00  0.00    +0.000 A 
ATOM      7  C   UNL     1       1.903   6.914  20.751  0.00  0.00    +0.000 A 
ATOM      8  C   UNL     1       2.651   6.456  19.668  0.00  0.00    +0.000 A 
ATOM      9  N   UNL     1       3.541   5.483  19.855  0.00  0.00    +0.000 NA
ATOM     10  C   UNL     1       4.377   5.279  18.814  0.00  0.00    +0.000 A 
ENDROOT
BRANCH   6  11
ATOM     11  C   UNL     1       0.905   8.922  21.946  0.00  0.00    +0.000 C 
ATOM     12  O   UNL     1       1.688   9.226  22.845  0.00  0.00    +0.000 OA
ATOM     13  N   UNL     1      -0.437   9.262  21.991  0.00  0.00    +0.000 N 
ATOM     14  H   UNL     1      -1.001   9.191  21.155  0.00  0.00    +0.000 HD
BRANCH  13  15
ATOM     15  C   UNL     1      -0.841  10.179  23.064  0.00  0.00    +0.000 C 
BRANCH  15  16
ATOM     16  C   UNL     1      -1.466  11.500  22.613  0.00  0.00    +0.000 C 
BRANCH  16  17
ATOM     17  C   UNL     1      -0.929  11.950  21.265  0.00  0.00    +0.000 A 
ATOM     18  C   UNL     1      -1.742  11.905  20.120  0.00  0.00    +0.000 A 
ATOM     19  C   UNL     1      -1.246  12.306  18.877  0.00  0.00    +0.000 A 
ATOM     20  C   UNL     1       0.067  12.754  18.752  0.00  0.00    +0.000 A 
ATOM     21  C   UNL     1       0.901  12.800  19.875  0.00  0.00    +0.000 A 
ATOM     22  C   UNL     1       2.318  13.280  19.752  0.00  0.00    +0.000 C 
ATOM     23  C   UNL     1       0.396  12.391  21.123  0.00  0.00    +0.000 A 
ENDBRANCH  16  17
ENDBRANCH  15  16
ENDBRANCH  13  15
ENDBRANCH   6  11
BRANCH   1  25
ATOM     24  C   UNL     1       5.208   5.532  15.304  0.00  0.00    +0.000 C 
ATOM     25  C   UNL     1       4.613   4.901  16.335  0.00  0.00    +0.000 C 
BRANCH  24  30
ATOM     26  C   UNL     1       5.884   3.229  12.370  0.00  0.00    +0.000 A 
ATOM     27  C   UNL     1       7.180   3.603  12.021  0.00  0.00    +0.000 A 
ATOM     28  C   UNL     1       7.836   4.603  12.737  0.00  0.00    +0.000 A 
ATOM     29  C   UNL     1       7.201   5.226  13.811  0.00  0.00    +0.000 A 
ATOM     30  C   UNL     1       5.909   4.845  14.198  0.00  0.00    +0.000 A 
ATOM     31  C   UNL     1       5.264   3.830  13.466  0.00  0.00    +0.000 A 
BRANCH  26  33
ATOM     32  C   UNL     1       6.223   1.214  11.187  0.00  0.00    +0.000 C 
ATOM     33  O   UNL     1       5.325   2.231  11.623  0.00  0.00    +0.000 OA
ENDBRANCH  26  33
ENDBRANCH  24  30
BRANCH  24  34
ATOM     34  O   UNL     1       5.213   6.913  15.233  0.00  0.00    +0.000 OA
ATOM     35  H   UNL     1       5.300   7.300  16.121  0.00  0.00    +0.000 HD
ENDBRANCH  24  34
ENDBRANCH   1  25
BRANCH  10  36
ATOM     36  O   UNL     1       5.694   5.627  19.137  0.00  0.00    +0.000 OA
ATOM     37  H   UNL     1       5.708   5.703  20.103  0.00  0.00    +0.000 HD
ENDBRANCH  10  36
TORSDOF 9
ENDMDL
MODEL 4
REMARK VINA RESULT:      -8.4      1.792      2.016
REMARK  Name = 
REMARK  11 active torsions:
REMARK  status: ('A' for Active; 'I' for Inactive)
REMARK    1  A    between atoms: C_1  and  O_2
REMARK    2  A    between atoms: O_2  and  C_3
REMARK    3  A    between atoms: C_7  and  C_8
REMARK    4  A    between atoms: C_8  and  O_9
REMARK    5  A    between atoms: C_10  and  C_11
REMARK    6  A    between atoms: C_16  and  C_17
REMARK    7  A    between atoms: N_19  and  C_20
REMARK    8  A    between atoms: C_20  and  C_21
REMARK    9  A    between atoms: C_21  and  C_22
REMARK   10  A    between atoms: C_26  and  C_27
REMARK   11  A    between atoms: C_32  and  O_33
REMARK                            x       y       z     vdW  Elec       q    Type
REMARK                         _______ _______ _______ _____ _____    ______ ____
ROOT
ATOM      1  C   UNL     1       1.607   9.894  18.230  0.00  0.00    +0.000 A 
ATOM      2  N   UNL     1       0.299   9.676  18.381  0.00  0.00    +0.000 NA
ATOM      3  C   UNL     1      -0.394  10.673  18.981  0.00  0.00    +0.000 A 
ATOM      4  C   UNL     1      -1.747  10.831  18.758  0.00  0.00    +0.000 A 
ATOM      5  C   UNL     1      -2.438  11.904  19.299  0.00  0.00    +0.000 A 
ATOM      6  C   UNL     1      -1.836  12.752  20.244  0.00  0.00    +0.000 A 
ATOM      7  C   UNL     1      -0.474  12.621  20.472  0.00  0.00    +0.000 A 
ATOM      8  C   UNL     1       0.252  11.722  19.694  0.00  0.00    +0.000 A 
ATOM      9  N   UNL     1       1.542  11.957  19.457  0.00  0.00    +0.000 NA
ATOM     10  C   UNL     1       2.090  11.169  18.507  0.00  0.00    +0.000 A 
ENDROOT
BRANCH   6  11
ATOM     11  C   UNL     1      -2.670  13.857  20.797  0.00  0.00    +0.000 C 
ATOM     12  O   UNL     1      -2.365  15.009  20.491  0.00  0.00    +0.000 OA
ATOM     13  N   UNL     1      -3.784  13.569  21.570  0.00  0.00    +0.000 N 
ATOM     14  H   UNL     1      -4.126  12.619  21.622  0.00  0.00    +0.000 HD
BRANCH  13  15
ATOM     15  C   UNL     1      -4.698  14.686  21.835  0.00  0.00    +0.000 C 
BRANCH  15  16
ATOM     16  C   UNL     1      -6.157  14.466  21.428  0.00  0.00    +0.000 C 
BRANCH  16  17
ATOM     17  C   UNL     1      -6.322  13.235  20.555  0.00  0.00    +0.000 A 
ATOM     18  C   UNL     1      -6.899  12.063  21.072  0.00  0.00    +0.000 A 
ATOM     19  C   UNL     1      -7.040  10.925  20.274  0.00  0.00    +0.000 A 
ATOM     20  C   UNL     1      -6.606  10.933  18.950  0.00  0.00    +0.000 A 
ATOM     21  C   UNL     1      -6.019  12.084  18.413  0.00  0.00    +0.000 A 
ATOM     22  C   UNL     1      -5.546  12.103  16.988  0.00  0.00    +0.000 C 
ATOM     23  C   UNL     1      -5.877  13.226  19.224  0.00  0.00    +0.000 A 
ENDBRANCH  16  17
ENDBRANCH  15  16
ENDBRANCH  13  15
ENDBRANCH   6  11
BRANCH   1  25
ATOM     24  C   UNL     1       2.703   7.644  18.236  0.00  0.00    +0.000 C 
ATOM     25  C   UNL     1       2.448   8.829  17.648  0.00  0.00    +0.000 C 
BRANCH  24  30
ATOM     26  C   UNL     1       5.336   5.762  16.263  0.00  0.00    +0.000 A 
ATOM     27  C   UNL     1       4.936   4.442  16.462  0.00  0.00    +0.000 A 
ATOM     28  C   UNL     1       3.812   4.162  17.237  0.00  0.00    +0.000 A 
ATOM     29  C   UNL     1       3.078   5.201  17.809  0.00  0.00    +0.000 A 
ATOM     30  C   UNL     1       3.445   6.537  17.596  0.00  0.00    +0.000 A 
ATOM     31  C   UNL     1       4.580   6.801  16.808  0.00  0.00    +0.000 A 
BRANCH  26  33
ATOM     32  C   UNL     1       6.890   4.789  14.775  0.00  0.00    +0.000 C 
ATOM     33  O   UNL     1       6.440   5.943  15.479  0.00  0.00    +0.000 OA
ENDBRANCH  26  33
ENDBRANCH  24  30
BRANCH  24  34
ATOM     34  O   UNL     1       2.248   7.383  19.516  0.00  0.00    +0.000 OA
ATOM     35  H   UNL     1       2.385   8.154  20.091  0.00  0.00    +0.000 HD
ENDBRANCH  24  34
ENDBRANCH   1  25
BRANCH  10  36
ATOM     36  O   UNL     1       2.440  11.906  17.369  0.00  0.00    +0.000 OA
ATOM     37  H   UNL     1       3.233  12.404  17.621  0.00  0.00    +0.000 HD
ENDBRANCH  10  36
TORSDOF 9
ENDMDL
MODEL 5
REMARK VINA RESULT:      -8.3      2.325     10.680
REMARK  Name = 
REMARK  11 active torsions:
REMARK  status: ('A' for Active; 'I' for Inactive)
REMARK    1  A    between atoms: C_1  and  O_2
REMARK    2  A    between atoms: O_2  and  C_3
REMARK    3  A    between atoms: C_7  and  C_8
REMARK    4  A    between atoms: C_8  and  O_9
REMARK    5  A    between atoms: C_10  and  C_11
REMARK    6  A    between atoms: C_16  and  C_17
REMARK    7  A    between atoms: N_19  and  C_20
REMARK    8  A    between atoms: C_20  and  C_21
REMARK    9  A    between atoms: C_21  and  C_22
REMARK   10  A    between atoms: C_26  and  C_27
REMARK   11  A    between atoms: C_32  and  O_33
REMARK                            x       y       z     vdW  Elec       q    Type
REMARK                         _______ _______ _______ _____ _____    ______ ____
ROOT
ATOM      1  C   UNL     1       0.083  11.267  20.366  0.00  0.00    +0.000 A 
ATOM      2  N   UNL     1       0.127   9.975  20.698  0.00  0.00    +0.000 NA
ATOM      3  C   UNL     1       0.962   9.210  19.955  0.00  0.00    +0.000 A 
ATOM      4  C   UNL     1       1.493   8.041  20.462  0.00  0.00    +0.000 A 
ATOM      5  C   UNL     1       2.417   7.305  19.738  0.00  0.00    +0.000 A 
ATOM      6  C   UNL     1       2.696   7.611  18.395  0.00  0.00    +0.000 A 
ATOM      7  C   UNL     1       2.185   8.789  17.870  0.00  0.00    +0.000 A 
ATOM      8  C   UNL     1       1.497   9.658  18.715  0.00  0.00    +0.000 A 
ATOM      9  N   UNL     1       1.504  10.964  18.455  0.00  0.00    +0.000 NA
ATOM     10  C   UNL     1       1.020  11.737  19.452  0.00  0.00    +0.000 A 
ENDROOT
BRANCH   6  11
ATOM     11  C   UNL     1       3.676   6.741  17.686  0.00  0.00    +0.000 C 
ATOM     12  O   UNL     1       4.828   7.158  17.568  0.00  0.00    +0.000 OA
ATOM     13  N   UNL     1       3.299   5.483  17.245  0.00  0.00    +0.000 N 
ATOM     14  H   UNL     1       2.417   5.089  17.545  0.00  0.00    +0.000 HD
BRANCH  13  15
ATOM     15  C   UNL     1       4.383   4.591  16.817  0.00  0.00    +0.000 C 
BRANCH  15  16
ATOM     16  C   UNL     1       4.356   3.177  17.402  0.00  0.00    +0.000 C 
BRANCH  16  17
ATOM     17  C   UNL     1       3.170   2.970  18.327  0.00  0.00    +0.000 A 
ATOM     18  C   UNL     1       1.957   2.462  17.832  0.00  0.00    +0.000 A 
ATOM     19  C   UNL     1       0.860   2.283  18.679  0.00  0.00    +0.000 A 
ATOM     20  C   UNL     1       0.951   2.609  20.030  0.00  0.00    +0.000 A 
ATOM     21  C   UNL     1       2.144   3.126  20.547  0.00  0.00    +0.000 A 
ATOM     22  C   UNL     1       2.253   3.483  22.001  0.00  0.00    +0.000 C 
ATOM     23  C   UNL     1       3.244   3.307  19.688  0.00  0.00    +0.000 A 
ENDBRANCH  16  17
ENDBRANCH  15  16
ENDBRANCH  13  15
ENDBRANCH   6  11
BRANCH   1  25
ATOM     24  C   UNL     1      -1.059  12.145  22.413  0.00  0.00    +0.000 C 
ATOM     25  C   UNL     1      -0.853  12.159  21.082  0.00  0.00    +0.000 C 
BRANCH  24  30
ATOM     26  C   UNL     1      -4.106  13.824  23.920  0.00  0.00    +0.000 A 
ATOM     27  C   UNL     1      -3.523  14.893  24.597  0.00  0.00    +0.000 A 
ATOM     28  C   UNL     1      -2.140  15.068  24.567  0.00  0.00    +0.000 A 
ATOM     29  C   UNL     1      -1.337  14.182  23.850  0.00  0.00    +0.000 A 
ATOM     30  C   UNL     1      -1.905  13.119  23.136  0.00  0.00    +0.000 A 
ATOM     31  C   UNL     1      -3.303  12.959  23.175  0.00  0.00    +0.000 A 
BRANCH  26  33
ATOM     32  C   UNL     1      -6.002  12.418  23.954  0.00  0.00    +0.000 C 
ATOM     33  O   UNL     1      -5.467  13.738  23.993  0.00  0.00    +0.000 OA
ENDBRANCH  26  33
ENDBRANCH  24  30
BRANCH  24  34
ATOM     34  O   UNL     1      -0.450  11.192  23.209  0.00  0.00    +0.000 OA
ATOM     35  H   UNL     1       0.050  11.616  23.926  0.00  0.00    +0.000 HD
ENDBRANCH  24  34
ENDBRANCH   1  25
BRANCH  10  36
ATOM     36  O   UNL     1       2.025  12.528  20.021  0.00  0.00    +0.000 OA
ATOM     37  H   UNL     1       2.051  13.334  19.482  0.00  0.00    +0.000 HD
ENDBRANCH  10  36
TORSDOF 9
ENDMDL
MODEL 6
REMARK VINA RESULT:      -8.2      1.257      1.814
REMARK  Name = 
REMARK  11 active torsions:
REMARK  status: ('A' for Active; 'I' for Inactive)
REMARK    1  A    between atoms: C_1  and  O_2
REMARK    2  A    between atoms: O_2  and  C_3
REMARK    3  A    between atoms: C_7  and  C_8
REMARK    4  A    between atoms: C_8  and  O_9
REMARK    5  A    between atoms: C_10  and  C_11
REMARK    6  A    between atoms: C_16  and  C_17
REMARK    7  A    between atoms: N_19  and  C_20
REMARK    8  A    between atoms: C_20  and  C_21
REMARK    9  A    between atoms: C_21  and  C_22
REMARK   10  A    between atoms: C_26  and  C_27
REMARK   11  A    between atoms: C_32  and  O_33
REMARK                            x       y       z     vdW  Elec       q    Type
REMARK                         _______ _______ _______ _____ _____    ______ ____
ROOT
ATOM      1  C   UNL     1       1.660   8.998  19.050  0.00  0.00    +0.000 A 
ATOM      2  N   UNL     1       1.416   8.746  20.338  0.00  0.00    +0.000 NA
ATOM      3  C   UNL     1       0.724   9.705  20.999  0.00  0.00    +0.000 A 
ATOM      4  C   UNL     1      -0.021   9.397  22.120  0.00  0.00    +0.000 A 
ATOM      5  C   UNL     1      -0.801  10.358  22.743  0.00  0.00    +0.000 A 
ATOM      6  C   UNL     1      -0.709  11.712  22.381  0.00  0.00    +0.000 A 
ATOM      7  C   UNL     1       0.022  12.043  21.249  0.00  0.00    +0.000 A 
ATOM      8  C   UNL     1       0.556  11.016  20.473  0.00  0.00    +0.000 A 
ATOM      9  N   UNL     1       0.734  11.210  19.168  0.00  0.00    +0.000 NA
ATOM     10  C   UNL     1       1.025  10.092  18.469  0.00  0.00    +0.000 A 
ENDROOT
BRANCH   6  11
ATOM     11  C   UNL     1      -1.560  12.678  23.134  0.00  0.00    +0.000 C 
ATOM     12  O   UNL     1      -1.198  13.853  23.163  0.00  0.00    +0.000 OA
ATOM     13  N   UNL     1      -2.746  12.258  23.712  0.00  0.00    +0.000 N 
ATOM     14  H   UNL     1      -3.118  11.344  23.488  0.00  0.00    +0.000 HD
BRANCH  13  15
ATOM     15  C   UNL     1      -3.651  13.313  24.183  0.00  0.00    +0.000 C 
BRANCH  15  16
ATOM     16  C   UNL     1      -5.101  12.891  24.426  0.00  0.00    +0.000 C 
BRANCH  16  17
ATOM     17  C   UNL     1      -5.928  12.948  23.154  0.00  0.00    +0.000 A 
ATOM     18  C   UNL     1      -7.109  12.195  23.034  0.00  0.00    +0.000 A 
ATOM     19  C   UNL     1      -7.865  12.235  21.859  0.00  0.00    +0.000 A 
ATOM     20  C   UNL     1      -7.457  13.022  20.784  0.00  0.00    +0.000 A 
ATOM     21  C   UNL     1      -6.281  13.775  20.874  0.00  0.00    +0.000 A 
ATOM     22  C   UNL     1      -5.831  14.625  19.722  0.00  0.00    +0.000 C 
ATOM     23  C   UNL     1      -5.522  13.726  22.059  0.00  0.00    +0.000 A 
ENDBRANCH  16  17
ENDBRANCH  15  16
ENDBRANCH  13  15
ENDBRANCH   6  11
BRANCH   1  25
ATOM     24  C   UNL     1       2.925   6.860  18.745  0.00  0.00    +0.000 C 
ATOM     25  C   UNL     1       2.467   8.036  18.272  0.00  0.00    +0.000 C 
BRANCH  24  30
ATOM     26  C   UNL     1       3.982   3.515  17.309  0.00  0.00    +0.000 A 
ATOM     27  C   UNL     1       4.867   3.914  16.310  0.00  0.00    +0.000 A 
ATOM     28  C   UNL     1       5.121   5.268  16.100  0.00  0.00    +0.000 A 
ATOM     29  C   UNL     1       4.498   6.229  16.897  0.00  0.00    +0.000 A 
ATOM     30  C   UNL     1       3.628   5.849  17.927  0.00  0.00    +0.000 A 
ATOM     31  C   UNL     1       3.386   4.477  18.126  0.00  0.00    +0.000 A 
BRANCH  26  33
ATOM     32  C   UNL     1       3.316   1.744  18.722  0.00  0.00    +0.000 C 
ATOM     33  O   UNL     1       3.804   2.168  17.452  0.00  0.00    +0.000 OA
ENDBRANCH  26  33
ENDBRANCH  24  30
BRANCH  24  34
ATOM     34  O   UNL     1       2.736   6.515  20.071  0.00  0.00    +0.000 OA
ATOM     35  H   UNL     1       3.284   7.070  20.650  0.00  0.00    +0.000 HD
ENDBRANCH  24  34
ENDBRANCH   1  25
BRANCH  10  36
ATOM     36  O   UNL     1      -0.012   9.750  17.593  0.00  0.00    +0.000 OA
ATOM     37  H   UNL     1      -0.495   9.035  18.035  0.00  0.00    +0.000 HD
ENDBRANCH  10  36
TORSDOF 9
ENDMDL
MODEL 7
REMARK VINA RESULT:      -8.2      2.564     11.293
REMARK  Name = 
REMARK  11 active torsions:
REMARK  status: ('A' for Active; 'I' for Inactive)
REMARK    1  A    between atoms: C_1  and  O_2
REMARK    2  A    between atoms: O_2  and  C_3
REMARK    3  A    between atoms: C_7  and  C_8
REMARK    4  A    between atoms: C_8  and  O_9
REMARK    5  A    between atoms: C_10  and  C_11
REMARK    6  A    between atoms: C_16  and  C_17
REMARK    7  A    between atoms: N_19  and  C_20
REMARK    8  A    between atoms: C_20  and  C_21
REMARK    9  A    between atoms: C_21  and  C_22
REMARK   10  A    between atoms: C_26  and  C_27
REMARK   11  A    between atoms: C_32  and  O_33
REMARK                            x       y       z     vdW  Elec       q    Type
REMARK                         _______ _______ _______ _____ _____    ______ ____
ROOT
ATOM      1  C   UNL     1       0.288  10.472  20.207  0.00  0.00    +0.000 A 
ATOM      2  N   UNL     1       0.445   9.235  20.683  0.00  0.00    +0.000 NA
ATOM      3  C   UNL     1       1.226   8.418  19.936  0.00  0.00    +0.000 A 
ATOM      4  C   UNL     1       1.881   7.344  20.506  0.00  0.00    +0.000 A 
ATOM      5  C   UNL     1       2.750   6.562  19.763  0.00  0.00    +0.000 A 
ATOM      6  C   UNL     1       2.846   6.710  18.369  0.00  0.00    +0.000 A 
ATOM      7  C   UNL     1       2.209   7.791  17.776  0.00  0.00    +0.000 A 
ATOM      8  C   UNL     1       1.580   8.728  18.593  0.00  0.00    +0.000 A 
ATOM      9  N   UNL     1       1.482   9.991  18.181  0.00  0.00    +0.000 NA
ATOM     10  C   UNL     1       1.079  10.862  19.132  0.00  0.00    +0.000 A 
ENDROOT
BRANCH   6  11
ATOM     11  C   UNL     1       3.782   5.799  17.649  0.00  0.00    +0.000 C 
ATOM     12  O   UNL     1       3.902   4.652  18.077  0.00  0.00    +0.000 OA
ATOM     13  N   UNL     1       4.428   6.230  16.502  0.00  0.00    +0.000 N 
ATOM     14  H   UNL     1       4.145   7.095  16.061  0.00  0.00    +0.000 HD
BRANCH  13  15
ATOM     15  C   UNL     1       5.101   5.196  15.707  0.00  0.00    +0.000 C 
BRANCH  15  16
ATOM     16  C   UNL     1       6.622   5.321  15.597  0.00  0.00    +0.000 C 
BRANCH  16  17
ATOM     17  C   UNL     1       7.233   5.918  16.853  0.00  0.00    +0.000 A 
ATOM     18  C   UNL     1       7.484   5.114  17.978  0.00  0.00    +0.000 A 
ATOM     19  C   UNL     1       8.034   5.664  19.139  0.00  0.00    +0.000 A 
ATOM     20  C   UNL     1       8.339   7.022  19.201  0.00  0.00    +0.000 A 
ATOM     21  C   UNL     1       8.090   7.846  18.099  0.00  0.00    +0.000 A 
ATOM     22  C   UNL     1       8.413   9.311  18.155  0.00  0.00    +0.000 C 
ATOM     23  C   UNL     1       7.532   7.287  16.933  0.00  0.00    +0.000 A 
ENDBRANCH  16  17
ENDBRANCH  15  16
ENDBRANCH  13  15
ENDBRANCH   6  11
BRANCH   1  25
ATOM     24  C   UNL     1      -0.735  11.465  22.264  0.00  0.00    +0.000 C 
ATOM     25  C   UNL     1      -0.604  11.406  20.925  0.00  0.00    +0.000 C 
BRANCH  24  30
ATOM     26  C   UNL     1      -1.799  14.769  23.790  0.00  0.00    +0.000 A 
ATOM     27  C   UNL     1      -3.082  14.463  24.238  0.00  0.00    +0.000 A 
ATOM     28  C   UNL     1      -3.604  13.185  24.044  0.00  0.00    +0.000 A 
ATOM     29  C   UNL     1      -2.839  12.204  23.411  0.00  0.00    +0.000 A 
ATOM     30  C   UNL     1      -1.535  12.481  22.980  0.00  0.00    +0.000 A 
ATOM     31  C   UNL     1      -1.024  13.777  23.187  0.00  0.00    +0.000 A 
BRANCH  26  33
ATOM     32  C   UNL     1      -2.382  16.989  24.340  0.00  0.00    +0.000 C 
ATOM     33  O   UNL     1      -1.364  16.040  24.034  0.00  0.00    +0.000 OA
ENDBRANCH  26  33
ENDBRANCH  24  30
BRANCH  24  34
ATOM     34  O   UNL     1      -0.084  10.553  23.075  0.00  0.00    +0.000 OA
ATOM     35  H   UNL     1      -0.298   9.644  22.806  0.00  0.00    +0.000 HD
ENDBRANCH  24  34
ENDBRANCH   1  25
BRANCH  10  36
ATOM     36  O   UNL     1       2.099  11.760  19.469  0.00  0.00    +0.000 OA
ATOM     37  H   UNL     1       2.621  11.870  18.660  0.00  0.00    +0.000 HD
ENDBRANCH  10  36
TORSDOF 9
ENDMDL
MODEL 8
REMARK VINA RESULT:      -8.0      1.103      1.303
REMARK  Name = 
REMARK  11 active torsions:
REMARK  status: ('A' for Active; 'I' for Inactive)
REMARK    1  A    between atoms: C_1  and  O_2
REMARK    2  A    between atoms: O_2  and  C_3
REMARK    3  A    between atoms: C_7  and  C_8
REMARK    4  A    between atoms: C_8  and  O_9
REMARK    5  A    between atoms: C_10  and  C_11
REMARK    6  A    between atoms: C_16  and  C_17
REMARK    7  A    between atoms: N_19  and  C_20
REMARK    8  A    between atoms: C_20  and  C_21
REMARK    9  A    between atoms: C_21  and  C_22
REMARK   10  A    between atoms: C_26  and  C_27
REMARK   11  A    between atoms: C_32  and  O_33
REMARK                            x       y       z     vdW  Elec       q    Type
REMARK                         _______ _______ _______ _____ _____    ______ ____
ROOT
ATOM      1  C   UNL     1       1.485   8.937  19.463  0.00  0.00    +0.000 A 
ATOM      2  N   UNL     1       1.243   8.713  20.756  0.00  0.00    +0.000 NA
ATOM      3  C   UNL     1       0.486   9.649  21.379  0.00  0.00    +0.000 A 
ATOM      4  C   UNL     1      -0.252   9.333  22.502  0.00  0.00    +0.000 A 
ATOM      5  C   UNL     1      -1.095  10.264  23.086  0.00  0.00    +0.000 A 
ATOM      6  C   UNL     1      -1.082  11.609  22.680  0.00  0.00    +0.000 A 
ATOM      7  C   UNL     1      -0.360  11.946  21.544  0.00  0.00    +0.000 A 
ATOM      8  C   UNL     1       0.244  10.930  20.808  0.00  0.00    +0.000 A 
ATOM      9  N   UNL     1       0.424  11.091  19.498  0.00  0.00    +0.000 NA
ATOM     10  C   UNL     1       0.791   9.970  18.840  0.00  0.00    +0.000 A 
ENDROOT
BRANCH   6  11
ATOM     11  C   UNL     1      -1.999  12.545  23.391  0.00  0.00    +0.000 C 
ATOM     12  O   UNL     1      -1.568  13.664  23.667  0.00  0.00    +0.000 OA
ATOM     13  N   UNL     1      -3.305  12.171  23.660  0.00  0.00    +0.000 N 
ATOM     14  H   UNL     1      -3.686  11.337  23.234  0.00  0.00    +0.000 HD
BRANCH  13  15
ATOM     15  C   UNL     1      -4.211  13.239  24.103  0.00  0.00    +0.000 C 
BRANCH  15  16
ATOM     16  C   UNL     1      -5.706  12.950  23.955  0.00  0.00    +0.000 C 
BRANCH  16  17
ATOM     17  C   UNL     1      -6.196  13.212  22.542  0.00  0.00    +0.000 A 
ATOM     18  C   UNL     1      -7.005  12.272  21.881  0.00  0.00    +0.000 A 
ATOM     19  C   UNL     1      -7.447  12.504  20.576  0.00  0.00    +0.000 A 
ATOM     20  C   UNL     1      -7.089  13.672  19.906  0.00  0.00    +0.000 A 
ATOM     21  C   UNL     1      -6.276  14.620  20.539  0.00  0.00    +0.000 A 
ATOM     22  C   UNL     1      -5.882  15.882  19.827  0.00  0.00    +0.000 C 
ATOM     23  C   UNL     1      -5.832  14.378  21.852  0.00  0.00    +0.000 A 
ENDBRANCH  16  17
ENDBRANCH  15  16
ENDBRANCH  13  15
ENDBRANCH   6  11
BRANCH   1  25
ATOM     24  C   UNL     1       2.548   6.709  19.054  0.00  0.00    +0.000 C 
ATOM     25  C   UNL     1       2.358   8.001  18.725  0.00  0.00    +0.000 C 
BRANCH  24  30
ATOM     26  C   UNL     1       5.466   5.008  17.333  0.00  0.00    +0.000 A 
ATOM     27  C   UNL     1       4.850   3.877  16.803  0.00  0.00    +0.000 A 
ATOM     28  C   UNL     1       3.487   3.664  17.004  0.00  0.00    +0.000 A 
ATOM     29  C   UNL     1       2.733   4.588  17.728  0.00  0.00    +0.000 A 
ATOM     30  C   UNL     1       3.326   5.748  18.244  0.00  0.00    +0.000 A 
ATOM     31  C   UNL     1       4.703   5.947  18.028  0.00  0.00    +0.000 A 
BRANCH  26  33
ATOM     32  C   UNL     1       7.311   6.470  17.147  0.00  0.00    +0.000 C 
ATOM     33  O   UNL     1       6.801   5.142  17.075  0.00  0.00    +0.000 OA
ENDBRANCH  26  33
ENDBRANCH  24  30
BRANCH  24  34
ATOM     34  O   UNL     1       1.984   6.186  20.204  0.00  0.00    +0.000 OA
ATOM     35  H   UNL     1       1.025   6.340  20.214  0.00  0.00    +0.000 HD
ENDBRANCH  24  34
ENDBRANCH   1  25
BRANCH  10  36
ATOM     36  O   UNL     1      -0.213   9.537  17.966  0.00  0.00    +0.000 OA
ATOM     37  H   UNL     1       0.011   8.617  17.755  0.00  0.00    +0.000 HD
ENDBRANCH  10  36
TORSDOF 9
ENDMDL
MODEL 9
REMARK VINA RESULT:      -8.0      1.512      2.235
REMARK  Name = 
REMARK  11 active torsions:
REMARK  status: ('A' for Active; 'I' for Inactive)
REMARK    1  A    between atoms: C_1  and  O_2
REMARK    2  A    between atoms: O_2  and  C_3
REMARK    3  A    between atoms: C_7  and  C_8
REMARK    4  A    between atoms: C_8  and  O_9
REMARK    5  A    between atoms: C_10  and  C_11
REMARK    6  A    between atoms: C_16  and  C_17
REMARK    7  A    between atoms: N_19  and  C_20
REMARK    8  A    between atoms: C_20  and  C_21
REMARK    9  A    between atoms: C_21  and  C_22
REMARK   10  A    between atoms: C_26  and  C_27
REMARK   11  A    between atoms: C_32  and  O_33
REMARK                            x       y       z     vdW  Elec       q    Type
REMARK                         _______ _______ _______ _____ _____    ______ ____
ROOT
ATOM      1  C   UNL     1       1.474   9.177  19.027  0.00  0.00    +0.000 A 
ATOM      2  N   UNL     1       1.286   8.910  20.321  0.00  0.00    +0.000 NA
ATOM      3  C   UNL     1       0.592   9.845  21.015  0.00  0.00    +0.000 A 
ATOM      4  C   UNL     1      -0.102   9.509  22.160  0.00  0.00    +0.000 A 
ATOM      5  C   UNL     1      -0.885  10.443  22.819  0.00  0.00    +0.000 A 
ATOM      6  C   UNL     1      -0.846  11.802  22.463  0.00  0.00    +0.000 A 
ATOM      7  C   UNL     1      -0.168  12.160  21.307  0.00  0.00    +0.000 A 
ATOM      8  C   UNL     1       0.366  11.154  20.505  0.00  0.00    +0.000 A 
ATOM      9  N   UNL     1       0.489  11.360  19.194  0.00  0.00    +0.000 NA
ATOM     10  C   UNL     1       0.786  10.255  18.478  0.00  0.00    +0.000 A 
ENDROOT
BRANCH   6  11
ATOM     11  C   UNL     1      -1.695  12.738  23.253  0.00  0.00    +0.000 C 
ATOM     12  O   UNL     1      -2.802  12.339  23.611  0.00  0.00    +0.000 OA
ATOM     13  N   UNL     1      -1.207  13.982  23.617  0.00  0.00    +0.000 N 
ATOM     14  H   UNL     1      -0.225  14.192  23.493  0.00  0.00    +0.000 HD
BRANCH  13  15
ATOM     15  C   UNL     1      -1.985  14.720  24.620  0.00  0.00    +0.000 C 
BRANCH  15  16
ATOM     16  C   UNL     1      -2.486  16.101  24.193  0.00  0.00    +0.000 C 
BRANCH  16  17
ATOM     17  C   UNL     1      -3.328  16.033  22.931  0.00  0.00    +0.000 A 
ATOM     18  C   UNL     1      -2.908  16.681  21.757  0.00  0.00    +0.000 A 
ATOM     19  C   UNL     1      -3.687  16.631  20.597  0.00  0.00    +0.000 A 
ATOM     20  C   UNL     1      -4.897  15.940  20.589  0.00  0.00    +0.000 A 
ATOM     21  C   UNL     1      -5.342  15.294  21.748  0.00  0.00    +0.000 A 
ATOM     22  C   UNL     1      -6.644  14.547  21.751  0.00  0.00    +0.000 C 
ATOM     23  C   UNL     1      -4.554  15.351  22.913  0.00  0.00    +0.000 A 
ENDBRANCH  16  17
ENDBRANCH  15  16
ENDBRANCH  13  15
ENDBRANCH   6  11
BRANCH   1  25
ATOM     24  C   UNL     1       2.781   7.075  18.659  0.00  0.00    +0.000 C 
ATOM     25  C   UNL     1       2.279   8.243  18.213  0.00  0.00    +0.000 C 
BRANCH  24  30
ATOM     26  C   UNL     1       5.264   5.563  16.226  0.00  0.00    +0.000 A 
ATOM     27  C   UNL     1       4.903   4.218  16.266  0.00  0.00    +0.000 A 
ATOM     28  C   UNL     1       3.854   3.800  17.083  0.00  0.00    +0.000 A 
ATOM     29  C   UNL     1       3.156   4.728  17.856  0.00  0.00    +0.000 A 
ATOM     30  C   UNL     1       3.482   6.090  17.807  0.00  0.00    +0.000 A 
ATOM     31  C   UNL     1       4.542   6.494  16.974  0.00  0.00    +0.000 A 
BRANCH  26  33
ATOM     32  C   UNL     1       6.867   4.792  14.672  0.00  0.00    +0.000 C 
ATOM     33  O   UNL     1       6.294   5.883  15.386  0.00  0.00    +0.000 OA
ENDBRANCH  26  33
ENDBRANCH  24  30
BRANCH  24  34
ATOM     34  O   UNL     1       2.645   6.712  19.986  0.00  0.00    +0.000 OA
ATOM     35  H   UNL     1       1.707   6.696  20.241  0.00  0.00    +0.000 HD
ENDBRANCH  24  34
ENDBRANCH   1  25
BRANCH  10  36
ATOM     36  O   UNL     1      -0.273   9.888  17.639  0.00  0.00    +0.000 OA
ATOM     37  H   UNL     1      -0.757   9.201  18.123  0.00  0.00    +0.000 HD
ENDBRANCH  10  36
TORSDOF 9
ENDMDL
