MODEL 1
REMARK VINA RESULT:      -7.4      0.000      0.000
REMARK  Name = 
REMARK  0 active torsions:
REMARK  status: ('A' for Active; 'I' for Inactive)
REMARK                            x       y       z     vdW  Elec       q    Type
REMARK                         _______ _______ _______ _____ _____    ______ ____
ROOT
ATOM      1  O   UNL     1       7.531   4.374  17.784  0.00  0.00    +0.000 OA
ATOM      2  C   UNL     1       7.024   4.527  16.683  0.00  0.00    +0.000 C 
ATOM      3  O   UNL     1       7.731   4.922  15.590  0.00  0.00    +0.000 OA
ATOM      4  C   UNL     1       6.900   4.968  14.438  0.00  0.00    +0.000 C 
ATOM      5  C   UNL     1       5.510   4.537  14.837  0.00  0.00    +0.000 C 
ATOM      6  C   UNL     1       5.555   4.363  16.344  0.00  0.00    +0.000 C 
ATOM      7  C   UNL     1       4.714   5.399  17.118  0.00  0.00    +0.000 C 
ATOM      8  C   UNL     1       3.776   4.499  17.826  0.00  0.00    +0.000 A 
ATOM      9  C   UNL     1       2.734   4.821  18.681  0.00  0.00    +0.000 A 
ATOM     10  C   UNL     1       1.996   3.772  19.238  0.00  0.00    +0.000 A 
ATOM     11 CL   UNL     1       0.688   4.128  20.298  0.00  0.00    +0.000 Cl
ATOM     12  C   UNL     1       2.305   2.435  18.944  0.00  0.00    +0.000 A 
ATOM     13  C   UNL     1       3.361   2.131  18.081  0.00  0.00    +0.000 A 
ATOM     14  C   UNL     1       4.074   3.181  17.535  0.00  0.00    +0.000 A 
ATOM     15  O   UNL     1       5.123   3.024  16.674  0.00  0.00    +0.000 OA
ENDROOT
TORSDOF 0
ENDMDL
MODEL 2
REMARK VINA RESULT:      -7.1      1.024      1.203
REMARK  Name = 
REMARK  0 active torsions:
REMARK  status: ('A' for Active; 'I' for Inactive)
REMARK                            x       y       z     vdW  Elec       q    Type
REMARK                         _______ _______ _______ _____ _____    ______ ____
ROOT
ATOM      1  O   UNL     1       7.791   4.734  17.446  0.00  0.00    +0.000 OA
ATOM      2  C   UNL     1       7.151   4.754  16.405  0.00  0.00    +0.000 C 
ATOM      3  O   UNL     1       7.734   4.775  15.176  0.00  0.00    +0.000 OA
ATOM      4  C   UNL     1       6.752   4.743  14.149  0.00  0.00    +0.000 C 
ATOM      5  C   UNL     1       5.390   4.677  14.795  0.00  0.00    +0.000 C 
ATOM      6  C   UNL     1       5.640   4.808  16.285  0.00  0.00    +0.000 C 
ATOM      7  C   UNL     1       5.108   6.121  16.895  0.00  0.00    +0.000 C 
ATOM      8  C   UNL     1       4.158   5.580  17.894  0.00  0.00    +0.000 A 
ATOM      9  C   UNL     1       3.327   6.263  18.768  0.00  0.00    +0.000 A 
ATOM     10  C   UNL     1       2.526   5.510  19.631  0.00  0.00    +0.000 A 
ATOM     11 CL   UNL     1       1.473   6.319  20.728  0.00  0.00    +0.000 Cl
ATOM     12  C   UNL     1       2.566   4.108  19.617  0.00  0.00    +0.000 A 
ATOM     13  C   UNL     1       3.412   3.438  18.729  0.00  0.00    +0.000 A 
ATOM     14  C   UNL     1       4.191   4.199  17.879  0.00  0.00    +0.000 A 
ATOM     15  O   UNL     1       5.054   3.672  16.961  0.00  0.00    +0.000 OA
ENDROOT
TORSDOF 0
ENDMDL
MODEL 3
REMARK VINA RESULT:      -7.0      3.161      5.353
REMARK  Name = 
REMARK  0 active torsions:
REMARK  status: ('A' for Active; 'I' for Inactive)
REMARK                            x       y       z     vdW  Elec       q    Type
REMARK                         _______ _______ _______ _____ _____    ______ ____
ROOT
ATOM      1  O   UNL     1       4.919   1.862  20.308  0.00  0.00    +0.000 OA
ATOM      2  C   UNL     1       4.015   2.684  20.305  0.00  0.00    +0.000 C 
ATOM      3  O   UNL     1       2.947   2.614  21.145  0.00  0.00    +0.000 OA
ATOM      4  C   UNL     1       2.081   3.725  20.956  0.00  0.00    +0.000 C 
ATOM      5  C   UNL     1       2.671   4.613  19.888  0.00  0.00    +0.000 C 
ATOM      6  C   UNL     1       3.886   3.868  19.366  0.00  0.00    +0.000 C 
ATOM      7  C   UNL     1       3.741   3.376  17.912  0.00  0.00    +0.000 C 
ATOM      8  C   UNL     1       4.876   4.086  17.281  0.00  0.00    +0.000 A 
ATOM      9  C   UNL     1       5.281   4.082  15.955  0.00  0.00    +0.000 A 
ATOM     10  C   UNL     1       6.408   4.834  15.612  0.00  0.00    +0.000 A 
ATOM     11 CL   UNL     1       6.939   4.864  13.974  0.00  0.00    +0.000 Cl
ATOM     12  C   UNL     1       7.111   5.565  16.581  0.00  0.00    +0.000 A 
ATOM     13  C   UNL     1       6.689   5.554  17.913  0.00  0.00    +0.000 A 
ATOM     14  C   UNL     1       5.569   4.811  18.231  0.00  0.00    +0.000 A 
ATOM     15  O   UNL     1       5.047   4.720  19.490  0.00  0.00    +0.000 OA
ENDROOT
TORSDOF 0
ENDMDL
MODEL 4
REMARK VINA RESULT:      -7.0      1.208      1.208
REMARK  Name = 
REMARK  0 active torsions:
REMARK  status: ('A' for Active; 'I' for Inactive)
REMARK                            x       y       z     vdW  Elec       q    Type
REMARK                         _______ _______ _______ _____ _____    ______ ____
ROOT
ATOM      1  O   UNL     1       6.988   6.626  17.773  0.00  0.00    +0.000 OA
ATOM      2  C   UNL     1       6.790   5.883  16.823  0.00  0.00    +0.000 C 
ATOM      3  O   UNL     1       7.493   5.963  15.661  0.00  0.00    +0.000 OA
ATOM      4  C   UNL     1       7.086   4.946  14.754  0.00  0.00    +0.000 C 
ATOM      5  C   UNL     1       6.017   4.115  15.418  0.00  0.00    +0.000 C 
ATOM      6  C   UNL     1       5.728   4.804  16.739  0.00  0.00    +0.000 C 
ATOM      7  C   UNL     1       4.324   5.435  16.821  0.00  0.00    +0.000 C 
ATOM      8  C   UNL     1       3.771   4.697  17.979  0.00  0.00    +0.000 A 
ATOM      9  C   UNL     1       2.513   4.788  18.554  0.00  0.00    +0.000 A 
ATOM     10  C   UNL     1       2.241   3.982  19.662  0.00  0.00    +0.000 A 
ATOM     11 CL   UNL     1       0.687   4.058  20.402  0.00  0.00    +0.000 Cl
ATOM     12  C   UNL     1       3.211   3.112  20.180  0.00  0.00    +0.000 A 
ATOM     13  C   UNL     1       4.474   3.035  19.587  0.00  0.00    +0.000 A 
ATOM     14  C   UNL     1       4.723   3.835  18.489  0.00  0.00    +0.000 A 
ATOM     15  O   UNL     1       5.910   3.853  17.813  0.00  0.00    +0.000 OA
ENDROOT
TORSDOF 0
ENDMDL
MODEL 5
REMARK VINA RESULT:      -6.9      3.024      5.339
REMARK  Name = 
REMARK  0 active torsions:
REMARK  status: ('A' for Active; 'I' for Inactive)
REMARK                            x       y       z     vdW  Elec       q    Type
REMARK                         _______ _______ _______ _____ _____    ______ ____
ROOT
ATOM      1  O   UNL     1       3.376   1.249  18.911  0.00  0.00    +0.000 OA
ATOM      2  C   UNL     1       2.774   2.296  19.096  0.00  0.00    +0.000 C 
ATOM      3  O   UNL     1       1.594   2.364  19.770  0.00  0.00    +0.000 OA
ATOM      4  C   UNL     1       1.149   3.710  19.876  0.00  0.00    +0.000 C 
ATOM      5  C   UNL     1       2.167   4.602  19.211  0.00  0.00    +0.000 C 
ATOM      6  C   UNL     1       3.182   3.664  18.585  0.00  0.00    +0.000 C 
ATOM      7  C   UNL     1       3.177   3.677  17.042  0.00  0.00    +0.000 C 
ATOM      8  C   UNL     1       4.569   4.102  16.778  0.00  0.00    +0.000 A 
ATOM      9  C   UNL     1       5.198   4.329  15.564  0.00  0.00    +0.000 A 
ATOM     10  C   UNL     1       6.541   4.716  15.585  0.00  0.00    +0.000 A 
ATOM     11 CL   UNL     1       7.358   5.017  14.099  0.00  0.00    +0.000 Cl
ATOM     12  C   UNL     1       7.233   4.864  16.797  0.00  0.00    +0.000 A 
ATOM     13  C   UNL     1       6.581   4.628  18.011  0.00  0.00    +0.000 A 
ATOM     14  C   UNL     1       5.253   4.254  17.970  0.00  0.00    +0.000 A 
ATOM     15  O   UNL     1       4.498   4.000  19.081  0.00  0.00    +0.000 OA
ENDROOT
TORSDOF 0
ENDMDL
MODEL 6
REMARK VINA RESULT:      -6.8      2.321      2.802
REMARK  Name = 
REMARK  0 active torsions:
REMARK  status: ('A' for Active; 'I' for Inactive)
REMARK                            x       y       z     vdW  Elec       q    Type
REMARK                         _______ _______ _______ _____ _____    ______ ____
ROOT
ATOM      1  O   UNL     1       7.568   6.104  17.648  0.00  0.00    +0.000 OA
ATOM      2  C   UNL     1       6.944   5.467  16.813  0.00  0.00    +0.000 C 
ATOM      3  O   UNL     1       7.546   4.752  15.824  0.00  0.00    +0.000 OA
ATOM      4  C   UNL     1       6.581   4.073  15.032  0.00  0.00    +0.000 C 
ATOM      5  C   UNL     1       5.211   4.374  15.588  0.00  0.00    +0.000 C 
ATOM      6  C   UNL     1       5.434   5.393  16.689  0.00  0.00    +0.000 C 
ATOM      7  C   UNL     1       4.860   6.789  16.374  0.00  0.00    +0.000 C 
ATOM      8  C   UNL     1       3.909   6.941  17.498  0.00  0.00    +0.000 A 
ATOM      9  C   UNL     1       3.047   7.990  17.778  0.00  0.00    +0.000 A 
ATOM     10  C   UNL     1       2.251   7.896  18.923  0.00  0.00    +0.000 A 
ATOM     11 CL   UNL     1       1.161   9.173  19.303  0.00  0.00    +0.000 Cl
ATOM     12  C   UNL     1       2.326   6.777  19.766  0.00  0.00    +0.000 A 
ATOM     13  C   UNL     1       3.203   5.730  19.467  0.00  0.00    +0.000 A 
ATOM     14  C   UNL     1       3.976   5.838  18.328  0.00  0.00    +0.000 A 
ATOM     15  O   UNL     1       4.866   4.886  17.918  0.00  0.00    +0.000 OA
ENDROOT
TORSDOF 0
ENDMDL
MODEL 7
REMARK VINA RESULT:      -6.8      1.807      2.104
REMARK  Name = 
REMARK  0 active torsions:
REMARK  status: ('A' for Active; 'I' for Inactive)
REMARK                            x       y       z     vdW  Elec       q    Type
REMARK                         _______ _______ _______ _____ _____    ______ ____
ROOT
ATOM      1  O   UNL     1       7.202   5.079  20.004  0.00  0.00    +0.000 OA
ATOM      2  C   UNL     1       7.013   5.740  18.994  0.00  0.00    +0.000 C 
ATOM      3  O   UNL     1       7.846   6.740  18.596  0.00  0.00    +0.000 OA
ATOM      4  C   UNL     1       7.412   7.300  17.364  0.00  0.00    +0.000 C 
ATOM      5  C   UNL     1       6.174   6.563  16.916  0.00  0.00    +0.000 C 
ATOM      6  C   UNL     1       5.834   5.613  18.049  0.00  0.00    +0.000 C 
ATOM      7  C   UNL     1       4.525   5.962  18.786  0.00  0.00    +0.000 C 
ATOM      8  C   UNL     1       3.754   4.720  18.555  0.00  0.00    +0.000 A 
ATOM      9  C   UNL     1       2.463   4.407  18.952  0.00  0.00    +0.000 A 
ATOM     10  C   UNL     1       1.964   3.145  18.616  0.00  0.00    +0.000 A 
ATOM     11 CL   UNL     1       0.362   2.719  19.081  0.00  0.00    +0.000 Cl
ATOM     12  C   UNL     1       2.746   2.223  17.905  0.00  0.00    +0.000 A 
ATOM     13  C   UNL     1       4.047   2.558  17.516  0.00  0.00    +0.000 A 
ATOM     14  C   UNL     1       4.520   3.811  17.851  0.00  0.00    +0.000 A 
ATOM     15  O   UNL     1       5.767   4.266  17.527  0.00  0.00    +0.000 OA
ENDROOT
TORSDOF 0
ENDMDL
MODEL 8
REMARK VINA RESULT:      -6.7      1.533      2.102
REMARK  Name = 
REMARK  0 active torsions:
REMARK  status: ('A' for Active; 'I' for Inactive)
REMARK                            x       y       z     vdW  Elec       q    Type
REMARK                         _______ _______ _______ _____ _____    ______ ____
ROOT
ATOM      1  O   UNL     1       6.169   3.663  15.766  0.00  0.00    +0.000 OA
ATOM      2  C   UNL     1       6.344   4.757  16.281  0.00  0.00    +0.000 C 
ATOM      3  O   UNL     1       7.381   5.574  15.952  0.00  0.00    +0.000 OA
ATOM      4  C   UNL     1       7.308   6.799  16.669  0.00  0.00    +0.000 C 
ATOM      5  C   UNL     1       6.076   6.768  17.540  0.00  0.00    +0.000 C 
ATOM      6  C   UNL     1       5.502   5.372  17.382  0.00  0.00    +0.000 C 
ATOM      7  C   UNL     1       5.589   4.512  18.659  0.00  0.00    +0.000 C 
ATOM      8  C   UNL     1       4.154   4.231  18.885  0.00  0.00    +0.000 A 
ATOM      9  C   UNL     1       3.555   3.513  19.908  0.00  0.00    +0.000 A 
ATOM     10  C   UNL     1       2.163   3.380  19.886  0.00  0.00    +0.000 A 
ATOM     11 CL   UNL     1       1.378   2.502  21.142  0.00  0.00    +0.000 Cl
ATOM     12  C   UNL     1       1.398   3.952  18.859  0.00  0.00    +0.000 A 
ATOM     13  C   UNL     1       2.021   4.671  17.836  0.00  0.00    +0.000 A 
ATOM     14  C   UNL     1       3.396   4.797  17.878  0.00  0.00    +0.000 A 
ATOM     15  O   UNL     1       4.127   5.478  16.946  0.00  0.00    +0.000 OA
ENDROOT
TORSDOF 0
ENDMDL
MODEL 9
REMARK VINA RESULT:      -6.7      3.176      5.455
REMARK  Name = 
REMARK  0 active torsions:
REMARK  status: ('A' for Active; 'I' for Inactive)
REMARK                            x       y       z     vdW  Elec       q    Type
REMARK                         _______ _______ _______ _____ _____    ______ ____
ROOT
ATOM      1  O   UNL     1       4.671   2.140  21.063  0.00  0.00    +0.000 OA
ATOM      2  C   UNL     1       3.541   2.589  20.944  0.00  0.00    +0.000 C 
ATOM      3  O   UNL     1       2.524   2.270  21.790  0.00  0.00    +0.000 OA
ATOM      4  C   UNL     1       1.339   2.975  21.444  0.00  0.00    +0.000 C 
ATOM      5  C   UNL     1       1.638   3.854  20.255  0.00  0.00    +0.000 C 
ATOM      6  C   UNL     1       3.057   3.512  19.843  0.00  0.00    +0.000 C 
ATOM      7  C   UNL     1       3.158   2.804  18.476  0.00  0.00    +0.000 C 
ATOM      8  C   UNL     1       4.009   3.768  17.743  0.00  0.00    +0.000 A 
ATOM      9  C   UNL     1       4.451   3.721  16.430  0.00  0.00    +0.000 A 
ATOM     10  C   UNL     1       5.266   4.761  15.976  0.00  0.00    +0.000 A 
ATOM     11 CL   UNL     1       5.830   4.746  14.350  0.00  0.00    +0.000 Cl
ATOM     12  C   UNL     1       5.629   5.818  16.825  0.00  0.00    +0.000 A 
ATOM     13  C   UNL     1       5.175   5.847  18.146  0.00  0.00    +0.000 A 
ATOM     14  C   UNL     1       4.365   4.813  18.574  0.00  0.00    +0.000 A 
ATOM     15  O   UNL     1       3.848   4.722  19.836  0.00  0.00    +0.000 OA
ENDROOT
TORSDOF 0
ENDMDL
