MODEL 1
REMARK VINA RESULT:      -7.7      0.000      0.000
REMARK  Name = 
REMARK  6 active torsions:
REMARK  status: ('A' for Active; 'I' for Inactive)
REMARK    1  A    between atoms: C_1  and  O_2
REMARK    2  A    between atoms: O_2  and  C_3
REMARK    3  A    between atoms: C_3  and  C_5
REMARK    4  A    between atoms: C_5  and  S_6
REMARK    5  A    between atoms: S_6  and  C_9
REMARK    6  A    between atoms: C_17  and  C_18
REMARK                            x       y       z     vdW  Elec       q    Type
REMARK                         _______ _______ _______ _____ _____    ______ ____
ROOT
ATOM      1  C   UNL     1       3.800   6.380  17.944  0.00  0.00    +0.000 A 
ATOM      2  C   UNL     1       3.348   7.701  17.728  0.00  0.00    +0.000 A 
ATOM      3  C   UNL     1       2.381   8.298  18.542  0.00  0.00    +0.000 A 
ATOM      4 BR   UNL     1       1.835  10.075  18.201  0.00  0.00    +0.000 Br
ATOM      5  C   UNL     1       1.794   7.582  19.563  0.00  0.00    +0.000 A 
ATOM      6  C   UNL     1       2.216   6.275  19.767  0.00  0.00    +0.000 A 
ATOM      7  C   UNL     1       3.241   5.656  19.013  0.00  0.00    +0.000 A 
ATOM      8  N   UNL     1       3.437   4.354  19.573  0.00  0.00    +0.000 N 
ATOM      9  C   UNL     1       4.543   3.530  19.458  0.00  0.00    +0.000 C 
ATOM     10  C   UNL     1       4.439   2.131  20.031  0.00  0.00    +0.000 C 
ATOM     11  O   UNL     1       5.607   3.860  18.950  0.00  0.00    +0.000 OA
ATOM     12  C   UNL     1       2.402   4.098  20.587  0.00  0.00    +0.000 C 
ATOM     13  C   UNL     1       1.642   5.388  20.822  0.00  0.00    +0.000 C 
ENDROOT
BRANCH   1  14
ATOM     14  S   UNL     1       4.835   5.668  16.671  0.00  0.00    +0.000 S 
ATOM     15  O   UNL     1       4.642   6.491  15.493  0.00  0.00    +0.000 OA
ATOM     16  O   UNL     1       4.650   4.235  16.669  0.00  0.00    +0.000 OA
BRANCH  14  17
ATOM     17  C   UNL     1       6.607   5.816  17.142  0.00  0.00    +0.000 C 
ATOM     18  C   UNL     1       6.897   6.246  18.563  0.00  0.00    +0.000 C 
ATOM     19  C   UNL     1       7.012   7.250  17.449  0.00  0.00    +0.000 C 
BRANCH  17  20
ATOM     20  C   UNL     1       7.535   4.959  16.383  0.00  0.00    +0.000 C 
ATOM     21  O   UNL     1       8.148   4.045  16.920  0.00  0.00    +0.000 OA
BRANCH  20  23
ATOM     22  C   UNL     1       7.079   4.383  14.163  0.00  0.00    +0.000 C 
ATOM     23  O   UNL     1       7.648   5.316  15.080  0.00  0.00    +0.000 OA
ENDBRANCH  20  23
ENDBRANCH  17  20
ENDBRANCH  14  17
ENDBRANCH   1  14
TORSDOF 4
ENDMDL
MODEL 2
REMARK VINA RESULT:      -7.3      2.415      3.715
REMARK  Name = 
REMARK  6 active torsions:
REMARK  status: ('A' for Active; 'I' for Inactive)
REMARK    1  A    between atoms: C_1  and  O_2
REMARK    2  A    between atoms: O_2  and  C_3
REMARK    3  A    between atoms: C_3  and  C_5
REMARK    4  A    between atoms: C_5  and  S_6
REMARK    5  A    between atoms: S_6  and  C_9
REMARK    6  A    between atoms: C_17  and  C_18
REMARK                            x       y       z     vdW  Elec       q    Type
REMARK                         _______ _______ _______ _____ _____    ______ ____
ROOT
ATOM      1  C   UNL     1       3.903   5.446  17.902  0.00  0.00    +0.000 A 
ATOM      2  C   UNL     1       4.145   4.054  17.890  0.00  0.00    +0.000 A 
ATOM      3  C   UNL     1       3.448   3.171  18.718  0.00  0.00    +0.000 A 
ATOM      4 BR   UNL     1       3.817   1.318  18.636  0.00  0.00    +0.000 Br
ATOM      5  C   UNL     1       2.526   3.648  19.624  0.00  0.00    +0.000 A 
ATOM      6  C   UNL     1       2.299   5.018  19.659  0.00  0.00    +0.000 A 
ATOM      7  C   UNL     1       2.929   5.939  18.791  0.00  0.00    +0.000 A 
ATOM      8  N   UNL     1       2.378   7.227  19.082  0.00  0.00    +0.000 N 
ATOM      9  C   UNL     1       2.370   8.356  18.282  0.00  0.00    +0.000 C 
ATOM     10  C   UNL     1       1.844   9.642  18.888  0.00  0.00    +0.000 C 
ATOM     11  O   UNL     1       2.731   8.384  17.113  0.00  0.00    +0.000 OA
ATOM     12  C   UNL     1       1.510   7.128  20.266  0.00  0.00    +0.000 C 
ATOM     13  C   UNL     1       1.344   5.662  20.610  0.00  0.00    +0.000 C 
ENDROOT
BRANCH   1  14
ATOM     14  S   UNL     1       5.049   6.468  16.988  0.00  0.00    +0.000 S 
ATOM     15  O   UNL     1       5.237   7.667  17.783  0.00  0.00    +0.000 OA
ATOM     16  O   UNL     1       4.642   6.499  15.602  0.00  0.00    +0.000 OA
BRANCH  14  17
ATOM     17  C   UNL     1       6.687   5.639  16.879  0.00  0.00    +0.000 C 
ATOM     18  C   UNL     1       7.228   5.037  18.157  0.00  0.00    +0.000 C 
ATOM     19  C   UNL     1       7.762   6.359  17.680  0.00  0.00    +0.000 C 
BRANCH  17  20
ATOM     20  C   UNL     1       7.030   5.092  15.555  0.00  0.00    +0.000 C 
ATOM     21  O   UNL     1       7.788   5.682  14.794  0.00  0.00    +0.000 OA
BRANCH  20  23
ATOM     22  C   UNL     1       6.009   3.771  13.917  0.00  0.00    +0.000 C 
ATOM     23  O   UNL     1       6.403   3.922  15.280  0.00  0.00    +0.000 OA
ENDBRANCH  20  23
ENDBRANCH  17  20
ENDBRANCH  14  17
ENDBRANCH   1  14
TORSDOF 4
ENDMDL
MODEL 3
REMARK VINA RESULT:      -7.2      2.264      3.649
REMARK  Name = 
REMARK  6 active torsions:
REMARK  status: ('A' for Active; 'I' for Inactive)
REMARK    1  A    between atoms: C_1  and  O_2
REMARK    2  A    between atoms: O_2  and  C_3
REMARK    3  A    between atoms: C_3  and  C_5
REMARK    4  A    between atoms: C_5  and  S_6
REMARK    5  A    between atoms: S_6  and  C_9
REMARK    6  A    between atoms: C_17  and  C_18
REMARK                            x       y       z     vdW  Elec       q    Type
REMARK                         _______ _______ _______ _____ _____    ______ ____
ROOT
ATOM      1  C   UNL     1       4.131   5.773  18.297  0.00  0.00    +0.000 A 
ATOM      2  C   UNL     1       4.519   4.445  18.585  0.00  0.00    +0.000 A 
ATOM      3  C   UNL     1       3.889   3.684  19.572  0.00  0.00    +0.000 A 
ATOM      4 BR   UNL     1       4.454   1.908  19.891  0.00  0.00    +0.000 Br
ATOM      5  C   UNL     1       2.888   4.235  20.342  0.00  0.00    +0.000 A 
ATOM      6  C   UNL     1       2.516   5.548  20.082  0.00  0.00    +0.000 A 
ATOM      7  C   UNL     1       3.078   6.331  19.046  0.00  0.00    +0.000 A 
ATOM      8  N   UNL     1       2.383   7.581  19.049  0.00  0.00    +0.000 N 
ATOM      9  C   UNL     1       2.285   8.509  18.027  0.00  0.00    +0.000 C 
ATOM     10  C   UNL     1       1.604   9.827  18.338  0.00  0.00    +0.000 C 
ATOM     11  O   UNL     1       2.685   8.331  16.884  0.00  0.00    +0.000 OA
ATOM     12  C   UNL     1       1.486   7.637  20.214  0.00  0.00    +0.000 C 
ATOM     13  C   UNL     1       1.464   6.266  20.860  0.00  0.00    +0.000 C 
ENDROOT
BRANCH   1  14
ATOM     14  S   UNL     1       5.196   6.702  17.202  0.00  0.00    +0.000 S 
ATOM     15  O   UNL     1       5.171   8.070  17.687  0.00  0.00    +0.000 OA
ATOM     16  O   UNL     1       4.886   6.345  15.838  0.00  0.00    +0.000 OA
BRANCH  14  17
ATOM     17  C   UNL     1       6.931   6.113  17.359  0.00  0.00    +0.000 C 
ATOM     18  C   UNL     1       7.516   6.092  18.754  0.00  0.00    +0.000 C 
ATOM     19  C   UNL     1       7.883   7.208  17.816  0.00  0.00    +0.000 C 
BRANCH  17  20
ATOM     20  C   UNL     1       7.375   5.172  16.315  0.00  0.00    +0.000 C 
ATOM     21  O   UNL     1       7.664   4.011  16.578  0.00  0.00    +0.000 OA
BRANCH  20  23
ATOM     22  C   UNL     1       7.146   4.853  14.010  0.00  0.00    +0.000 C 
ATOM     23  O   UNL     1       7.454   5.737  15.085  0.00  0.00    +0.000 OA
ENDBRANCH  20  23
ENDBRANCH  17  20
ENDBRANCH  14  17
ENDBRANCH   1  14
TORSDOF 4
ENDMDL
MODEL 4
REMARK VINA RESULT:      -7.1      1.480      2.063
REMARK  Name = 
REMARK  6 active torsions:
REMARK  status: ('A' for Active; 'I' for Inactive)
REMARK    1  A    between atoms: C_1  and  O_2
REMARK    2  A    between atoms: O_2  and  C_3
REMARK    3  A    between atoms: C_3  and  C_5
REMARK    4  A    between atoms: C_5  and  S_6
REMARK    5  A    between atoms: S_6  and  C_9
REMARK    6  A    between atoms: C_17  and  C_18
REMARK                            x       y       z     vdW  Elec       q    Type
REMARK                         _______ _______ _______ _____ _____    ______ ____
ROOT
ATOM      1  C   UNL     1       4.225   5.435  18.465  0.00  0.00    +0.000 A 
ATOM      2  C   UNL     1       3.787   6.764  18.268  0.00  0.00    +0.000 A 
ATOM      3  C   UNL     1       2.434   7.091  18.142  0.00  0.00    +0.000 A 
ATOM      4 BR   UNL     1       1.922   8.893  17.894  0.00  0.00    +0.000 Br
ATOM      5  C   UNL     1       1.476   6.100  18.154  0.00  0.00    +0.000 A 
ATOM      6  C   UNL     1       1.900   4.788  18.324  0.00  0.00    +0.000 A 
ATOM      7  C   UNL     1       3.251   4.421  18.526  0.00  0.00    +0.000 A 
ATOM      8  N   UNL     1       3.268   3.006  18.737  0.00  0.00    +0.000 N 
ATOM      9  C   UNL     1       4.250   2.243  19.343  0.00  0.00    +0.000 C 
ATOM     10  C   UNL     1       4.088   0.736  19.312  0.00  0.00    +0.000 C 
ATOM     11  O   UNL     1       5.226   2.698  19.925  0.00  0.00    +0.000 OA
ATOM     12  C   UNL     1       1.922   2.461  18.498  0.00  0.00    +0.000 C 
ATOM     13  C   UNL     1       0.965   3.624  18.330  0.00  0.00    +0.000 C 
ENDROOT
BRANCH   1  14
ATOM     14  S   UNL     1       5.984   5.143  18.342  0.00  0.00    +0.000 S 
ATOM     15  O   UNL     1       6.130   3.865  17.671  0.00  0.00    +0.000 OA
ATOM     16  O   UNL     1       6.594   5.436  19.618  0.00  0.00    +0.000 OA
BRANCH  14  17
ATOM     17  C   UNL     1       6.760   6.408  17.255  0.00  0.00    +0.000 C 
ATOM     18  C   UNL     1       8.007   7.082  17.783  0.00  0.00    +0.000 C 
ATOM     19  C   UNL     1       6.692   7.808  17.846  0.00  0.00    +0.000 C 
BRANCH  17  20
ATOM     20  C   UNL     1       6.522   6.231  15.812  0.00  0.00    +0.000 C 
ATOM     21  O   UNL     1       5.489   6.619  15.279  0.00  0.00    +0.000 OA
BRANCH  20  23
ATOM     22  C   UNL     1       7.103   4.695  14.146  0.00  0.00    +0.000 C 
ATOM     23  O   UNL     1       7.530   5.580  15.180  0.00  0.00    +0.000 OA
ENDBRANCH  20  23
ENDBRANCH  17  20
ENDBRANCH  14  17
ENDBRANCH   1  14
TORSDOF 4
ENDMDL
MODEL 5
REMARK VINA RESULT:      -7.0      1.066      1.232
REMARK  Name = 
REMARK  6 active torsions:
REMARK  status: ('A' for Active; 'I' for Inactive)
REMARK    1  A    between atoms: C_1  and  O_2
REMARK    2  A    between atoms: O_2  and  C_3
REMARK    3  A    between atoms: C_3  and  C_5
REMARK    4  A    between atoms: C_5  and  S_6
REMARK    5  A    between atoms: S_6  and  C_9
REMARK    6  A    between atoms: C_17  and  C_18
REMARK                            x       y       z     vdW  Elec       q    Type
REMARK                         _______ _______ _______ _____ _____    ______ ____
ROOT
ATOM      1  C   UNL     1       3.469   5.775  18.579  0.00  0.00    +0.000 A 
ATOM      2  C   UNL     1       3.038   7.077  18.922  0.00  0.00    +0.000 A 
ATOM      3  C   UNL     1       2.058   7.304  19.891  0.00  0.00    +0.000 A 
ATOM      4 BR   UNL     1       1.542   9.075  20.307  0.00  0.00    +0.000 Br
ATOM      5  C   UNL     1       1.435   6.243  20.512  0.00  0.00    +0.000 A 
ATOM      6  C   UNL     1       1.836   4.960  20.164  0.00  0.00    +0.000 A 
ATOM      7  C   UNL     1       2.872   4.686  19.241  0.00  0.00    +0.000 A 
ATOM      8  N   UNL     1       3.038   3.265  19.214  0.00  0.00    +0.000 N 
ATOM      9  C   UNL     1       4.136   2.539  18.789  0.00  0.00    +0.000 C 
ATOM     10  C   UNL     1       4.001   1.031  18.729  0.00  0.00    +0.000 C 
ATOM     11  O   UNL     1       5.217   3.026  18.484  0.00  0.00    +0.000 OA
ATOM     12  C   UNL     1       1.973   2.636  20.011  0.00  0.00    +0.000 C 
ATOM     13  C   UNL     1       1.224   3.729  20.746  0.00  0.00    +0.000 C 
ENDROOT
BRANCH   1  14
ATOM     14  S   UNL     1       4.527   5.632  17.146  0.00  0.00    +0.000 S 
ATOM     15  O   UNL     1       4.331   6.848  16.380  0.00  0.00    +0.000 OA
ATOM     16  O   UNL     1       4.369   4.312  16.581  0.00  0.00    +0.000 OA
BRANCH  14  17
ATOM     17  C   UNL     1       6.292   5.609  17.665  0.00  0.00    +0.000 C 
ATOM     18  C   UNL     1       6.560   5.563  19.153  0.00  0.00    +0.000 C 
ATOM     19  C   UNL     1       6.697   6.867  18.417  0.00  0.00    +0.000 C 
BRANCH  17  20
ATOM     20  C   UNL     1       7.229   5.029  16.687  0.00  0.00    +0.000 C 
ATOM     21  O   UNL     1       7.981   4.109  16.985  0.00  0.00    +0.000 OA
BRANCH  20  23
ATOM     22  C   UNL     1       6.949   4.757  14.381  0.00  0.00    +0.000 C 
ATOM     23  O   UNL     1       7.185   5.639  15.476  0.00  0.00    +0.000 OA
ENDBRANCH  20  23
ENDBRANCH  17  20
ENDBRANCH  14  17
ENDBRANCH   1  14
TORSDOF 4
ENDMDL
MODEL 6
REMARK VINA RESULT:      -6.9      2.435      4.053
REMARK  Name = 
REMARK  6 active torsions:
REMARK  status: ('A' for Active; 'I' for Inactive)
REMARK    1  A    between atoms: C_1  and  O_2
REMARK    2  A    between atoms: O_2  and  C_3
REMARK    3  A    between atoms: C_3  and  C_5
REMARK    4  A    between atoms: C_5  and  S_6
REMARK    5  A    between atoms: S_6  and  C_9
REMARK    6  A    between atoms: C_17  and  C_18
REMARK                            x       y       z     vdW  Elec       q    Type
REMARK                         _______ _______ _______ _____ _____    ______ ____
ROOT
ATOM      1  C   UNL     1       4.044   5.362  17.774  0.00  0.00    +0.000 A 
ATOM      2  C   UNL     1       4.221   3.966  17.901  0.00  0.00    +0.000 A 
ATOM      3  C   UNL     1       3.515   3.209  18.839  0.00  0.00    +0.000 A 
ATOM      4 BR   UNL     1       3.795   1.342  18.942  0.00  0.00    +0.000 Br
ATOM      5  C   UNL     1       2.648   3.823  19.717  0.00  0.00    +0.000 A 
ATOM      6  C   UNL     1       2.485   5.199  19.614  0.00  0.00    +0.000 A 
ATOM      7  C   UNL     1       3.126   5.993  18.635  0.00  0.00    +0.000 A 
ATOM      8  N   UNL     1       2.644   7.329  18.805  0.00  0.00    +0.000 N 
ATOM      9  C   UNL     1       2.659   8.368  17.891  0.00  0.00    +0.000 C 
ATOM     10  C   UNL     1       2.215   9.734  18.374  0.00  0.00    +0.000 C 
ATOM     11  O   UNL     1       2.980   8.256  16.715  0.00  0.00    +0.000 OA
ATOM     12  C   UNL     1       1.815   7.397  20.019  0.00  0.00    +0.000 C 
ATOM     13  C   UNL     1       1.595   5.984  20.520  0.00  0.00    +0.000 C 
ENDROOT
BRANCH   1  14
ATOM     14  S   UNL     1       5.202   6.227  16.722  0.00  0.00    +0.000 S 
ATOM     15  O   UNL     1       5.683   7.353  17.499  0.00  0.00    +0.000 OA
ATOM     16  O   UNL     1       4.620   6.368  15.408  0.00  0.00    +0.000 OA
BRANCH  14  17
ATOM     17  C   UNL     1       6.658   5.158  16.375  0.00  0.00    +0.000 C 
ATOM     18  C   UNL     1       7.110   5.075  14.933  0.00  0.00    +0.000 C 
ATOM     19  C   UNL     1       6.307   3.948  15.522  0.00  0.00    +0.000 C 
BRANCH  17  20
ATOM     20  C   UNL     1       7.600   4.991  17.496  0.00  0.00    +0.000 C 
ATOM     21  O   UNL     1       8.311   3.999  17.594  0.00  0.00    +0.000 OA
BRANCH  20  23
ATOM     22  C   UNL     1       7.790   5.624  19.740  0.00  0.00    +0.000 C 
ATOM     23  O   UNL     1       7.557   6.012  18.387  0.00  0.00    +0.000 OA
ENDBRANCH  20  23
ENDBRANCH  17  20
ENDBRANCH  14  17
ENDBRANCH   1  14
TORSDOF 4
ENDMDL
MODEL 7
REMARK VINA RESULT:      -6.8      8.641     10.101
REMARK  Name = 
REMARK  6 active torsions:
REMARK  status: ('A' for Active; 'I' for Inactive)
REMARK    1  A    between atoms: C_1  and  O_2
REMARK    2  A    between atoms: O_2  and  C_3
REMARK    3  A    between atoms: C_3  and  C_5
REMARK    4  A    between atoms: C_5  and  S_6
REMARK    5  A    between atoms: S_6  and  C_9
REMARK    6  A    between atoms: C_17  and  C_18
REMARK                            x       y       z     vdW  Elec       q    Type
REMARK                         _______ _______ _______ _____ _____    ______ ____
ROOT
ATOM      1  C   UNL     1      -2.577  12.033  19.535  0.00  0.00    +0.000 A 
ATOM      2  C   UNL     1      -2.960  12.485  20.818  0.00  0.00    +0.000 A 
ATOM      3  C   UNL     1      -4.292  12.746  21.147  0.00  0.00    +0.000 A 
ATOM      4 BR   UNL     1      -4.731  13.337  22.889  0.00  0.00    +0.000 Br
ATOM      5  C   UNL     1      -5.282  12.616  20.197  0.00  0.00    +0.000 A 
ATOM      6  C   UNL     1      -4.911  12.194  18.926  0.00  0.00    +0.000 A 
ATOM      7  C   UNL     1      -3.586  11.852  18.570  0.00  0.00    +0.000 A 
ATOM      8  N   UNL     1      -3.626  11.393  17.215  0.00  0.00    +0.000 N 
ATOM      9  C   UNL     1      -2.703  10.607  16.550  0.00  0.00    +0.000 C 
ATOM     10  C   UNL     1      -2.913  10.382  15.065  0.00  0.00    +0.000 C 
ATOM     11  O   UNL     1      -1.746  10.057  17.079  0.00  0.00    +0.000 OA
ATOM     12  C   UNL     1      -4.974  11.612  16.668  0.00  0.00    +0.000 C 
ATOM     13  C   UNL     1      -5.883  12.037  17.804  0.00  0.00    +0.000 C 
ENDROOT
BRANCH   1  14
ATOM     14  S   UNL     1      -0.824  11.999  19.186  0.00  0.00    +0.000 S 
ATOM     15  O   UNL     1      -0.615  12.941  18.102  0.00  0.00    +0.000 OA
ATOM     16  O   UNL     1      -0.388  10.624  19.128  0.00  0.00    +0.000 OA
BRANCH  14  17
ATOM     17  C   UNL     1       0.120  12.633  20.631  0.00  0.00    +0.000 C 
ATOM     18  C   UNL     1      -0.038  14.103  20.952  0.00  0.00    +0.000 C 
ATOM     19  C   UNL     1       1.197  13.632  20.235  0.00  0.00    +0.000 C 
BRANCH  17  20
ATOM     20  C   UNL     1       0.420  11.637  21.674  0.00  0.00    +0.000 C 
ATOM     21  O   UNL     1       1.308  10.804  21.530  0.00  0.00    +0.000 OA
BRANCH  20  23
ATOM     22  C   UNL     1      -0.974  10.489  23.161  0.00  0.00    +0.000 C 
ATOM     23  O   UNL     1      -0.396  11.728  22.753  0.00  0.00    +0.000 OA
ENDBRANCH  20  23
ENDBRANCH  17  20
ENDBRANCH  14  17
ENDBRANCH   1  14
TORSDOF 4
ENDMDL
MODEL 8
REMARK VINA RESULT:      -6.8      3.574      5.716
REMARK  Name = 
REMARK  6 active torsions:
REMARK  status: ('A' for Active; 'I' for Inactive)
REMARK    1  A    between atoms: C_1  and  O_2
REMARK    2  A    between atoms: O_2  and  C_3
REMARK    3  A    between atoms: C_3  and  C_5
REMARK    4  A    between atoms: C_5  and  S_6
REMARK    5  A    between atoms: S_6  and  C_9
REMARK    6  A    between atoms: C_17  and  C_18
REMARK                            x       y       z     vdW  Elec       q    Type
REMARK                         _______ _______ _______ _____ _____    ______ ____
ROOT
ATOM      1  C   UNL     1       2.663   6.214  19.294  0.00  0.00    +0.000 A 
ATOM      2  C   UNL     1       3.612   5.631  18.426  0.00  0.00    +0.000 A 
ATOM      3  C   UNL     1       4.163   6.329  17.349  0.00  0.00    +0.000 A 
ATOM      4 BR   UNL     1       5.439   5.487  16.237  0.00  0.00    +0.000 Br
ATOM      5  C   UNL     1       3.749   7.614  17.069  0.00  0.00    +0.000 A 
ATOM      6  C   UNL     1       2.799   8.187  17.904  0.00  0.00    +0.000 A 
ATOM      7  C   UNL     1       2.268   7.542  19.045  0.00  0.00    +0.000 A 
ATOM      8  N   UNL     1       1.391   8.478  19.680  0.00  0.00    +0.000 N 
ATOM      9  C   UNL     1       0.945   8.482  20.989  0.00  0.00    +0.000 C 
ATOM     10  C   UNL     1      -0.099   9.512  21.372  0.00  0.00    +0.000 C 
ATOM     11  O   UNL     1       1.352   7.731  21.865  0.00  0.00    +0.000 OA
ATOM     12  C   UNL     1       1.249   9.668  18.825  0.00  0.00    +0.000 C 
ATOM     13  C   UNL     1       2.252   9.560  17.694  0.00  0.00    +0.000 C 
ENDROOT
BRANCH   1  14
ATOM     14  S   UNL     1       1.857   5.120  20.455  0.00  0.00    +0.000 S 
ATOM     15  O   UNL     1       0.440   5.422  20.371  0.00  0.00    +0.000 OA
ATOM     16  O   UNL     1       2.592   5.137  21.698  0.00  0.00    +0.000 OA
BRANCH  14  17
ATOM     17  C   UNL     1       2.062   3.372  19.922  0.00  0.00    +0.000 C 
ATOM     18  C   UNL     1       1.771   3.068  18.469  0.00  0.00    +0.000 C 
ATOM     19  C   UNL     1       0.746   2.726  19.514  0.00  0.00    +0.000 C 
BRANCH  17  20
ATOM     20  C   UNL     1       3.032   2.584  20.703  0.00  0.00    +0.000 C 
ATOM     21  O   UNL     1       2.866   2.363  21.896  0.00  0.00    +0.000 OA
BRANCH  20  23
ATOM     22  C   UNL     1       5.129   1.550  20.739  0.00  0.00    +0.000 C 
ATOM     23  O   UNL     1       4.103   2.181  19.976  0.00  0.00    +0.000 OA
ENDBRANCH  20  23
ENDBRANCH  17  20
ENDBRANCH  14  17
ENDBRANCH   1  14
TORSDOF 4
ENDMDL
MODEL 9
REMARK VINA RESULT:      -6.7      2.449      4.193
REMARK  Name = 
REMARK  6 active torsions:
REMARK  status: ('A' for Active; 'I' for Inactive)
REMARK    1  A    between atoms: C_1  and  O_2
REMARK    2  A    between atoms: O_2  and  C_3
REMARK    3  A    between atoms: C_3  and  C_5
REMARK    4  A    between atoms: C_5  and  S_6
REMARK    5  A    between atoms: S_6  and  C_9
REMARK    6  A    between atoms: C_17  and  C_18
REMARK                            x       y       z     vdW  Elec       q    Type
REMARK                         _______ _______ _______ _____ _____    ______ ____
ROOT
ATOM      1  C   UNL     1       3.463   5.894  18.653  0.00  0.00    +0.000 A 
ATOM      2  C   UNL     1       3.530   4.574  19.152  0.00  0.00    +0.000 A 
ATOM      3  C   UNL     1       2.774   4.155  20.249  0.00  0.00    +0.000 A 
ATOM      4 BR   UNL     1       2.905   2.368  20.852  0.00  0.00    +0.000 Br
ATOM      5  C   UNL     1       1.968   5.049  20.920  0.00  0.00    +0.000 A 
ATOM      6  C   UNL     1       1.914   6.355  20.451  0.00  0.00    +0.000 A 
ATOM      7  C   UNL     1       2.607   6.804  19.302  0.00  0.00    +0.000 A 
ATOM      8  N   UNL     1       2.236   8.171  19.102  0.00  0.00    +0.000 N 
ATOM      9  C   UNL     1       2.325   8.922  17.944  0.00  0.00    +0.000 C 
ATOM     10  C   UNL     1       1.996  10.399  18.037  0.00  0.00    +0.000 C 
ATOM     11  O   UNL     1       2.624   8.474  16.844  0.00  0.00    +0.000 OA
ATOM     12  C   UNL     1       1.427   8.628  20.243  0.00  0.00    +0.000 C 
ATOM     13  C   UNL     1       1.099   7.423  21.102  0.00  0.00    +0.000 C 
ENDROOT
BRANCH   1  14
ATOM     14  S   UNL     1       4.677   6.350  17.422  0.00  0.00    +0.000 S 
ATOM     15  O   UNL     1       5.579   7.280  18.075  0.00  0.00    +0.000 OA
ATOM     16  O   UNL     1       3.994   6.653  16.186  0.00  0.00    +0.000 OA
BRANCH  14  17
ATOM     17  C   UNL     1       5.677   4.881  16.948  0.00  0.00    +0.000 C 
ATOM     18  C   UNL     1       5.494   4.362  15.539  0.00  0.00    +0.000 C 
ATOM     19  C   UNL     1       4.822   3.652  16.681  0.00  0.00    +0.000 C 
BRANCH  17  20
ATOM     20  C   UNL     1       6.947   4.721  17.677  0.00  0.00    +0.000 C 
ATOM     21  O   UNL     1       7.999   4.496  17.091  0.00  0.00    +0.000 OA
BRANCH  20  23
ATOM     22  C   UNL     1       7.845   5.547  19.673  0.00  0.00    +0.000 C 
ATOM     23  O   UNL     1       6.808   4.815  19.022  0.00  0.00    +0.000 OA
ENDBRANCH  20  23
ENDBRANCH  17  20
ENDBRANCH  14  17
ENDBRANCH   1  14
TORSDOF 4
ENDMDL
