MODEL 1
REMARK VINA RESULT:      -9.3      0.000      0.000
REMARK  Name = 
REMARK  13 active torsions:
REMARK  status: ('A' for Active; 'I' for Inactive)
REMARK    1  A    between atoms: C_1  and  O_2
REMARK    2  A    between atoms: O_2  and  C_3
REMARK    3  A    between atoms: C_6  and  C_7
REMARK    4  A    between atoms: C_7  and  C_8
REMARK    5  A    between atoms: C_8  and  N_9
REMARK    6  A    between atoms: C_10  and  C_12
REMARK    7  A    between atoms: N_16  and  C_17
REMARK    8  A    between atoms: C_17  and  C_18
REMARK    9  A    between atoms: C_20  and  C_21
REMARK   10  A    between atoms: C_26  and  C_27
REMARK   11  A    between atoms: C_29  and  C_30
REMARK   12  A    between atoms: C_33  and  O_34
REMARK   13  A    between atoms: O_34  and  C_35
REMARK                            x       y       z     vdW  Elec       q    Type
REMARK                         _______ _______ _______ _____ _____    ______ ____
ROOT
ATOM      1  C   UNL     1       7.064   4.852  16.893  0.00  0.00    +0.000 C 
ATOM      2  C   UNL     1       6.511   4.257  15.598  0.00  0.00    +0.000 C 
ATOM      3  C   UNL     1       5.001   4.429  15.504  0.00  0.00    +0.000 C 
ATOM      4  C   UNL     1       4.294   3.899  16.755  0.00  0.00    +0.000 C 
ATOM      5  N   UNL     1       4.856   4.425  18.012  0.00  0.00    +0.000 NA
ATOM      6  C   UNL     1       6.322   4.277  18.103  0.00  0.00    +0.000 C 
ENDROOT
BRANCH   1   8
ATOM      7  N   UNL     1       8.022   6.996  17.628  0.00  0.00    +0.000 N 
ATOM      8  C   UNL     1       7.084   6.379  16.837  0.00  0.00    +0.000 C 
ATOM      9  O   UNL     1       6.249   7.005  16.187  0.00  0.00    +0.000 OA
ATOM     10  H   UNL     1       8.667   6.401  18.151  0.00  0.00    +0.000 HD
BRANCH   7  11
ATOM     11  C   UNL     1       8.085   8.435  17.757  0.00  0.00    +0.000 C 
BRANCH  11  12
ATOM     12  C   UNL     1       8.712   8.867  19.079  0.00  0.00    +0.000 C 
BRANCH  12  16
ATOM     13  C   UNL     1      10.014  12.995  18.994  0.00  0.00    +0.000 A 
ATOM     14  C   UNL     1       9.761  12.296  17.802  0.00  0.00    +0.000 A 
ATOM     15  C   UNL     1       9.337  10.966  17.820  0.00  0.00    +0.000 A 
ATOM     16  C   UNL     1       9.191  10.296  19.034  0.00  0.00    +0.000 A 
ATOM     17  C   UNL     1       9.526  10.967  20.217  0.00  0.00    +0.000 A 
ATOM     18  C   UNL     1       9.940  12.309  20.215  0.00  0.00    +0.000 A 
BRANCH  13  20
ATOM     19  C   UNL     1      10.453  14.922  17.686  0.00  0.00    +0.000 C 
ATOM     20  O   UNL     1      10.359  14.321  18.979  0.00  0.00    +0.000 OA
ENDBRANCH  13  20
BRANCH  18  21
ATOM     21  O   UNL     1      10.199  12.762  21.481  0.00  0.00    +0.000 OA
ATOM     22  C   UNL     1       9.177  13.436  22.198  0.00  0.00    +0.000 C 
ENDBRANCH  18  21
ENDBRANCH  12  16
ENDBRANCH  11  12
ENDBRANCH   7  11
ENDBRANCH   1   8
BRANCH   5  23
ATOM     23  C   UNL     1       4.161   3.878  19.205  0.00  0.00    +0.000 C 
BRANCH  23  24
ATOM     24  C   UNL     1       3.095   4.765  19.774  0.00  0.00    +0.000 A 
ATOM     25  N   UNL     1       3.165   6.139  19.625  0.00  0.00    +0.000 NA
ATOM     26  C   UNL     1       2.079   6.603  20.213  0.00  0.00    +0.000 A 
ATOM     27  O   UNL     1       1.302   5.618  20.767  0.00  0.00    +0.000 OA
ATOM     28  C   UNL     1       1.956   4.453  20.492  0.00  0.00    +0.000 A 
ATOM     29  C   UNL     1       1.312   3.219  20.975  0.00  0.00    +0.000 C 
BRANCH  26  30
ATOM     30  C   UNL     1       1.569   7.975  20.341  0.00  0.00    +0.000 A 
ATOM     31  C   UNL     1       1.099   8.422  21.594  0.00  0.00    +0.000 A 
ATOM     32  C   UNL     1       0.587   9.708  21.768  0.00  0.00    +0.000 A 
ATOM     33  C   UNL     1       0.533  10.578  20.689  0.00  0.00    +0.000 A 
ATOM     34  C   UNL     1       0.994  10.164  19.438  0.00  0.00    +0.000 A 
ATOM     35  C   UNL     1       1.515   8.869  19.247  0.00  0.00    +0.000 A 
ATOM     36  C   UNL     1       1.998   8.494  17.871  0.00  0.00    +0.000 C 
ENDBRANCH  26  30
ENDBRANCH  23  24
ENDBRANCH   5  23
TORSDOF 9
ENDMDL
MODEL 2
REMARK VINA RESULT:      -9.0      0.933      1.047
REMARK  Name = 
REMARK  13 active torsions:
REMARK  status: ('A' for Active; 'I' for Inactive)
REMARK    1  A    between atoms: C_1  and  O_2
REMARK    2  A    between atoms: O_2  and  C_3
REMARK    3  A    between atoms: C_6  and  C_7
REMARK    4  A    between atoms: C_7  and  C_8
REMARK    5  A    between atoms: C_8  and  N_9
REMARK    6  A    between atoms: C_10  and  C_12
REMARK    7  A    between atoms: N_16  and  C_17
REMARK    8  A    between atoms: C_17  and  C_18
REMARK    9  A    between atoms: C_20  and  C_21
REMARK   10  A    between atoms: C_26  and  C_27
REMARK   11  A    between atoms: C_29  and  C_30
REMARK   12  A    between atoms: C_33  and  O_34
REMARK   13  A    between atoms: O_34  and  C_35
REMARK                            x       y       z     vdW  Elec       q    Type
REMARK                         _______ _______ _______ _____ _____    ______ ____
ROOT
ATOM      1  C   UNL     1       7.096   5.418  18.117  0.00  0.00    +0.000 C 
ATOM      2  C   UNL     1       7.613   4.591  16.939  0.00  0.00    +0.000 C 
ATOM      3  C   UNL     1       6.586   4.514  15.818  0.00  0.00    +0.000 C 
ATOM      4  C   UNL     1       5.224   4.038  16.331  0.00  0.00    +0.000 C 
ATOM      5  N   UNL     1       4.743   4.793  17.502  0.00  0.00    +0.000 NA
ATOM      6  C   UNL     1       5.740   4.886  18.587  0.00  0.00    +0.000 C 
ENDROOT
BRANCH   1   8
ATOM      7  N   UNL     1       8.219   7.606  18.204  0.00  0.00    +0.000 N 
ATOM      8  C   UNL     1       7.108   6.912  17.793  0.00  0.00    +0.000 C 
ATOM      9  O   UNL     1       6.137   7.459  17.275  0.00  0.00    +0.000 OA
ATOM     10  H   UNL     1       8.974   7.076  18.644  0.00  0.00    +0.000 HD
BRANCH   7  11
ATOM     11  C   UNL     1       8.319   9.042  18.061  0.00  0.00    +0.000 C 
BRANCH  11  12
ATOM     12  C   UNL     1       8.919   9.702  19.299  0.00  0.00    +0.000 C 
BRANCH  12  16
ATOM     13  C   UNL     1      10.472  13.641  18.399  0.00  0.00    +0.000 A 
ATOM     14  C   UNL     1      10.795  12.539  17.589  0.00  0.00    +0.000 A 
ATOM     15  C   UNL     1      10.295  11.266  17.870  0.00  0.00    +0.000 A 
ATOM     16  C   UNL     1       9.489  11.063  18.989  0.00  0.00    +0.000 A 
ATOM     17  C   UNL     1       9.239  12.145  19.843  0.00  0.00    +0.000 A 
ATOM     18  C   UNL     1       9.722  13.434  19.566  0.00  0.00    +0.000 A 
BRANCH  13  20
ATOM     19  C   UNL     1      11.114  15.155  16.691  0.00  0.00    +0.000 C 
ATOM     20  O   UNL     1      10.902  14.903  18.082  0.00  0.00    +0.000 OA
ENDBRANCH  13  20
BRANCH  18  21
ATOM     21  O   UNL     1       9.344  14.336  20.524  0.00  0.00    +0.000 OA
ATOM     22  C   UNL     1      10.155  14.505  21.675  0.00  0.00    +0.000 C 
ENDBRANCH  18  21
ENDBRANCH  12  16
ENDBRANCH  11  12
ENDBRANCH   7  11
ENDBRANCH   1   8
BRANCH   5  23
ATOM     23  C   UNL     1       3.430   4.295  17.987  0.00  0.00    +0.000 C 
BRANCH  23  24
ATOM     24  C   UNL     1       2.774   5.155  19.024  0.00  0.00    +0.000 A 
ATOM     25  N   UNL     1       2.617   6.516  18.818  0.00  0.00    +0.000 NA
ATOM     26  C   UNL     1       1.996   6.955  19.895  0.00  0.00    +0.000 A 
ATOM     27  O   UNL     1       1.752   5.971  20.818  0.00  0.00    +0.000 OA
ATOM     28  C   UNL     1       2.255   4.830  20.263  0.00  0.00    +0.000 A 
ATOM     29  C   UNL     1       2.106   3.601  21.060  0.00  0.00    +0.000 C 
BRANCH  26  30
ATOM     30  C   UNL     1       1.511   8.298  20.241  0.00  0.00    +0.000 A 
ATOM     31  C   UNL     1       1.224   8.601  21.589  0.00  0.00    +0.000 A 
ATOM     32  C   UNL     1       0.743   9.853  21.972  0.00  0.00    +0.000 A 
ATOM     33  C   UNL     1       0.538  10.834  21.012  0.00  0.00    +0.000 A 
ATOM     34  C   UNL     1       0.816  10.563  19.672  0.00  0.00    +0.000 A 
ATOM     35  C   UNL     1       1.303   9.304  19.270  0.00  0.00    +0.000 A 
ATOM     36  C   UNL     1       1.586   9.085  17.807  0.00  0.00    +0.000 C 
ENDBRANCH  26  30
ENDBRANCH  23  24
ENDBRANCH   5  23
TORSDOF 9
ENDMDL
MODEL 3
REMARK VINA RESULT:      -8.9      0.947      1.501
REMARK  Name = 
REMARK  13 active torsions:
REMARK  status: ('A' for Active; 'I' for Inactive)
REMARK    1  A    between atoms: C_1  and  O_2
REMARK    2  A    between atoms: O_2  and  C_3
REMARK    3  A    between atoms: C_6  and  C_7
REMARK    4  A    between atoms: C_7  and  C_8
REMARK    5  A    between atoms: C_8  and  N_9
REMARK    6  A    between atoms: C_10  and  C_12
REMARK    7  A    between atoms: N_16  and  C_17
REMARK    8  A    between atoms: C_17  and  C_18
REMARK    9  A    between atoms: C_20  and  C_21
REMARK   10  A    between atoms: C_26  and  C_27
REMARK   11  A    between atoms: C_29  and  C_30
REMARK   12  A    between atoms: C_33  and  O_34
REMARK   13  A    between atoms: O_34  and  C_35
REMARK                            x       y       z     vdW  Elec       q    Type
REMARK                         _______ _______ _______ _____ _____    ______ ____
ROOT
ATOM      1  C   UNL     1       7.233   5.216  17.209  0.00  0.00    +0.000 C 
ATOM      2  C   UNL     1       7.036   4.575  15.834  0.00  0.00    +0.000 C 
ATOM      3  C   UNL     1       5.567   4.548  15.436  0.00  0.00    +0.000 C 
ATOM      4  C   UNL     1       4.700   3.908  16.523  0.00  0.00    +0.000 C 
ATOM      5  N   UNL     1       4.922   4.481  17.863  0.00  0.00    +0.000 NA
ATOM      6  C   UNL     1       6.346   4.526  18.249  0.00  0.00    +0.000 C 
ENDROOT
BRANCH   1   8
ATOM      7  N   UNL     1       7.826   7.461  18.021  0.00  0.00    +0.000 N 
ATOM      8  C   UNL     1       7.061   6.733  17.143  0.00  0.00    +0.000 C 
ATOM      9  O   UNL     1       6.222   7.249  16.407  0.00  0.00    +0.000 OA
ATOM     10  H   UNL     1       8.486   6.952  18.611  0.00  0.00    +0.000 HD
BRANCH   7  11
ATOM     11  C   UNL     1       7.689   8.896  18.144  0.00  0.00    +0.000 C 
BRANCH  11  12
ATOM     12  C   UNL     1       8.857   9.642  17.506  0.00  0.00    +0.000 C 
BRANCH  12  16
ATOM     13  C   UNL     1       9.974  13.215  19.679  0.00  0.00    +0.000 A 
ATOM     14  C   UNL     1      10.335  11.943  20.153  0.00  0.00    +0.000 A 
ATOM     15  C   UNL     1       9.982  10.786  19.456  0.00  0.00    +0.000 A 
ATOM     16  C   UNL     1       9.229  10.876  18.286  0.00  0.00    +0.000 A 
ATOM     17  C   UNL     1       8.797  12.139  17.862  0.00  0.00    +0.000 A 
ATOM     18  C   UNL     1       9.156  13.313  18.544  0.00  0.00    +0.000 A 
BRANCH  13  20
ATOM     19  C   UNL     1      11.607  14.924  19.854  0.00  0.00    +0.000 C 
ATOM     20  O   UNL     1      10.383  14.354  20.322  0.00  0.00    +0.000 OA
ENDBRANCH  13  20
BRANCH  18  21
ATOM     21  O   UNL     1       8.636  14.429  17.943  0.00  0.00    +0.000 OA
ATOM     22  C   UNL     1       7.236  14.517  17.739  0.00  0.00    +0.000 C 
ENDBRANCH  18  21
ENDBRANCH  12  16
ENDBRANCH  11  12
ENDBRANCH   7  11
ENDBRANCH   1   8
BRANCH   5  23
ATOM     23  C   UNL     1       4.080   3.826  18.896  0.00  0.00    +0.000 C 
BRANCH  23  24
ATOM     24  C   UNL     1       3.077   4.725  19.554  0.00  0.00    +0.000 A 
ATOM     25  N   UNL     1       3.153   6.099  19.401  0.00  0.00    +0.000 NA
ATOM     26  C   UNL     1       2.126   6.576  20.079  0.00  0.00    +0.000 A 
ATOM     27  O   UNL     1       1.385   5.600  20.694  0.00  0.00    +0.000 OA
ATOM     28  C   UNL     1       1.998   4.426  20.364  0.00  0.00    +0.000 A 
ATOM     29  C   UNL     1       1.381   3.200  20.897  0.00  0.00    +0.000 C 
BRANCH  26  30
ATOM     30  C   UNL     1       1.647   7.953  20.250  0.00  0.00    +0.000 A 
ATOM     31  C   UNL     1       1.239   8.387  21.530  0.00  0.00    +0.000 A 
ATOM     32  C   UNL     1       0.758   9.679  21.747  0.00  0.00    +0.000 A 
ATOM     33  C   UNL     1       0.674  10.568  20.685  0.00  0.00    +0.000 A 
ATOM     34  C   UNL     1       1.073  10.167  19.409  0.00  0.00    +0.000 A 
ATOM     35  C   UNL     1       1.562   8.867  19.175  0.00  0.00    +0.000 A 
ATOM     36  C   UNL     1       1.979   8.507  17.773  0.00  0.00    +0.000 C 
ENDBRANCH  26  30
ENDBRANCH  23  24
ENDBRANCH   5  23
TORSDOF 9
ENDMDL
MODEL 4
REMARK VINA RESULT:      -8.9      1.450      1.768
REMARK  Name = 
REMARK  13 active torsions:
REMARK  status: ('A' for Active; 'I' for Inactive)
REMARK    1  A    between atoms: C_1  and  O_2
REMARK    2  A    between atoms: O_2  and  C_3
REMARK    3  A    between atoms: C_6  and  C_7
REMARK    4  A    between atoms: C_7  and  C_8
REMARK    5  A    between atoms: C_8  and  N_9
REMARK    6  A    between atoms: C_10  and  C_12
REMARK    7  A    between atoms: N_16  and  C_17
REMARK    8  A    between atoms: C_17  and  C_18
REMARK    9  A    between atoms: C_20  and  C_21
REMARK   10  A    between atoms: C_26  and  C_27
REMARK   11  A    between atoms: C_29  and  C_30
REMARK   12  A    between atoms: C_33  and  O_34
REMARK   13  A    between atoms: O_34  and  C_35
REMARK                            x       y       z     vdW  Elec       q    Type
REMARK                         _______ _______ _______ _____ _____    ______ ____
ROOT
ATOM      1  C   UNL     1       6.992   5.608  18.334  0.00  0.00    +0.000 C 
ATOM      2  C   UNL     1       7.665   4.637  17.364  0.00  0.00    +0.000 C 
ATOM      3  C   UNL     1       6.843   4.455  16.096  0.00  0.00    +0.000 C 
ATOM      4  C   UNL     1       5.394   4.074  16.412  0.00  0.00    +0.000 C 
ATOM      5  N   UNL     1       4.753   4.972  17.390  0.00  0.00    +0.000 NA
ATOM      6  C   UNL     1       5.553   5.167  18.615  0.00  0.00    +0.000 C 
ENDROOT
BRANCH   1   8
ATOM      7  N   UNL     1       8.210   7.745  18.330  0.00  0.00    +0.000 N 
ATOM      8  C   UNL     1       7.124   7.052  17.854  0.00  0.00    +0.000 C 
ATOM      9  O   UNL     1       6.256   7.575  17.157  0.00  0.00    +0.000 OA
ATOM     10  H   UNL     1       8.874   7.241  18.920  0.00  0.00    +0.000 HD
BRANCH   7  11
ATOM     11  C   UNL     1       8.404   9.150  18.046  0.00  0.00    +0.000 C 
BRANCH  11  12
ATOM     12  C   UNL     1       9.302   9.826  19.077  0.00  0.00    +0.000 C 
BRANCH  12  16
ATOM     13  C   UNL     1      10.080  13.940  17.976  0.00  0.00    +0.000 A 
ATOM     14  C   UNL     1      11.096  13.138  18.523  0.00  0.00    +0.000 A 
ATOM     15  C   UNL     1      10.855  11.809  18.877  0.00  0.00    +0.000 A 
ATOM     16  C   UNL     1       9.580  11.265  18.723  0.00  0.00    +0.000 A 
ATOM     17  C   UNL     1       8.549  12.091  18.258  0.00  0.00    +0.000 A 
ATOM     18  C   UNL     1       8.779  13.424  17.885  0.00  0.00    +0.000 A 
BRANCH  13  20
ATOM     19  C   UNL     1      11.607  15.429  16.942  0.00  0.00    +0.000 C 
ATOM     20  O   UNL     1      10.335  15.220  17.560  0.00  0.00    +0.000 OA
ENDBRANCH  13  20
BRANCH  18  21
ATOM     21  O   UNL     1       7.634  14.034  17.447  0.00  0.00    +0.000 OA
ATOM     22  C   UNL     1       7.186  15.214  18.094  0.00  0.00    +0.000 C 
ENDBRANCH  18  21
ENDBRANCH  12  16
ENDBRANCH  11  12
ENDBRANCH   7  11
ENDBRANCH   1   8
BRANCH   5  23
ATOM     23  C   UNL     1       3.356   4.565  17.689  0.00  0.00    +0.000 C 
BRANCH  23  24
ATOM     24  C   UNL     1       2.710   5.313  18.816  0.00  0.00    +0.000 A 
ATOM     25  N   UNL     1       2.515   6.681  18.735  0.00  0.00    +0.000 NA
ATOM     26  C   UNL     1       1.914   7.008  19.863  0.00  0.00    +0.000 A 
ATOM     27  O   UNL     1       1.721   5.940  20.702  0.00  0.00    +0.000 OA
ATOM     28  C   UNL     1       2.235   4.867  20.034  0.00  0.00    +0.000 A 
ATOM     29  C   UNL     1       2.139   3.569  20.724  0.00  0.00    +0.000 C 
BRANCH  26  30
ATOM     30  C   UNL     1       1.407   8.301  20.340  0.00  0.00    +0.000 A 
ATOM     31  C   UNL     1       1.116   8.465  21.711  0.00  0.00    +0.000 A 
ATOM     32  C   UNL     1       0.615   9.666  22.215  0.00  0.00    +0.000 A 
ATOM     33  C   UNL     1       0.393  10.732  21.357  0.00  0.00    +0.000 A 
ATOM     34  C   UNL     1       0.675  10.600  19.996  0.00  0.00    +0.000 A 
ATOM     35  C   UNL     1       1.183   9.395  19.473  0.00  0.00    +0.000 A 
ATOM     36  C   UNL     1       1.468   9.327  17.995  0.00  0.00    +0.000 C 
ENDBRANCH  26  30
ENDBRANCH  23  24
ENDBRANCH   5  23
TORSDOF 9
ENDMDL
MODEL 5
REMARK VINA RESULT:      -8.8      1.333      1.936
REMARK  Name = 
REMARK  13 active torsions:
REMARK  status: ('A' for Active; 'I' for Inactive)
REMARK    1  A    between atoms: C_1  and  O_2
REMARK    2  A    between atoms: O_2  and  C_3
REMARK    3  A    between atoms: C_6  and  C_7
REMARK    4  A    between atoms: C_7  and  C_8
REMARK    5  A    between atoms: C_8  and  N_9
REMARK    6  A    between atoms: C_10  and  C_12
REMARK    7  A    between atoms: N_16  and  C_17
REMARK    8  A    between atoms: C_17  and  C_18
REMARK    9  A    between atoms: C_20  and  C_21
REMARK   10  A    between atoms: C_26  and  C_27
REMARK   11  A    between atoms: C_29  and  C_30
REMARK   12  A    between atoms: C_33  and  O_34
REMARK   13  A    between atoms: O_34  and  C_35
REMARK                            x       y       z     vdW  Elec       q    Type
REMARK                         _______ _______ _______ _____ _____    ______ ____
ROOT
ATOM      1  C   UNL     1       7.288   5.110  17.334  0.00  0.00    +0.000 C 
ATOM      2  C   UNL     1       7.080   4.369  16.012  0.00  0.00    +0.000 C 
ATOM      3  C   UNL     1       5.623   4.412  15.572  0.00  0.00    +0.000 C 
ATOM      4  C   UNL     1       4.684   3.930  16.682  0.00  0.00    +0.000 C 
ATOM      5  N   UNL     1       4.915   4.599  17.976  0.00  0.00    +0.000 NA
ATOM      6  C   UNL     1       6.328   4.576  18.400  0.00  0.00    +0.000 C 
ENDROOT
BRANCH   1   8
ATOM      7  N   UNL     1       8.050   7.366  17.949  0.00  0.00    +0.000 N 
ATOM      8  C   UNL     1       7.230   6.624  17.136  0.00  0.00    +0.000 C 
ATOM      9  O   UNL     1       6.429   7.135  16.356  0.00  0.00    +0.000 OA
ATOM     10  H   UNL     1       8.673   6.863  18.583  0.00  0.00    +0.000 HD
BRANCH   7  11
ATOM     11  C   UNL     1       8.021   8.813  17.947  0.00  0.00    +0.000 C 
BRANCH  11  12
ATOM     12  C   UNL     1       9.049   9.409  18.904  0.00  0.00    +0.000 C 
BRANCH  12  16
ATOM     13  C   UNL     1       9.971  13.498  17.823  0.00  0.00    +0.000 A 
ATOM     14  C   UNL     1      10.940  12.677  18.423  0.00  0.00    +0.000 A 
ATOM     15  C   UNL     1      10.653  11.356  18.771  0.00  0.00    +0.000 A 
ATOM     16  C   UNL     1       9.376  10.839  18.558  0.00  0.00    +0.000 A 
ATOM     17  C   UNL     1       8.387  11.685  18.039  0.00  0.00    +0.000 A 
ATOM     18  C   UNL     1       8.665  13.011  17.670  0.00  0.00    +0.000 A 
BRANCH  13  20
ATOM     19  C   UNL     1      10.658  15.679  18.448  0.00  0.00    +0.000 C 
ATOM     20  O   UNL     1      10.274  14.770  17.413  0.00  0.00    +0.000 OA
ENDBRANCH  13  20
BRANCH  18  21
ATOM     21  O   UNL     1       7.556  13.644  17.173  0.00  0.00    +0.000 OA
ATOM     22  C   UNL     1       6.879  14.591  17.982  0.00  0.00    +0.000 C 
ENDBRANCH  18  21
ENDBRANCH  12  16
ENDBRANCH  11  12
ENDBRANCH   7  11
ENDBRANCH   1   8
BRANCH   5  23
ATOM     23  C   UNL     1       4.002   4.096  19.034  0.00  0.00    +0.000 C 
BRANCH  23  24
ATOM     24  C   UNL     1       3.016   5.103  19.545  0.00  0.00    +0.000 A 
ATOM     25  N   UNL     1       3.065   6.419  19.119  0.00  0.00    +0.000 NA
ATOM     26  C   UNL     1       2.062   7.015  19.735  0.00  0.00    +0.000 A 
ATOM     27  O   UNL     1       1.363   6.177  20.566  0.00  0.00    +0.000 OA
ATOM     28  C   UNL     1       1.978   4.965  20.447  0.00  0.00    +0.000 A 
ATOM     29  C   UNL     1       1.402   3.866  21.240  0.00  0.00    +0.000 C 
BRANCH  26  30
ATOM     30  C   UNL     1       1.571   8.397  19.652  0.00  0.00    +0.000 A 
ATOM     31  C   UNL     1       1.511   9.033  18.393  0.00  0.00    +0.000 A 
ATOM     32  C   UNL     1       1.070  10.350  18.258  0.00  0.00    +0.000 A 
ATOM     33  C   UNL     1       0.680  11.063  19.383  0.00  0.00    +0.000 A 
ATOM     34  C   UNL     1       0.726  10.458  20.640  0.00  0.00    +0.000 A 
ATOM     35  C   UNL     1       1.167   9.129  20.792  0.00  0.00    +0.000 A 
ATOM     36  C   UNL     1       1.186   8.541  22.178  0.00  0.00    +0.000 C 
ENDBRANCH  26  30
ENDBRANCH  23  24
ENDBRANCH   5  23
TORSDOF 9
ENDMDL
MODEL 6
REMARK VINA RESULT:      -8.3      1.020      1.557
REMARK  Name = 
REMARK  13 active torsions:
REMARK  status: ('A' for Active; 'I' for Inactive)
REMARK    1  A    between atoms: C_1  and  O_2
REMARK    2  A    between atoms: O_2  and  C_3
REMARK    3  A    between atoms: C_6  and  C_7
REMARK    4  A    between atoms: C_7  and  C_8
REMARK    5  A    between atoms: C_8  and  N_9
REMARK    6  A    between atoms: C_10  and  C_12
REMARK    7  A    between atoms: N_16  and  C_17
REMARK    8  A    between atoms: C_17  and  C_18
REMARK    9  A    between atoms: C_20  and  C_21
REMARK   10  A    between atoms: C_26  and  C_27
REMARK   11  A    between atoms: C_29  and  C_30
REMARK   12  A    between atoms: C_33  and  O_34
REMARK   13  A    between atoms: O_34  and  C_35
REMARK                            x       y       z     vdW  Elec       q    Type
REMARK                         _______ _______ _______ _____ _____    ______ ____
ROOT
ATOM      1  C   UNL     1       7.463   5.470  17.575  0.00  0.00    +0.000 C 
ATOM      2  C   UNL     1       7.376   4.772  16.218  0.00  0.00    +0.000 C 
ATOM      3  C   UNL     1       5.954   4.788  15.672  0.00  0.00    +0.000 C 
ATOM      4  C   UNL     1       4.952   4.239  16.692  0.00  0.00    +0.000 C 
ATOM      5  N   UNL     1       5.066   4.867  18.021  0.00  0.00    +0.000 NA
ATOM      6  C   UNL     1       6.444   4.871  18.549  0.00  0.00    +0.000 C 
ENDROOT
BRANCH   1   8
ATOM      7  N   UNL     1       8.248   7.720  18.186  0.00  0.00    +0.000 N 
ATOM      8  C   UNL     1       7.370   6.988  17.425  0.00  0.00    +0.000 C 
ATOM      9  O   UNL     1       6.500   7.509  16.730  0.00  0.00    +0.000 OA
ATOM     10  H   UNL     1       8.928   7.209  18.751  0.00  0.00    +0.000 HD
BRANCH   7  11
ATOM     11  C   UNL     1       8.202   9.166  18.227  0.00  0.00    +0.000 C 
BRANCH  11  12
ATOM     12  C   UNL     1       9.356   9.755  19.033  0.00  0.00    +0.000 C 
BRANCH  12  16
ATOM     13  C   UNL     1       9.315  14.080  18.865  0.00  0.00    +0.000 A 
ATOM     14  C   UNL     1       9.810  13.324  17.790  0.00  0.00    +0.000 A 
ATOM     15  C   UNL     1       9.824  11.929  17.834  0.00  0.00    +0.000 A 
ATOM     16  C   UNL     1       9.373  11.260  18.972  0.00  0.00    +0.000 A 
ATOM     17  C   UNL     1       8.960  12.018  20.076  0.00  0.00    +0.000 A 
ATOM     18  C   UNL     1       8.928  13.421  20.041  0.00  0.00    +0.000 A 
BRANCH  13  20
ATOM     19  C   UNL     1       8.367  15.962  17.781  0.00  0.00    +0.000 C 
ATOM     20  O   UNL     1       9.234  15.446  18.794  0.00  0.00    +0.000 OA
ENDBRANCH  13  20
BRANCH  18  21
ATOM     21  O   UNL     1       8.477  13.948  21.222  0.00  0.00    +0.000 OA
ATOM     22  C   UNL     1       9.392  14.147  22.287  0.00  0.00    +0.000 C 
ENDBRANCH  18  21
ENDBRANCH  12  16
ENDBRANCH  11  12
ENDBRANCH   7  11
ENDBRANCH   1   8
BRANCH   5  23
ATOM     23  C   UNL     1       4.094   4.300  18.990  0.00  0.00    +0.000 C 
BRANCH  23  24
ATOM     24  C   UNL     1       3.101   5.282  19.534  0.00  0.00    +0.000 A 
ATOM     25  N   UNL     1       3.065   6.584  19.064  0.00  0.00    +0.000 NA
ATOM     26  C   UNL     1       2.079   7.159  19.726  0.00  0.00    +0.000 A 
ATOM     27  O   UNL     1       1.473   6.322  20.627  0.00  0.00    +0.000 OA
ATOM     28  C   UNL     1       2.130   5.133  20.506  0.00  0.00    +0.000 A 
ATOM     29  C   UNL     1       1.655   4.039  21.371  0.00  0.00    +0.000 C 
BRANCH  26  30
ATOM     30  C   UNL     1       1.525   8.516  19.632  0.00  0.00    +0.000 A 
ATOM     31  C   UNL     1       1.400   9.124  18.365  0.00  0.00    +0.000 A 
ATOM     32  C   UNL     1       0.897  10.417  18.218  0.00  0.00    +0.000 A 
ATOM     33  C   UNL     1       0.508  11.134  19.341  0.00  0.00    +0.000 A 
ATOM     34  C   UNL     1       0.618  10.557  20.607  0.00  0.00    +0.000 A 
ATOM     35  C   UNL     1       1.122   9.252  20.770  0.00  0.00    +0.000 A 
ATOM     36  C   UNL     1       1.207   8.693  22.166  0.00  0.00    +0.000 C 
ENDBRANCH  26  30
ENDBRANCH  23  24
ENDBRANCH   5  23
TORSDOF 9
ENDMDL
MODEL 7
REMARK VINA RESULT:      -8.0      3.751      8.711
REMARK  Name = 
REMARK  13 active torsions:
REMARK  status: ('A' for Active; 'I' for Inactive)
REMARK    1  A    between atoms: C_1  and  O_2
REMARK    2  A    between atoms: O_2  and  C_3
REMARK    3  A    between atoms: C_6  and  C_7
REMARK    4  A    between atoms: C_7  and  C_8
REMARK    5  A    between atoms: C_8  and  N_9
REMARK    6  A    between atoms: C_10  and  C_12
REMARK    7  A    between atoms: N_16  and  C_17
REMARK    8  A    between atoms: C_17  and  C_18
REMARK    9  A    between atoms: C_20  and  C_21
REMARK   10  A    between atoms: C_26  and  C_27
REMARK   11  A    between atoms: C_29  and  C_30
REMARK   12  A    between atoms: C_33  and  O_34
REMARK   13  A    between atoms: O_34  and  C_35
REMARK                            x       y       z     vdW  Elec       q    Type
REMARK                         _______ _______ _______ _____ _____    ______ ____
ROOT
ATOM      1  C   UNL     1       2.502   4.643  18.643  0.00  0.00    +0.000 C 
ATOM      2  C   UNL     1       2.404   3.130  18.836  0.00  0.00    +0.000 C 
ATOM      3  C   UNL     1       3.365   2.641  19.911  0.00  0.00    +0.000 C 
ATOM      4  C   UNL     1       4.796   3.119  19.649  0.00  0.00    +0.000 C 
ATOM      5  N   UNL     1       4.893   4.570  19.406  0.00  0.00    +0.000 NA
ATOM      6  C   UNL     1       3.953   5.054  18.377  0.00  0.00    +0.000 C 
ENDROOT
BRANCH   1   8
ATOM      7  N   UNL     1       2.185   6.715  19.932  0.00  0.00    +0.000 N 
ATOM      8  C   UNL     1       1.838   5.393  19.797  0.00  0.00    +0.000 C 
ATOM      9  O   UNL     1       1.110   4.812  20.600  0.00  0.00    +0.000 OA
ATOM     10  H   UNL     1       2.811   7.115  19.231  0.00  0.00    +0.000 HD
BRANCH   7  11
ATOM     11  C   UNL     1       1.718   7.518  21.041  0.00  0.00    +0.000 C 
BRANCH  11  12
ATOM     12  C   UNL     1       0.218   7.787  20.965  0.00  0.00    +0.000 C 
BRANCH  12  16
ATOM     13  C   UNL     1      -0.705  11.764  22.405  0.00  0.00    +0.000 A 
ATOM     14  C   UNL     1      -0.848  10.644  23.242  0.00  0.00    +0.000 A 
ATOM     15  C   UNL     1      -0.549   9.359  22.787  0.00  0.00    +0.000 A 
ATOM     16  C   UNL     1      -0.132   9.162  21.471  0.00  0.00    +0.000 A 
ATOM     17  C   UNL     1      -0.072  10.268  20.614  0.00  0.00    +0.000 A 
ATOM     18  C   UNL     1      -0.356  11.568  21.060  0.00  0.00    +0.000 A 
BRANCH  13  20
ATOM     19  C   UNL     1      -2.263  13.310  23.296  0.00  0.00    +0.000 C 
ATOM     20  O   UNL     1      -0.927  13.032  22.872  0.00  0.00    +0.000 OA
ENDBRANCH  13  20
BRANCH  18  21
ATOM     21  O   UNL     1      -0.218  12.492  20.058  0.00  0.00    +0.000 OA
ATOM     22  C   UNL     1      -0.743  12.203  18.773  0.00  0.00    +0.000 C 
ENDBRANCH  18  21
ENDBRANCH  12  16
ENDBRANCH  11  12
ENDBRANCH   7  11
ENDBRANCH   1   8
BRANCH   5  23
ATOM     23  C   UNL     1       6.290   4.997  19.137  0.00  0.00    +0.000 C 
BRANCH  23  24
ATOM     24  C   UNL     1       6.591   5.296  17.699  0.00  0.00    +0.000 A 
ATOM     25  N   UNL     1       6.303   4.371  16.710  0.00  0.00    +0.000 NA
ATOM     26  C   UNL     1       6.667   4.952  15.582  0.00  0.00    +0.000 A 
ATOM     27  O   UNL     1       7.203   6.201  15.767  0.00  0.00    +0.000 OA
ATOM     28  C   UNL     1       7.160   6.411  17.114  0.00  0.00    +0.000 A 
ATOM     29  C   UNL     1       7.674   7.709  17.583  0.00  0.00    +0.000 C 
BRANCH  26  30
ATOM     30  C   UNL     1       6.564   4.493  14.191  0.00  0.00    +0.000 A 
ATOM     31  C   UNL     1       5.500   3.643  13.822  0.00  0.00    +0.000 A 
ATOM     32  C   UNL     1       5.365   3.162  12.519  0.00  0.00    +0.000 A 
ATOM     33  C   UNL     1       6.295   3.522  11.554  0.00  0.00    +0.000 A 
ATOM     34  C   UNL     1       7.355   4.364  11.890  0.00  0.00    +0.000 A 
ATOM     35  C   UNL     1       7.504   4.859  13.200  0.00  0.00    +0.000 A 
ATOM     36  C   UNL     1       8.671   5.766  13.489  0.00  0.00    +0.000 C 
ENDBRANCH  26  30
ENDBRANCH  23  24
ENDBRANCH   5  23
TORSDOF 9
ENDMDL
MODEL 8
REMARK VINA RESULT:      -7.9      1.670      2.431
REMARK  Name = 
REMARK  13 active torsions:
REMARK  status: ('A' for Active; 'I' for Inactive)
REMARK    1  A    between atoms: C_1  and  O_2
REMARK    2  A    between atoms: O_2  and  C_3
REMARK    3  A    between atoms: C_6  and  C_7
REMARK    4  A    between atoms: C_7  and  C_8
REMARK    5  A    between atoms: C_8  and  N_9
REMARK    6  A    between atoms: C_10  and  C_12
REMARK    7  A    between atoms: N_16  and  C_17
REMARK    8  A    between atoms: C_17  and  C_18
REMARK    9  A    between atoms: C_20  and  C_21
REMARK   10  A    between atoms: C_26  and  C_27
REMARK   11  A    between atoms: C_29  and  C_30
REMARK   12  A    between atoms: C_33  and  O_34
REMARK   13  A    between atoms: O_34  and  C_35
REMARK                            x       y       z     vdW  Elec       q    Type
REMARK                         _______ _______ _______ _____ _____    ______ ____
ROOT
ATOM      1  C   UNL     1       7.518   5.675  18.549  0.00  0.00    +0.000 C 
ATOM      2  C   UNL     1       7.641   4.541  17.532  0.00  0.00    +0.000 C 
ATOM      3  C   UNL     1       6.414   4.461  16.634  0.00  0.00    +0.000 C 
ATOM      4  C   UNL     1       5.120   4.394  17.451  0.00  0.00    +0.000 C 
ATOM      5  N   UNL     1       5.018   5.451  18.473  0.00  0.00    +0.000 NA
ATOM      6  C   UNL     1       6.211   5.546  19.336  0.00  0.00    +0.000 C 
ENDROOT
BRANCH   1   8
ATOM      7  N   UNL     1       8.297   8.006  18.672  0.00  0.00    +0.000 N 
ATOM      8  C   UNL     1       7.720   7.038  17.887  0.00  0.00    +0.000 C 
ATOM      9  O   UNL     1       7.306   7.263  16.752  0.00  0.00    +0.000 OA
ATOM     10  H   UNL     1       8.596   7.740  19.612  0.00  0.00    +0.000 HD
BRANCH   7  11
ATOM     11  C   UNL     1       8.452   9.369  18.214  0.00  0.00    +0.000 C 
BRANCH  11  12
ATOM     12  C   UNL     1       9.691  10.037  18.802  0.00  0.00    +0.000 C 
BRANCH  12  16
ATOM     13  C   UNL     1       8.618  13.589  21.032  0.00  0.00    +0.000 A 
ATOM     14  C   UNL     1       8.861  13.653  19.650  0.00  0.00    +0.000 A 
ATOM     15  C   UNL     1       9.203  12.512  18.922  0.00  0.00    +0.000 A 
ATOM     16  C   UNL     1       9.344  11.286  19.570  0.00  0.00    +0.000 A 
ATOM     17  C   UNL     1       9.186  11.240  20.962  0.00  0.00    +0.000 A 
ATOM     18  C   UNL     1       8.828  12.376  21.705  0.00  0.00    +0.000 A 
BRANCH  13  20
ATOM     19  C   UNL     1       9.255  15.541  22.216  0.00  0.00    +0.000 C 
ATOM     20  O   UNL     1       8.210  14.693  21.733  0.00  0.00    +0.000 OA
ENDBRANCH  13  20
BRANCH  18  21
ATOM     21  O   UNL     1       8.714  12.095  23.040  0.00  0.00    +0.000 OA
ATOM     22  C   UNL     1       7.437  11.794  23.578  0.00  0.00    +0.000 C 
ENDBRANCH  18  21
ENDBRANCH  12  16
ENDBRANCH  11  12
ENDBRANCH   7  11
ENDBRANCH   1   8
BRANCH   5  23
ATOM     23  C   UNL     1       3.762   5.347  19.259  0.00  0.00    +0.000 C 
BRANCH  23  24
ATOM     24  C   UNL     1       2.949   6.605  19.317  0.00  0.00    +0.000 A 
ATOM     25  N   UNL     1       2.225   6.927  20.453  0.00  0.00    +0.000 NA
ATOM     26  C   UNL     1       1.656   8.086  20.178  0.00  0.00    +0.000 A 
ATOM     27  O   UNL     1       1.939   8.541  18.916  0.00  0.00    +0.000 OA
ATOM     28  C   UNL     1       2.755   7.593  18.370  0.00  0.00    +0.000 A 
ATOM     29  C   UNL     1       3.222   7.853  16.998  0.00  0.00    +0.000 C 
BRANCH  26  30
ATOM     30  C   UNL     1       0.809   8.957  21.003  0.00  0.00    +0.000 A 
ATOM     31  C   UNL     1       0.837   8.817  22.407  0.00  0.00    +0.000 A 
ATOM     32  C   UNL     1       0.040   9.605  23.238  0.00  0.00    +0.000 A 
ATOM     33  C   UNL     1      -0.807  10.553  22.680  0.00  0.00    +0.000 A 
ATOM     34  C   UNL     1      -0.853  10.715  21.295  0.00  0.00    +0.000 A 
ATOM     35  C   UNL     1      -0.053   9.928  20.444  0.00  0.00    +0.000 A 
ATOM     36  C   UNL     1      -0.152  10.161  18.959  0.00  0.00    +0.000 C 
ENDBRANCH  26  30
ENDBRANCH  23  24
ENDBRANCH   5  23
TORSDOF 9
ENDMDL
MODEL 9
REMARK VINA RESULT:      -7.9      3.709      8.558
REMARK  Name = 
REMARK  13 active torsions:
REMARK  status: ('A' for Active; 'I' for Inactive)
REMARK    1  A    between atoms: C_1  and  O_2
REMARK    2  A    between atoms: O_2  and  C_3
REMARK    3  A    between atoms: C_6  and  C_7
REMARK    4  A    between atoms: C_7  and  C_8
REMARK    5  A    between atoms: C_8  and  N_9
REMARK    6  A    between atoms: C_10  and  C_12
REMARK    7  A    between atoms: N_16  and  C_17
REMARK    8  A    between atoms: C_17  and  C_18
REMARK    9  A    between atoms: C_20  and  C_21
REMARK   10  A    between atoms: C_26  and  C_27
REMARK   11  A    between atoms: C_29  and  C_30
REMARK   12  A    between atoms: C_33  and  O_34
REMARK   13  A    between atoms: O_34  and  C_35
REMARK                            x       y       z     vdW  Elec       q    Type
REMARK                         _______ _______ _______ _____ _____    ______ ____
ROOT
ATOM      1  C   UNL     1       2.520   5.220  18.832  0.00  0.00    +0.000 C 
ATOM      2  C   UNL     1       2.267   3.713  18.843  0.00  0.00    +0.000 C 
ATOM      3  C   UNL     1       3.218   2.994  19.790  0.00  0.00    +0.000 C 
ATOM      4  C   UNL     1       4.679   3.353  19.503  0.00  0.00    +0.000 C 
ATOM      5  N   UNL     1       4.922   4.806  19.434  0.00  0.00    +0.000 NA
ATOM      6  C   UNL     1       3.992   5.511  18.531  0.00  0.00    +0.000 C 
ENDROOT
BRANCH   1   8
ATOM      7  N   UNL     1       1.961   7.252  20.101  0.00  0.00    +0.000 N 
ATOM      8  C   UNL     1       1.997   5.880  20.107  0.00  0.00    +0.000 C 
ATOM      9  O   UNL     1       1.713   5.212  21.100  0.00  0.00    +0.000 OA
ATOM     10  H   UNL     1       2.232   7.731  19.240  0.00  0.00    +0.000 HD
BRANCH   7  11
ATOM     11  C   UNL     1       1.591   8.012  21.276  0.00  0.00    +0.000 C 
BRANCH  11  12
ATOM     12  C   UNL     1       0.154   8.519  21.203  0.00  0.00    +0.000 C 
BRANCH  12  16
ATOM     13  C   UNL     1      -0.148  12.820  21.597  0.00  0.00    +0.000 A 
ATOM     14  C   UNL     1       0.639  12.244  20.586  0.00  0.00    +0.000 A 
ATOM     15  C   UNL     1       0.739  10.858  20.449  0.00  0.00    +0.000 A 
ATOM     16  C   UNL     1       0.079  10.018  21.345  0.00  0.00    +0.000 A 
ATOM     17  C   UNL     1      -0.635  10.593  22.404  0.00  0.00    +0.000 A 
ATOM     18  C   UNL     1      -0.756  11.984  22.546  0.00  0.00    +0.000 A 
BRANCH  13  20
ATOM     19  C   UNL     1      -1.205  14.760  20.740  0.00  0.00    +0.000 C 
ATOM     20  O   UNL     1      -0.306  14.178  21.687  0.00  0.00    +0.000 OA
ENDBRANCH  13  20
BRANCH  18  21
ATOM     21  O   UNL     1      -1.510  12.320  23.639  0.00  0.00    +0.000 OA
ATOM     22  C   UNL     1      -2.905  12.522  23.484  0.00  0.00    +0.000 C 
ENDBRANCH  18  21
ENDBRANCH  12  16
ENDBRANCH  11  12
ENDBRANCH   7  11
ENDBRANCH   1   8
BRANCH   5  23
ATOM     23  C   UNL     1       6.343   5.119  19.136  0.00  0.00    +0.000 C 
BRANCH  23  24
ATOM     24  C   UNL     1       6.636   5.401  17.693  0.00  0.00    +0.000 A 
ATOM     25  N   UNL     1       6.346   4.462  16.717  0.00  0.00    +0.000 NA
ATOM     26  C   UNL     1       6.702   5.030  15.580  0.00  0.00    +0.000 A 
ATOM     27  O   UNL     1       7.235   6.283  15.746  0.00  0.00    +0.000 OA
ATOM     28  C   UNL     1       7.197   6.511  17.090  0.00  0.00    +0.000 A 
ATOM     29  C   UNL     1       7.709   7.816  17.541  0.00  0.00    +0.000 C 
BRANCH  26  30
ATOM     30  C   UNL     1       6.594   4.553  14.195  0.00  0.00    +0.000 A 
ATOM     31  C   UNL     1       5.497   3.747  13.827  0.00  0.00    +0.000 A 
ATOM     32  C   UNL     1       5.354   3.251  12.531  0.00  0.00    +0.000 A 
ATOM     33  C   UNL     1       6.310   3.551  11.571  0.00  0.00    +0.000 A 
ATOM     34  C   UNL     1       7.405   4.349  11.906  0.00  0.00    +0.000 A 
ATOM     35  C   UNL     1       7.561   4.858  13.210  0.00  0.00    +0.000 A 
ATOM     36  C   UNL     1       8.766   5.716  13.498  0.00  0.00    +0.000 C 
ENDBRANCH  26  30
ENDBRANCH  23  24
ENDBRANCH   5  23
TORSDOF 9
ENDMDL
