MODEL 1
REMARK VINA RESULT:      -7.6      0.000      0.000
REMARK  Name = 
REMARK  8 active torsions:
REMARK  status: ('A' for Active; 'I' for Inactive)
REMARK    1  A    between atoms: C_1  and  O_2
REMARK    2  A    between atoms: O_2  and  C_3
REMARK    3  A    between atoms: C_6  and  C_7
REMARK    4  A    between atoms: C_15  and  C_16
REMARK    5  A    between atoms: C_19  and  O_20
REMARK    6  A    between atoms: O_20  and  C_21
REMARK    7  A    between atoms: C_22  and  O_23
REMARK    8  A    between atoms: C_28  and  O_29
REMARK                            x       y       z     vdW  Elec       q    Type
REMARK                         _______ _______ _______ _____ _____    ______ ____
ROOT
ATOM      1  C   UNL     1      -0.196   9.647  17.804  0.00  0.00    +0.000 C 
ATOM      2  C   UNL     1       0.562   9.849  18.897  0.00  0.00    +0.000 C 
ATOM      3  C   UNL     1       0.327  10.866  19.965  0.00  0.00    +0.000 C 
ATOM      4  S   UNL     1      -0.082   9.980  21.448  0.00  0.00    +0.000 S 
ATOM      5  O   UNL     1      -1.162   9.039  21.180  0.00  0.00    +0.000 OA
ATOM      6  O   UNL     1      -0.197  10.942  22.525  0.00  0.00    +0.000 OA
ATOM      7  C   UNL     1       1.416   9.077  21.696  0.00  0.00    +0.000 C 
ATOM      8  C   UNL     1       1.739   8.258  20.481  0.00  0.00    +0.000 C 
ATOM      9  C   UNL     1       2.087   6.967  20.637  0.00  0.00    +0.000 C 
ATOM     10  C   UNL     1       1.720   8.932  19.131  0.00  0.00    +0.000 C 
ATOM     11  O   UNL     1       2.600   8.790  18.295  0.00  0.00    +0.000 OA
ENDROOT
BRANCH   1  15
ATOM     12  C   UNL     1      -4.129  11.286  17.206  0.00  0.00    +0.000 A 
ATOM     13  C   UNL     1      -3.429  11.547  18.395  0.00  0.00    +0.000 A 
ATOM     14  C   UNL     1      -2.139  11.038  18.614  0.00  0.00    +0.000 A 
ATOM     15  C   UNL     1      -1.514  10.277  17.627  0.00  0.00    +0.000 A 
ATOM     16  C   UNL     1      -2.198  10.037  16.428  0.00  0.00    +0.000 A 
ATOM     17  C   UNL     1      -3.500  10.512  16.229  0.00  0.00    +0.000 A 
BRANCH  12  19
ATOM     18  C   UNL     1      -6.359  11.340  18.079  0.00  0.00    +0.000 C 
ATOM     19  O   UNL     1      -5.382  11.840  17.172  0.00  0.00    +0.000 OA
ENDBRANCH  12  19
BRANCH  17  20
ATOM     20  O   UNL     1      -4.127  10.172  15.062  0.00  0.00    +0.000 OA
ATOM     21  H   UNL     1      -5.082  10.108  15.229  0.00  0.00    +0.000 HD
ENDBRANCH  17  20
ENDBRANCH   1  15
BRANCH   9  22
ATOM     22  C   UNL     1       2.576   6.076  19.592  0.00  0.00    +0.000 A 
ATOM     23  C   UNL     1       3.954   6.042  19.353  0.00  0.00    +0.000 A 
ATOM     24  C   UNL     1       4.479   5.227  18.352  0.00  0.00    +0.000 A 
ATOM     25  C   UNL     1       3.627   4.435  17.586  0.00  0.00    +0.000 A 
ATOM     26  C   UNL     1       2.252   4.462  17.852  0.00  0.00    +0.000 A 
ATOM     27  C   UNL     1       1.715   5.272  18.846  0.00  0.00    +0.000 A 
BRANCH  25  28
ATOM     28  O   UNL     1       4.016   3.606  16.564  0.00  0.00    +0.000 OA
ATOM     29  C   UNL     1       5.256   3.928  15.944  0.00  0.00    +0.000 C 
ENDBRANCH  25  28
BRANCH  26  30
ATOM     30  O   UNL     1       1.394   3.679  17.126  0.00  0.00    +0.000 OA
ATOM     31  H   UNL     1       0.506   3.899  17.467  0.00  0.00    +0.000 HD
ENDBRANCH  26  30
ENDBRANCH   9  22
TORSDOF 6
ENDMDL
MODEL 2
REMARK VINA RESULT:      -7.5      0.879      1.440
REMARK  Name = 
REMARK  8 active torsions:
REMARK  status: ('A' for Active; 'I' for Inactive)
REMARK    1  A    between atoms: C_1  and  O_2
REMARK    2  A    between atoms: O_2  and  C_3
REMARK    3  A    between atoms: C_6  and  C_7
REMARK    4  A    between atoms: C_15  and  C_16
REMARK    5  A    between atoms: C_19  and  O_20
REMARK    6  A    between atoms: O_20  and  C_21
REMARK    7  A    between atoms: C_22  and  O_23
REMARK    8  A    between atoms: C_28  and  O_29
REMARK                            x       y       z     vdW  Elec       q    Type
REMARK                         _______ _______ _______ _____ _____    ______ ____
ROOT
ATOM      1  C   UNL     1      -0.359   9.486  17.753  0.00  0.00    +0.000 C 
ATOM      2  C   UNL     1       0.492   9.796  18.749  0.00  0.00    +0.000 C 
ATOM      3  C   UNL     1       0.424  10.996  19.635  0.00  0.00    +0.000 C 
ATOM      4  S   UNL     1       0.051  10.415  21.271  0.00  0.00    +0.000 S 
ATOM      5  O   UNL     1      -1.121   9.550  21.234  0.00  0.00    +0.000 OA
ATOM      6  O   UNL     1       0.098  11.551  22.169  0.00  0.00    +0.000 OA
ATOM      7  C   UNL     1       1.482   9.427  21.585  0.00  0.00    +0.000 C 
ATOM      8  C   UNL     1       1.644   8.388  20.515  0.00  0.00    +0.000 C 
ATOM      9  C   UNL     1       1.892   7.115  20.873  0.00  0.00    +0.000 C 
ATOM     10  C   UNL     1       1.583   8.824  19.071  0.00  0.00    +0.000 C 
ATOM     11  O   UNL     1       2.384   8.460  18.223  0.00  0.00    +0.000 OA
ENDROOT
BRANCH   1  15
ATOM     12  C   UNL     1      -4.160  11.379  17.066  0.00  0.00    +0.000 A 
ATOM     13  C   UNL     1      -3.472  11.596  18.270  0.00  0.00    +0.000 A 
ATOM     14  C   UNL     1      -2.223  11.004  18.519  0.00  0.00    +0.000 A 
ATOM     15  C   UNL     1      -1.629  10.201  17.547  0.00  0.00    +0.000 A 
ATOM     16  C   UNL     1      -2.299  10.004  16.333  0.00  0.00    +0.000 A 
ATOM     17  C   UNL     1      -3.563  10.564  16.104  0.00  0.00    +0.000 A 
BRANCH  12  19
ATOM     18  C   UNL     1      -6.396  11.594  17.901  0.00  0.00    +0.000 C 
ATOM     19  O   UNL     1      -5.373  12.014  17.004  0.00  0.00    +0.000 OA
ENDBRANCH  12  19
BRANCH  17  20
ATOM     20  O   UNL     1      -4.185  10.263  14.923  0.00  0.00    +0.000 OA
ATOM     21  H   UNL     1      -4.945   9.688  15.110  0.00  0.00    +0.000 HD
ENDBRANCH  17  20
ENDBRANCH   1  15
BRANCH   9  22
ATOM     22  C   UNL     1       2.225   6.017  19.972  0.00  0.00    +0.000 A 
ATOM     23  C   UNL     1       1.231   5.073  19.696  0.00  0.00    +0.000 A 
ATOM     24  C   UNL     1       1.496   3.989  18.862  0.00  0.00    +0.000 A 
ATOM     25  C   UNL     1       2.759   3.845  18.293  0.00  0.00    +0.000 A 
ATOM     26  C   UNL     1       3.738   4.811  18.561  0.00  0.00    +0.000 A 
ATOM     27  C   UNL     1       3.488   5.896  19.393  0.00  0.00    +0.000 A 
BRANCH  25  28
ATOM     28  O   UNL     1       3.150   2.818  17.471  0.00  0.00    +0.000 OA
ATOM     29  C   UNL     1       3.456   1.589  18.120  0.00  0.00    +0.000 C 
ENDBRANCH  25  28
BRANCH  26  30
ATOM     30  O   UNL     1       4.984   4.704  18.000  0.00  0.00    +0.000 OA
ATOM     31  H   UNL     1       5.218   5.615  17.736  0.00  0.00    +0.000 HD
ENDBRANCH  26  30
ENDBRANCH   9  22
TORSDOF 6
ENDMDL
MODEL 3
REMARK VINA RESULT:      -7.5      0.634      1.322
REMARK  Name = 
REMARK  8 active torsions:
REMARK  status: ('A' for Active; 'I' for Inactive)
REMARK    1  A    between atoms: C_1  and  O_2
REMARK    2  A    between atoms: O_2  and  C_3
REMARK    3  A    between atoms: C_6  and  C_7
REMARK    4  A    between atoms: C_15  and  C_16
REMARK    5  A    between atoms: C_19  and  O_20
REMARK    6  A    between atoms: O_20  and  C_21
REMARK    7  A    between atoms: C_22  and  O_23
REMARK    8  A    between atoms: C_28  and  O_29
REMARK                            x       y       z     vdW  Elec       q    Type
REMARK                         _______ _______ _______ _____ _____    ______ ____
ROOT
ATOM      1  C   UNL     1      -0.185   9.528  17.890  0.00  0.00    +0.000 C 
ATOM      2  C   UNL     1       0.579   9.717  18.982  0.00  0.00    +0.000 C 
ATOM      3  C   UNL     1       0.329  10.697  20.080  0.00  0.00    +0.000 C 
ATOM      4  S   UNL     1      -0.044   9.759  21.541  0.00  0.00    +0.000 S 
ATOM      5  O   UNL     1      -1.104   8.800  21.255  0.00  0.00    +0.000 OA
ATOM      6  O   UNL     1      -0.173  10.687  22.647  0.00  0.00    +0.000 OA
ATOM      7  C   UNL     1       1.478   8.886  21.749  0.00  0.00    +0.000 C 
ATOM      8  C   UNL     1       1.809   8.110  20.509  0.00  0.00    +0.000 C 
ATOM      9  C   UNL     1       2.190   6.825  20.625  0.00  0.00    +0.000 C 
ATOM     10  C   UNL     1       1.761   8.822  19.179  0.00  0.00    +0.000 C 
ATOM     11  O   UNL     1       2.636   8.726  18.331  0.00  0.00    +0.000 OA
ENDROOT
BRANCH   1  15
ATOM     12  C   UNL     1      -3.991  11.495  17.500  0.00  0.00    +0.000 A 
ATOM     13  C   UNL     1      -3.614  10.501  16.584  0.00  0.00    +0.000 A 
ATOM     14  C   UNL     1      -2.385   9.830  16.692  0.00  0.00    +0.000 A 
ATOM     15  C   UNL     1      -1.519  10.130  17.743  0.00  0.00    +0.000 A 
ATOM     16  C   UNL     1      -1.903  11.102  18.676  0.00  0.00    +0.000 A 
ATOM     17  C   UNL     1      -3.112  11.797  18.542  0.00  0.00    +0.000 A 
BRANCH  12  19
ATOM     18  C   UNL     1      -6.354  11.533  17.893  0.00  0.00    +0.000 C 
ATOM     19  O   UNL     1      -5.210  12.060  17.230  0.00  0.00    +0.000 OA
ENDBRANCH  12  19
BRANCH  17  20
ATOM     20  O   UNL     1      -3.380  12.783  19.452  0.00  0.00    +0.000 OA
ATOM     21  H   UNL     1      -2.727  13.494  19.341  0.00  0.00    +0.000 HD
ENDBRANCH  17  20
ENDBRANCH   1  15
BRANCH   9  22
ATOM     22  C   UNL     1       2.690   5.976  19.550  0.00  0.00    +0.000 A 
ATOM     23  C   UNL     1       4.067   5.981  19.300  0.00  0.00    +0.000 A 
ATOM     24  C   UNL     1       4.602   5.209  18.271  0.00  0.00    +0.000 A 
ATOM     25  C   UNL     1       3.763   4.420  17.488  0.00  0.00    +0.000 A 
ATOM     26  C   UNL     1       2.389   4.408  17.765  0.00  0.00    +0.000 A 
ATOM     27  C   UNL     1       1.842   5.175  18.787  0.00  0.00    +0.000 A 
BRANCH  25  28
ATOM     28  O   UNL     1       4.162   3.630  16.439  0.00  0.00    +0.000 OA
ATOM     29  C   UNL     1       5.390   3.998  15.821  0.00  0.00    +0.000 C 
ENDBRANCH  25  28
BRANCH  26  30
ATOM     30  O   UNL     1       1.544   3.627  17.022  0.00  0.00    +0.000 OA
ATOM     31  H   UNL     1       2.024   3.464  16.186  0.00  0.00    +0.000 HD
ENDBRANCH  26  30
ENDBRANCH   9  22
TORSDOF 6
ENDMDL
MODEL 4
REMARK VINA RESULT:      -7.5      1.127      1.296
REMARK  Name = 
REMARK  8 active torsions:
REMARK  status: ('A' for Active; 'I' for Inactive)
REMARK    1  A    between atoms: C_1  and  O_2
REMARK    2  A    between atoms: O_2  and  C_3
REMARK    3  A    between atoms: C_6  and  C_7
REMARK    4  A    between atoms: C_15  and  C_16
REMARK    5  A    between atoms: C_19  and  O_20
REMARK    6  A    between atoms: O_20  and  C_21
REMARK    7  A    between atoms: C_22  and  O_23
REMARK    8  A    between atoms: C_28  and  O_29
REMARK                            x       y       z     vdW  Elec       q    Type
REMARK                         _______ _______ _______ _____ _____    ______ ____
ROOT
ATOM      1  C   UNL     1      -0.498   9.354  17.718  0.00  0.00    +0.000 C 
ATOM      2  C   UNL     1       0.448   9.730  18.599  0.00  0.00    +0.000 C 
ATOM      3  C   UNL     1       0.537  11.046  19.298  0.00  0.00    +0.000 C 
ATOM      4  S   UNL     1       0.248  10.742  21.023  0.00  0.00    +0.000 S 
ATOM      5  O   UNL     1      -0.985   9.984  21.192  0.00  0.00    +0.000 OA
ATOM      6  O   UNL     1       0.448  11.988  21.736  0.00  0.00    +0.000 OA
ATOM      7  C   UNL     1       1.621   9.691  21.389  0.00  0.00    +0.000 C 
ATOM      8  C   UNL     1       1.622   8.498  20.478  0.00  0.00    +0.000 C 
ATOM      9  C   UNL     1       1.801   7.274  21.007  0.00  0.00    +0.000 C 
ATOM     10  C   UNL     1       1.484   8.726  18.993  0.00  0.00    +0.000 C 
ATOM     11  O   UNL     1       2.188   8.176  18.159  0.00  0.00    +0.000 OA
ENDROOT
BRANCH   1  15
ATOM     12  C   UNL     1      -4.175  11.454  16.958  0.00  0.00    +0.000 A 
ATOM     13  C   UNL     1      -3.516  11.609  18.188  0.00  0.00    +0.000 A 
ATOM     14  C   UNL     1      -2.307  10.948  18.461  0.00  0.00    +0.000 A 
ATOM     15  C   UNL     1      -1.722  10.137  17.489  0.00  0.00    +0.000 A 
ATOM     16  C   UNL     1      -2.362  10.001  16.251  0.00  0.00    +0.000 A 
ATOM     17  C   UNL     1      -3.588  10.630  15.996  0.00  0.00    +0.000 A 
BRANCH  12  19
ATOM     18  C   UNL     1      -6.364  11.877  17.835  0.00  0.00    +0.000 C 
ATOM     19  O   UNL     1      -5.351  12.151  16.872  0.00  0.00    +0.000 OA
ENDBRANCH  12  19
BRANCH  17  20
ATOM     20  O   UNL     1      -4.186  10.388  14.790  0.00  0.00    +0.000 OA
ATOM     21  H   UNL     1      -5.111  10.137  14.946  0.00  0.00    +0.000 HD
ENDBRANCH  17  20
ENDBRANCH   1  15
BRANCH   9  22
ATOM     22  C   UNL     1       1.981   6.034  20.262  0.00  0.00    +0.000 A 
ATOM     23  C   UNL     1       3.156   5.883  19.518  0.00  0.00    +0.000 A 
ATOM     24  C   UNL     1       3.376   4.730  18.767  0.00  0.00    +0.000 A 
ATOM     25  C   UNL     1       2.421   3.716  18.759  0.00  0.00    +0.000 A 
ATOM     26  C   UNL     1       1.259   3.872  19.527  0.00  0.00    +0.000 A 
ATOM     27  C   UNL     1       1.026   5.018  20.279  0.00  0.00    +0.000 A 
BRANCH  25  28
ATOM     28  O   UNL     1       2.509   2.544  18.051  0.00  0.00    +0.000 OA
ATOM     29  C   UNL     1       3.510   1.631  18.489  0.00  0.00    +0.000 C 
ENDBRANCH  25  28
BRANCH  26  30
ATOM     30  O   UNL     1       0.312   2.882  19.551  0.00  0.00    +0.000 OA
ATOM     31  H   UNL     1      -0.526   3.343  19.756  0.00  0.00    +0.000 HD
ENDBRANCH  26  30
ENDBRANCH   9  22
TORSDOF 6
ENDMDL
MODEL 5
REMARK VINA RESULT:      -7.1      3.068      8.821
REMARK  Name = 
REMARK  8 active torsions:
REMARK  status: ('A' for Active; 'I' for Inactive)
REMARK    1  A    between atoms: C_1  and  O_2
REMARK    2  A    between atoms: O_2  and  C_3
REMARK    3  A    between atoms: C_6  and  C_7
REMARK    4  A    between atoms: C_15  and  C_16
REMARK    5  A    between atoms: C_19  and  O_20
REMARK    6  A    between atoms: O_20  and  C_21
REMARK    7  A    between atoms: C_22  and  O_23
REMARK    8  A    between atoms: C_28  and  O_29
REMARK                            x       y       z     vdW  Elec       q    Type
REMARK                         _______ _______ _______ _____ _____    ______ ____
ROOT
ATOM      1  C   UNL     1      -0.054   9.903  20.606  0.00  0.00    +0.000 C 
ATOM      2  C   UNL     1       0.235  11.157  21.001  0.00  0.00    +0.000 C 
ATOM      3  C   UNL     1       1.569  11.822  20.936  0.00  0.00    +0.000 C 
ATOM      4  S   UNL     1       1.442  13.131  19.743  0.00  0.00    +0.000 S 
ATOM      5  O   UNL     1       0.900  12.611  18.495  0.00  0.00    +0.000 OA
ATOM      6  O   UNL     1       2.691  13.866  19.751  0.00  0.00    +0.000 OA
ATOM      7  C   UNL     1       0.220  14.145  20.521  0.00  0.00    +0.000 C 
ATOM      8  C   UNL     1      -1.022  13.349  20.793  0.00  0.00    +0.000 C 
ATOM      9  C   UNL     1      -2.217  13.868  20.457  0.00  0.00    +0.000 C 
ATOM     10  C   UNL     1      -0.886  12.017  21.490  0.00  0.00    +0.000 C 
ATOM     11  O   UNL     1      -1.599  11.668  22.420  0.00  0.00    +0.000 OA
ENDROOT
BRANCH   1  15
ATOM     12  C   UNL     1       2.607   7.305  18.443  0.00  0.00    +0.000 A 
ATOM     13  C   UNL     1       2.016   8.403  17.799  0.00  0.00    +0.000 A 
ATOM     14  C   UNL     1       1.154   9.278  18.481  0.00  0.00    +0.000 A 
ATOM     15  C   UNL     1       0.891   9.079  19.835  0.00  0.00    +0.000 A 
ATOM     16  C   UNL     1       1.500   8.000  20.489  0.00  0.00    +0.000 A 
ATOM     17  C   UNL     1       2.327   7.107  19.796  0.00  0.00    +0.000 A 
BRANCH  12  19
ATOM     18  C   UNL     1       4.675   7.062  17.258  0.00  0.00    +0.000 C 
ATOM     19  O   UNL     1       3.399   6.546  17.622  0.00  0.00    +0.000 OA
ENDBRANCH  12  19
BRANCH  17  20
ATOM     20  O   UNL     1       2.825   6.037  20.489  0.00  0.00    +0.000 OA
ATOM     21  H   UNL     1       2.089   5.585  20.934  0.00  0.00    +0.000 HD
ENDBRANCH  17  20
ENDBRANCH   1  15
BRANCH   9  22
ATOM     22  C   UNL     1      -3.522  13.306  20.785  0.00  0.00    +0.000 A 
ATOM     23  C   UNL     1      -4.165  12.536  19.810  0.00  0.00    +0.000 A 
ATOM     24  C   UNL     1      -5.424  11.991  20.055  0.00  0.00    +0.000 A 
ATOM     25  C   UNL     1      -6.047  12.210  21.282  0.00  0.00    +0.000 A 
ATOM     26  C   UNL     1      -5.380  12.964  22.257  0.00  0.00    +0.000 A 
ATOM     27  C   UNL     1      -4.125  13.515  22.024  0.00  0.00    +0.000 A 
BRANCH  25  28
ATOM     28  O   UNL     1      -7.287  11.744  21.640  0.00  0.00    +0.000 OA
ATOM     29  C   UNL     1      -7.772  10.637  20.889  0.00  0.00    +0.000 C 
ENDBRANCH  25  28
BRANCH  26  30
ATOM     30  O   UNL     1      -5.961  13.179  23.479  0.00  0.00    +0.000 OA
ATOM     31  H   UNL     1      -6.922  13.178  23.301  0.00  0.00    +0.000 HD
ENDBRANCH  26  30
ENDBRANCH   9  22
TORSDOF 6
ENDMDL
MODEL 6
REMARK VINA RESULT:      -7.1      1.056      1.933
REMARK  Name = 
REMARK  8 active torsions:
REMARK  status: ('A' for Active; 'I' for Inactive)
REMARK    1  A    between atoms: C_1  and  O_2
REMARK    2  A    between atoms: O_2  and  C_3
REMARK    3  A    between atoms: C_6  and  C_7
REMARK    4  A    between atoms: C_15  and  C_16
REMARK    5  A    between atoms: C_19  and  O_20
REMARK    6  A    between atoms: O_20  and  C_21
REMARK    7  A    between atoms: C_22  and  O_23
REMARK    8  A    between atoms: C_28  and  O_29
REMARK                            x       y       z     vdW  Elec       q    Type
REMARK                         _______ _______ _______ _____ _____    ______ ____
ROOT
ATOM      1  C   UNL     1      -0.459   9.451  17.721  0.00  0.00    +0.000 C 
ATOM      2  C   UNL     1       0.412   9.798  18.687  0.00  0.00    +0.000 C 
ATOM      3  C   UNL     1       0.338  11.011  19.555  0.00  0.00    +0.000 C 
ATOM      4  S   UNL     1       0.027  10.449  21.210  0.00  0.00    +0.000 S 
ATOM      5  O   UNL     1      -1.124   9.555  21.221  0.00  0.00    +0.000 OA
ATOM      6  O   UNL     1       0.069  11.601  22.088  0.00  0.00    +0.000 OA
ATOM      7  C   UNL     1       1.491   9.503  21.499  0.00  0.00    +0.000 C 
ATOM      8  C   UNL     1       1.649   8.450  20.442  0.00  0.00    +0.000 C 
ATOM      9  C   UNL     1       1.939   7.190  20.813  0.00  0.00    +0.000 C 
ATOM     10  C   UNL     1       1.535   8.860  18.994  0.00  0.00    +0.000 C 
ATOM     11  O   UNL     1       2.321   8.501  18.129  0.00  0.00    +0.000 OA
ENDROOT
BRANCH   1  15
ATOM     12  C   UNL     1      -4.137  11.634  17.260  0.00  0.00    +0.000 A 
ATOM     13  C   UNL     1      -3.727  10.727  16.270  0.00  0.00    +0.000 A 
ATOM     14  C   UNL     1      -2.539   9.989  16.398  0.00  0.00    +0.000 A 
ATOM     15  C   UNL     1      -1.752  10.130  17.540  0.00  0.00    +0.000 A 
ATOM     16  C   UNL     1      -2.172  11.013  18.543  0.00  0.00    +0.000 A 
ATOM     17  C   UNL     1      -3.336  11.777  18.394  0.00  0.00    +0.000 A 
BRANCH  12  19
ATOM     18  C   UNL     1      -6.486  11.893  17.654  0.00  0.00    +0.000 C 
ATOM     19  O   UNL     1      -5.306  12.283  16.960  0.00  0.00    +0.000 OA
ENDBRANCH  12  19
BRANCH  17  20
ATOM     20  O   UNL     1      -3.638  12.671  19.384  0.00  0.00    +0.000 OA
ATOM     21  H   UNL     1      -3.425  12.269  20.242  0.00  0.00    +0.000 HD
ENDBRANCH  17  20
ENDBRANCH   1  15
BRANCH   9  22
ATOM     22  C   UNL     1       2.275   6.086  19.922  0.00  0.00    +0.000 A 
ATOM     23  C   UNL     1       1.292   5.120  19.678  0.00  0.00    +0.000 A 
ATOM     24  C   UNL     1       1.560   4.029  18.854  0.00  0.00    +0.000 A 
ATOM     25  C   UNL     1       2.815   3.900  18.262  0.00  0.00    +0.000 A 
ATOM     26  C   UNL     1       3.781   4.887  18.497  0.00  0.00    +0.000 A 
ATOM     27  C   UNL     1       3.528   5.979  19.320  0.00  0.00    +0.000 A 
BRANCH  25  28
ATOM     28  O   UNL     1       3.209   2.869  17.447  0.00  0.00    +0.000 OA
ATOM     29  C   UNL     1       3.480   1.633  18.100  0.00  0.00    +0.000 C 
ENDBRANCH  25  28
BRANCH  26  30
ATOM     30  O   UNL     1       5.017   4.794  17.913  0.00  0.00    +0.000 OA
ATOM     31  H   UNL     1       4.938   5.297  17.080  0.00  0.00    +0.000 HD
ENDBRANCH  26  30
ENDBRANCH   9  22
TORSDOF 6
ENDMDL
MODEL 7
REMARK VINA RESULT:      -7.1      3.157      8.867
REMARK  Name = 
REMARK  8 active torsions:
REMARK  status: ('A' for Active; 'I' for Inactive)
REMARK    1  A    between atoms: C_1  and  O_2
REMARK    2  A    between atoms: O_2  and  C_3
REMARK    3  A    between atoms: C_6  and  C_7
REMARK    4  A    between atoms: C_15  and  C_16
REMARK    5  A    between atoms: C_19  and  O_20
REMARK    6  A    between atoms: O_20  and  C_21
REMARK    7  A    between atoms: C_22  and  O_23
REMARK    8  A    between atoms: C_28  and  O_29
REMARK                            x       y       z     vdW  Elec       q    Type
REMARK                         _______ _______ _______ _____ _____    ______ ____
ROOT
ATOM      1  C   UNL     1      -0.028  10.134  20.641  0.00  0.00    +0.000 C 
ATOM      2  C   UNL     1       0.296  11.393  20.991  0.00  0.00    +0.000 C 
ATOM      3  C   UNL     1       1.636  12.036  20.849  0.00  0.00    +0.000 C 
ATOM      4  S   UNL     1       1.474  13.316  19.630  0.00  0.00    +0.000 S 
ATOM      5  O   UNL     1       0.868  12.774  18.420  0.00  0.00    +0.000 OA
ATOM      6  O   UNL     1       2.732  14.032  19.563  0.00  0.00    +0.000 OA
ATOM      7  C   UNL     1       0.303  14.367  20.435  0.00  0.00    +0.000 C 
ATOM      8  C   UNL     1      -0.937  13.598  20.783  0.00  0.00    +0.000 C 
ATOM      9  C   UNL     1      -2.138  14.127  20.488  0.00  0.00    +0.000 C 
ATOM     10  C   UNL     1      -0.789  12.283  21.507  0.00  0.00    +0.000 C 
ATOM     11  O   UNL     1      -1.464  11.968  22.477  0.00  0.00    +0.000 OA
ENDROOT
BRANCH   1  15
ATOM     12  C   UNL     1       2.486   7.442  18.418  0.00  0.00    +0.000 A 
ATOM     13  C   UNL     1       1.941   8.575  17.794  0.00  0.00    +0.000 A 
ATOM     14  C   UNL     1       1.128   9.480  18.496  0.00  0.00    +0.000 A 
ATOM     15  C   UNL     1       0.869   9.276  19.850  0.00  0.00    +0.000 A 
ATOM     16  C   UNL     1       1.434   8.162  20.485  0.00  0.00    +0.000 A 
ATOM     17  C   UNL     1       2.211   7.240  19.772  0.00  0.00    +0.000 A 
BRANCH  12  19
ATOM     18  C   UNL     1       4.607   6.984  17.403  0.00  0.00    +0.000 C 
ATOM     19  O   UNL     1       3.233   6.657  17.579  0.00  0.00    +0.000 OA
ENDBRANCH  12  19
BRANCH  17  20
ATOM     20  O   UNL     1       2.664   6.139  20.445  0.00  0.00    +0.000 OA
ATOM     21  H   UNL     1       1.909   5.707  20.880  0.00  0.00    +0.000 HD
ENDBRANCH  17  20
ENDBRANCH   1  15
BRANCH   9  22
ATOM     22  C   UNL     1      -3.435  13.594  20.888  0.00  0.00    +0.000 A 
ATOM     23  C   UNL     1      -3.943  13.977  22.133  0.00  0.00    +0.000 A 
ATOM     24  C   UNL     1      -5.167  13.482  22.581  0.00  0.00    +0.000 A 
ATOM     25  C   UNL     1      -5.893  12.603  21.781  0.00  0.00    +0.000 A 
ATOM     26  C   UNL     1      -5.382  12.247  20.526  0.00  0.00    +0.000 A 
ATOM     27  C   UNL     1      -4.162  12.731  20.068  0.00  0.00    +0.000 A 
BRANCH  25  28
ATOM     28  O   UNL     1      -7.098  12.035  22.113  0.00  0.00    +0.000 OA
ATOM     29  C   UNL     1      -7.760  12.602  23.237  0.00  0.00    +0.000 C 
ENDBRANCH  25  28
BRANCH  26  30
ATOM     30  O   UNL     1      -6.085  11.398  19.712  0.00  0.00    +0.000 OA
ATOM     31  H   UNL     1      -6.555  11.984  19.087  0.00  0.00    +0.000 HD
ENDBRANCH  26  30
ENDBRANCH   9  22
TORSDOF 6
ENDMDL
MODEL 8
REMARK VINA RESULT:      -7.0      0.891      1.825
REMARK  Name = 
REMARK  8 active torsions:
REMARK  status: ('A' for Active; 'I' for Inactive)
REMARK    1  A    between atoms: C_1  and  O_2
REMARK    2  A    between atoms: O_2  and  C_3
REMARK    3  A    between atoms: C_6  and  C_7
REMARK    4  A    between atoms: C_15  and  C_16
REMARK    5  A    between atoms: C_19  and  O_20
REMARK    6  A    between atoms: O_20  and  C_21
REMARK    7  A    between atoms: C_22  and  O_23
REMARK    8  A    between atoms: C_28  and  O_29
REMARK                            x       y       z     vdW  Elec       q    Type
REMARK                         _______ _______ _______ _____ _____    ______ ____
ROOT
ATOM      1  C   UNL     1       0.009   9.414  17.912  0.00  0.00    +0.000 C 
ATOM      2  C   UNL     1       0.723   9.576  19.041  0.00  0.00    +0.000 C 
ATOM      3  C   UNL     1       0.433  10.538  20.146  0.00  0.00    +0.000 C 
ATOM      4  S   UNL     1      -0.014   9.576  21.570  0.00  0.00    +0.000 S 
ATOM      5  O   UNL     1      -1.068   8.632  21.219  0.00  0.00    +0.000 OA
ATOM      6  O   UNL     1      -0.184  10.484  22.686  0.00  0.00    +0.000 OA
ATOM      7  C   UNL     1       1.490   8.685  21.830  0.00  0.00    +0.000 C 
ATOM      8  C   UNL     1       1.870   7.930  20.591  0.00  0.00    +0.000 C 
ATOM      9  C   UNL     1       2.234   6.639  20.700  0.00  0.00    +0.000 C 
ATOM     10  C   UNL     1       1.888   8.667  19.274  0.00  0.00    +0.000 C 
ATOM     11  O   UNL     1       2.800   8.578  18.465  0.00  0.00    +0.000 OA
ENDROOT
BRANCH   1  15
ATOM     12  C   UNL     1      -3.756  11.425  17.375  0.00  0.00    +0.000 A 
ATOM     13  C   UNL     1      -3.378  10.392  16.504  0.00  0.00    +0.000 A 
ATOM     14  C   UNL     1      -2.163   9.706  16.661  0.00  0.00    +0.000 A 
ATOM     15  C   UNL     1      -1.313  10.031  17.717  0.00  0.00    +0.000 A 
ATOM     16  C   UNL     1      -1.699  11.043  18.606  0.00  0.00    +0.000 A 
ATOM     17  C   UNL     1      -2.893  11.752  18.423  0.00  0.00    +0.000 A 
BRANCH  12  19
ATOM     18  C   UNL     1      -6.116  11.562  17.768  0.00  0.00    +0.000 C 
ATOM     19  O   UNL     1      -4.960  11.999  17.060  0.00  0.00    +0.000 OA
ENDBRANCH  12  19
BRANCH  17  20
ATOM     20  O   UNL     1      -3.162  12.775  19.290  0.00  0.00    +0.000 OA
ATOM     21  H   UNL     1      -2.386  13.357  19.334  0.00  0.00    +0.000 HD
ENDBRANCH  17  20
ENDBRANCH   1  15
BRANCH   9  22
ATOM     22  C   UNL     1       2.775   5.805  19.633  0.00  0.00    +0.000 A 
ATOM     23  C   UNL     1       1.917   5.438  18.590  0.00  0.00    +0.000 A 
ATOM     24  C   UNL     1       2.370   4.624  17.554  0.00  0.00    +0.000 A 
ATOM     25  C   UNL     1       3.688   4.174  17.552  0.00  0.00    +0.000 A 
ATOM     26  C   UNL     1       4.542   4.569  18.590  0.00  0.00    +0.000 A 
ATOM     27  C   UNL     1       4.103   5.379  19.631  0.00  0.00    +0.000 A 
BRANCH  25  28
ATOM     28  O   UNL     1       4.250   3.358  16.602  0.00  0.00    +0.000 OA
ATOM     29  C   UNL     1       5.031   4.012  15.608  0.00  0.00    +0.000 C 
ENDBRANCH  25  28
BRANCH  26  30
ATOM     30  O   UNL     1       5.848   4.156  18.603  0.00  0.00    +0.000 OA
ATOM     31  H   UNL     1       6.371   4.979  18.538  0.00  0.00    +0.000 HD
ENDBRANCH  26  30
ENDBRANCH   9  22
TORSDOF 6
ENDMDL
MODEL 9
REMARK VINA RESULT:      -7.0      0.632      1.264
REMARK  Name = 
REMARK  8 active torsions:
REMARK  status: ('A' for Active; 'I' for Inactive)
REMARK    1  A    between atoms: C_1  and  O_2
REMARK    2  A    between atoms: O_2  and  C_3
REMARK    3  A    between atoms: C_6  and  C_7
REMARK    4  A    between atoms: C_15  and  C_16
REMARK    5  A    between atoms: C_19  and  O_20
REMARK    6  A    between atoms: O_20  and  C_21
REMARK    7  A    between atoms: C_22  and  O_23
REMARK    8  A    between atoms: C_28  and  O_29
REMARK                            x       y       z     vdW  Elec       q    Type
REMARK                         _______ _______ _______ _____ _____    ______ ____
ROOT
ATOM      1  C   UNL     1       0.047   9.511  17.945  0.00  0.00    +0.000 C 
ATOM      2  C   UNL     1       0.751   9.644  19.085  0.00  0.00    +0.000 C 
ATOM      3  C   UNL     1       0.482  10.614  20.187  0.00  0.00    +0.000 C 
ATOM      4  S   UNL     1      -0.023   9.669  21.603  0.00  0.00    +0.000 S 
ATOM      5  O   UNL     1      -1.107   8.767  21.234  0.00  0.00    +0.000 OA
ATOM      6  O   UNL     1      -0.174  10.581  22.718  0.00  0.00    +0.000 OA
ATOM      7  C   UNL     1       1.442   8.720  21.883  0.00  0.00    +0.000 C 
ATOM      8  C   UNL     1       1.811   7.952  20.648  0.00  0.00    +0.000 C 
ATOM      9  C   UNL     1       2.123   6.648  20.759  0.00  0.00    +0.000 C 
ATOM     10  C   UNL     1       1.876   8.690  19.333  0.00  0.00    +0.000 C 
ATOM     11  O   UNL     1       2.795   8.567  18.537  0.00  0.00    +0.000 OA
ENDROOT
BRANCH   1  15
ATOM     12  C   UNL     1      -3.821  11.262  17.252  0.00  0.00    +0.000 A 
ATOM     13  C   UNL     1      -3.116  11.554  18.430  0.00  0.00    +0.000 A 
ATOM     14  C   UNL     1      -1.846  11.010  18.679  0.00  0.00    +0.000 A 
ATOM     15  C   UNL     1      -1.247  10.180  17.733  0.00  0.00    +0.000 A 
ATOM     16  C   UNL     1      -1.935   9.907  16.543  0.00  0.00    +0.000 A 
ATOM     17  C   UNL     1      -3.219  10.419  16.316  0.00  0.00    +0.000 A 
BRANCH  12  19
ATOM     18  C   UNL     1      -6.110  11.300  17.958  0.00  0.00    +0.000 C 
ATOM     19  O   UNL     1      -5.053  11.859  17.185  0.00  0.00    +0.000 OA
ENDBRANCH  12  19
BRANCH  17  20
ATOM     20  O   UNL     1      -3.854  10.047  15.163  0.00  0.00    +0.000 OA
ATOM     21  H   UNL     1      -3.504   9.186  14.879  0.00  0.00    +0.000 HD
ENDBRANCH  17  20
ENDBRANCH   1  15
BRANCH   9  22
ATOM     22  C   UNL     1       2.647   5.796  19.698  0.00  0.00    +0.000 A 
ATOM     23  C   UNL     1       1.781   5.438  18.659  0.00  0.00    +0.000 A 
ATOM     24  C   UNL     1       2.217   4.607  17.628  0.00  0.00    +0.000 A 
ATOM     25  C   UNL     1       3.526   4.131  17.629  0.00  0.00    +0.000 A 
ATOM     26  C   UNL     1       4.388   4.517  18.664  0.00  0.00    +0.000 A 
ATOM     27  C   UNL     1       3.965   5.344  19.699  0.00  0.00    +0.000 A 
BRANCH  25  28
ATOM     28  O   UNL     1       4.071   3.297  16.685  0.00  0.00    +0.000 OA
ATOM     29  C   UNL     1       4.920   3.918  15.727  0.00  0.00    +0.000 C 
ENDBRANCH  25  28
BRANCH  26  30
ATOM     30  O   UNL     1       5.686   4.079  18.679  0.00  0.00    +0.000 OA
ATOM     31  H   UNL     1       6.179   4.740  18.155  0.00  0.00    +0.000 HD
ENDBRANCH  26  30
ENDBRANCH   9  22
TORSDOF 6
ENDMDL
