MODEL 1
REMARK VINA RESULT:      -7.0      0.000      0.000
REMARK  Name = 
REMARK  10 active torsions:
REMARK  status: ('A' for Active; 'I' for Inactive)
REMARK    1  A    between atoms: C_1  and  O_2
REMARK    2  A    between atoms: O_2  and  C_3
REMARK    3  A    between atoms: C_8  and  C_9
REMARK    4  A    between atoms: C_9  and  C_11
REMARK    5  A    between atoms: C_12  and  C_13
REMARK    6  A    between atoms: C_16  and  C_17
REMARK    7  A    between atoms: C_17  and  C_18
REMARK    8  A    between atoms: C_18  and  N_19
REMARK    9  A    between atoms: N_19  and  C_20
REMARK   10  A    between atoms: N_19  and  C_21
REMARK                            x       y       z     vdW  Elec       q    Type
REMARK                         _______ _______ _______ _____ _____    ______ ____
ROOT
ATOM      1  C   UNL     1       2.453   4.023  17.722  0.00  0.00    +0.000 C 
ATOM      2  O   UNL     1       1.727   3.134  17.292  0.00  0.00    +0.000 OA
ENDROOT
BRANCH   1   8
ATOM      3  C   UNL     1       4.618   3.709  19.023  0.00  0.00    +0.000 A 
ATOM      4  C   UNL     1       5.919   4.190  19.125  0.00  0.00    +0.000 A 
ATOM      5  C   UNL     1       6.482   4.744  17.978  0.00  0.00    +0.000 A 
ATOM      6  C   UNL     1       5.903   4.589  16.715  0.00  0.00    +0.000 A 
ATOM      7  C   UNL     1       4.615   4.130  16.599  0.00  0.00    +0.000 A 
ATOM      8  C   UNL     1       3.937   3.839  17.792  0.00  0.00    +0.000 A 
ATOM      9  S   UNL     1       6.818   5.461  15.496  0.00  0.00    +0.000 S 
ATOM     10  C   UNL     1       7.392   6.469  16.875  0.00  0.00    +0.000 C 
ATOM     11  O   UNL     1       7.546   5.629  18.047  0.00  0.00    +0.000 OA
BRANCH   3  13
ATOM     12  C   UNL     1       4.413   1.989  20.684  0.00  0.00    +0.000 C 
ATOM     13  O   UNL     1       3.901   3.148  20.042  0.00  0.00    +0.000 OA
ENDBRANCH   3  13
ENDBRANCH   1   8
BRANCH   1  14
ATOM     14  C   UNL     1       1.927   5.387  18.027  0.00  0.00    +0.000 C 
ATOM     15  C   UNL     1       2.488   6.162  18.957  0.00  0.00    +0.000 C 
BRANCH  15  16
ATOM     16  C   UNL     1       2.095   7.563  19.041  0.00  0.00    +0.000 A 
ATOM     17  C   UNL     1       1.535   8.114  20.199  0.00  0.00    +0.000 A 
ATOM     18  C   UNL     1       1.067   9.432  20.184  0.00  0.00    +0.000 A 
ATOM     19  C   UNL     1       1.160  10.214  19.020  0.00  0.00    +0.000 A 
ATOM     20  C   UNL     1       1.738   9.658  17.874  0.00  0.00    +0.000 A 
ATOM     21  C   UNL     1       2.203   8.345  17.889  0.00  0.00    +0.000 A 
BRANCH  19  22
ATOM     22  C   UNL     1       0.569  11.605  18.964  0.00  0.00    +0.000 C 
BRANCH  22  23
ATOM     23  C   UNL     1      -0.679  11.773  19.847  0.00  0.00    +0.000 C 
BRANCH  23  24
ATOM     24  N   UNL     1      -1.859  12.295  19.126  0.00  0.00    +0.000 NA
ATOM     25  C   UNL     1      -2.337  11.367  18.098  0.00  0.00    +0.000 C 
ATOM     26  C   UNL     1      -2.937  12.563  20.083  0.00  0.00    +0.000 C 
ENDBRANCH  23  24
ENDBRANCH  22  23
ENDBRANCH  19  22
ENDBRANCH  15  16
ENDBRANCH   1  14
TORSDOF 7
ENDMDL
MODEL 2
REMARK VINA RESULT:      -7.0      2.151      3.194
REMARK  Name = 
REMARK  10 active torsions:
REMARK  status: ('A' for Active; 'I' for Inactive)
REMARK    1  A    between atoms: C_1  and  O_2
REMARK    2  A    between atoms: O_2  and  C_3
REMARK    3  A    between atoms: C_8  and  C_9
REMARK    4  A    between atoms: C_9  and  C_11
REMARK    5  A    between atoms: C_12  and  C_13
REMARK    6  A    between atoms: C_16  and  C_17
REMARK    7  A    between atoms: C_17  and  C_18
REMARK    8  A    between atoms: C_18  and  N_19
REMARK    9  A    between atoms: N_19  and  C_20
REMARK   10  A    between atoms: N_19  and  C_21
REMARK                            x       y       z     vdW  Elec       q    Type
REMARK                         _______ _______ _______ _____ _____    ______ ____
ROOT
ATOM      1  C   UNL     1       2.392   5.863  19.965  0.00  0.00    +0.000 C 
ATOM      2  O   UNL     1       2.419   5.004  20.840  0.00  0.00    +0.000 OA
ENDROOT
BRANCH   1   8
ATOM      3  C   UNL     1       2.541   4.388  17.896  0.00  0.00    +0.000 A 
ATOM      4  C   UNL     1       3.454   3.833  17.005  0.00  0.00    +0.000 A 
ATOM      5  C   UNL     1       4.657   4.510  16.825  0.00  0.00    +0.000 A 
ATOM      6  C   UNL     1       4.852   5.816  17.285  0.00  0.00    +0.000 A 
ATOM      7  C   UNL     1       3.969   6.372  18.176  0.00  0.00    +0.000 A 
ATOM      8  C   UNL     1       2.893   5.570  18.585  0.00  0.00    +0.000 A 
ATOM      9  S   UNL     1       6.491   6.356  16.960  0.00  0.00    +0.000 S 
ATOM     10  C   UNL     1       6.894   4.599  16.926  0.00  0.00    +0.000 C 
ATOM     11  O   UNL     1       5.785   3.868  16.342  0.00  0.00    +0.000 OA
BRANCH   3  13
ATOM     12  C   UNL     1       1.242   2.490  18.582  0.00  0.00    +0.000 C 
ATOM     13  O   UNL     1       1.321   3.859  18.209  0.00  0.00    +0.000 OA
ENDBRANCH   3  13
ENDBRANCH   1   8
BRANCH   1  14
ATOM     14  C   UNL     1       1.703   7.171  20.170  0.00  0.00    +0.000 C 
ATOM     15  C   UNL     1       1.091   7.469  21.318  0.00  0.00    +0.000 C 
BRANCH  15  16
ATOM     16  C   UNL     1       0.654   8.839  21.552  0.00  0.00    +0.000 A 
ATOM     17  C   UNL     1      -0.041   9.214  22.707  0.00  0.00    +0.000 A 
ATOM     18  C   UNL     1      -0.541  10.515  22.824  0.00  0.00    +0.000 A 
ATOM     19  C   UNL     1      -0.345  11.455  21.796  0.00  0.00    +0.000 A 
ATOM     20  C   UNL     1       0.366  11.073  20.655  0.00  0.00    +0.000 A 
ATOM     21  C   UNL     1       0.862   9.777  20.538  0.00  0.00    +0.000 A 
BRANCH  19  22
ATOM     22  C   UNL     1      -0.965  12.833  21.870  0.00  0.00    +0.000 C 
BRANCH  22  23
ATOM     23  C   UNL     1      -1.624  13.133  23.227  0.00  0.00    +0.000 C 
BRANCH  23  24
ATOM     24  N   UNL     1      -3.079  13.382  23.146  0.00  0.00    +0.000 NA
ATOM     25  C   UNL     1      -3.593  13.230  21.782  0.00  0.00    +0.000 C 
ATOM     26  C   UNL     1      -3.784  12.457  24.040  0.00  0.00    +0.000 C 
ENDBRANCH  23  24
ENDBRANCH  22  23
ENDBRANCH  19  22
ENDBRANCH  15  16
ENDBRANCH   1  14
TORSDOF 7
ENDMDL
MODEL 3
REMARK VINA RESULT:      -7.0      2.504      3.992
REMARK  Name = 
REMARK  10 active torsions:
REMARK  status: ('A' for Active; 'I' for Inactive)
REMARK    1  A    between atoms: C_1  and  O_2
REMARK    2  A    between atoms: O_2  and  C_3
REMARK    3  A    between atoms: C_8  and  C_9
REMARK    4  A    between atoms: C_9  and  C_11
REMARK    5  A    between atoms: C_12  and  C_13
REMARK    6  A    between atoms: C_16  and  C_17
REMARK    7  A    between atoms: C_17  and  C_18
REMARK    8  A    between atoms: C_18  and  N_19
REMARK    9  A    between atoms: N_19  and  C_20
REMARK   10  A    between atoms: N_19  and  C_21
REMARK                            x       y       z     vdW  Elec       q    Type
REMARK                         _______ _______ _______ _____ _____    ______ ____
ROOT
ATOM      1  C   UNL     1       3.752   6.598  17.709  0.00  0.00    +0.000 C 
ATOM      2  O   UNL     1       4.717   7.154  17.198  0.00  0.00    +0.000 OA
ENDROOT
BRANCH   1   8
ATOM      3  C   UNL     1       3.887   4.083  17.336  0.00  0.00    +0.000 A 
ATOM      4  C   UNL     1       3.331   2.879  17.754  0.00  0.00    +0.000 A 
ATOM      5  C   UNL     1       2.801   2.837  19.040  0.00  0.00    +0.000 A 
ATOM      6  C   UNL     1       3.044   3.844  19.979  0.00  0.00    +0.000 A 
ATOM      7  C   UNL     1       3.578   5.043  19.581  0.00  0.00    +0.000 A 
ATOM      8  C   UNL     1       3.852   5.191  18.213  0.00  0.00    +0.000 A 
ATOM      9  S   UNL     1       2.180   3.527  21.475  0.00  0.00    +0.000 S 
ATOM     10  C   UNL     1       1.080   2.538  20.444  0.00  0.00    +0.000 C 
ATOM     11  O   UNL     1       1.857   1.891  19.404  0.00  0.00    +0.000 OA
BRANCH   3  13
ATOM     12  C   UNL     1       5.796   3.955  15.888  0.00  0.00    +0.000 C 
ATOM     13  O   UNL     1       4.440   4.316  16.109  0.00  0.00    +0.000 OA
ENDBRANCH   3  13
ENDBRANCH   1   8
BRANCH   1  14
ATOM     14  C   UNL     1       2.494   7.338  18.021  0.00  0.00    +0.000 C 
ATOM     15  C   UNL     1       2.501   8.457  18.748  0.00  0.00    +0.000 C 
BRANCH  15  16
ATOM     16  C   UNL     1       1.291   9.266  18.813  0.00  0.00    +0.000 A 
ATOM     17  C   UNL     1       0.857   9.868  19.999  0.00  0.00    +0.000 A 
ATOM     18  C   UNL     1      -0.373  10.533  20.031  0.00  0.00    +0.000 A 
ATOM     19  C   UNL     1      -1.176  10.612  18.880  0.00  0.00    +0.000 A 
ATOM     20  C   UNL     1      -0.723  10.024  17.695  0.00  0.00    +0.000 A 
ATOM     21  C   UNL     1       0.501   9.359  17.665  0.00  0.00    +0.000 A 
BRANCH  19  22
ATOM     22  C   UNL     1      -2.550  11.244  18.928  0.00  0.00    +0.000 C 
BRANCH  22  23
ATOM     23  C   UNL     1      -3.540  10.627  17.926  0.00  0.00    +0.000 C 
BRANCH  23  24
ATOM     24  N   UNL     1      -3.887  11.519  16.799  0.00  0.00    +0.000 NA
ATOM     25  C   UNL     1      -3.735  10.857  15.500  0.00  0.00    +0.000 C 
ATOM     26  C   UNL     1      -5.269  11.984  16.951  0.00  0.00    +0.000 C 
ENDBRANCH  23  24
ENDBRANCH  22  23
ENDBRANCH  19  22
ENDBRANCH  15  16
ENDBRANCH   1  14
TORSDOF 7
ENDMDL
MODEL 4
REMARK VINA RESULT:      -7.0      2.243      3.882
REMARK  Name = 
REMARK  10 active torsions:
REMARK  status: ('A' for Active; 'I' for Inactive)
REMARK    1  A    between atoms: C_1  and  O_2
REMARK    2  A    between atoms: O_2  and  C_3
REMARK    3  A    between atoms: C_8  and  C_9
REMARK    4  A    between atoms: C_9  and  C_11
REMARK    5  A    between atoms: C_12  and  C_13
REMARK    6  A    between atoms: C_16  and  C_17
REMARK    7  A    between atoms: C_17  and  C_18
REMARK    8  A    between atoms: C_18  and  N_19
REMARK    9  A    between atoms: N_19  and  C_20
REMARK   10  A    between atoms: N_19  and  C_21
REMARK                            x       y       z     vdW  Elec       q    Type
REMARK                         _______ _______ _______ _____ _____    ______ ____
ROOT
ATOM      1  C   UNL     1       5.092   6.122  17.689  0.00  0.00    +0.000 C 
ATOM      2  O   UNL     1       6.248   6.519  17.582  0.00  0.00    +0.000 OA
ENDROOT
BRANCH   1   8
ATOM      3  C   UNL     1       4.374   3.849  16.796  0.00  0.00    +0.000 A 
ATOM      4  C   UNL     1       3.513   2.788  17.055  0.00  0.00    +0.000 A 
ATOM      5  C   UNL     1       3.145   2.580  18.382  0.00  0.00    +0.000 A 
ATOM      6  C   UNL     1       3.801   3.209  19.444  0.00  0.00    +0.000 A 
ATOM      7  C   UNL     1       4.642   4.266  19.206  0.00  0.00    +0.000 A 
ATOM      8  C   UNL     1       4.793   4.666  17.870  0.00  0.00    +0.000 A 
ATOM      9  S   UNL     1       3.055   2.788  20.977  0.00  0.00    +0.000 S 
ATOM     10  C   UNL     1       1.588   2.443  19.988  0.00  0.00    +0.000 C 
ATOM     11  O   UNL     1       1.995   1.882  18.714  0.00  0.00    +0.000 OA
BRANCH   3  13
ATOM     12  C   UNL     1       6.108   3.757  15.140  0.00  0.00    +0.000 C 
ATOM     13  O   UNL     1       4.830   4.213  15.560  0.00  0.00    +0.000 OA
ENDBRANCH   3  13
ENDBRANCH   1   8
BRANCH   1  14
ATOM     14  C   UNL     1       3.947   7.069  17.825  0.00  0.00    +0.000 C 
ATOM     15  C   UNL     1       3.000   6.895  18.751  0.00  0.00    +0.000 C 
BRANCH  15  16
ATOM     16  C   UNL     1       2.050   7.971  19.001  0.00  0.00    +0.000 A 
ATOM     17  C   UNL     1       1.705   8.906  18.018  0.00  0.00    +0.000 A 
ATOM     18  C   UNL     1       0.880   9.986  18.348  0.00  0.00    +0.000 A 
ATOM     19  C   UNL     1       0.386  10.140  19.655  0.00  0.00    +0.000 A 
ATOM     20  C   UNL     1       0.723   9.190  20.623  0.00  0.00    +0.000 A 
ATOM     21  C   UNL     1       1.546   8.115  20.295  0.00  0.00    +0.000 A 
BRANCH  19  22
ATOM     22  C   UNL     1      -0.425  11.356  20.044  0.00  0.00    +0.000 C 
BRANCH  22  23
ATOM     23  C   UNL     1       0.067  12.028  21.338  0.00  0.00    +0.000 C 
BRANCH  23  24
ATOM     24  N   UNL     1      -0.999  12.267  22.333  0.00  0.00    +0.000 NA
ATOM     25  C   UNL     1      -2.239  12.745  21.715  0.00  0.00    +0.000 C 
ATOM     26  C   UNL     1      -1.266  11.027  23.070  0.00  0.00    +0.000 C 
ENDBRANCH  23  24
ENDBRANCH  22  23
ENDBRANCH  19  22
ENDBRANCH  15  16
ENDBRANCH   1  14
TORSDOF 7
ENDMDL
MODEL 5
REMARK VINA RESULT:      -6.9      1.837      2.470
REMARK  Name = 
REMARK  10 active torsions:
REMARK  status: ('A' for Active; 'I' for Inactive)
REMARK    1  A    between atoms: C_1  and  O_2
REMARK    2  A    between atoms: O_2  and  C_3
REMARK    3  A    between atoms: C_8  and  C_9
REMARK    4  A    between atoms: C_9  and  C_11
REMARK    5  A    between atoms: C_12  and  C_13
REMARK    6  A    between atoms: C_16  and  C_17
REMARK    7  A    between atoms: C_17  and  C_18
REMARK    8  A    between atoms: C_18  and  N_19
REMARK    9  A    between atoms: N_19  and  C_20
REMARK   10  A    between atoms: N_19  and  C_21
REMARK                            x       y       z     vdW  Elec       q    Type
REMARK                         _______ _______ _______ _____ _____    ______ ____
ROOT
ATOM      1  C   UNL     1       3.906   4.121  18.183  0.00  0.00    +0.000 C 
ATOM      2  O   UNL     1       3.333   3.132  18.626  0.00  0.00    +0.000 OA
ENDROOT
BRANCH   1   8
ATOM      3  C   UNL     1       6.380   4.683  17.973  0.00  0.00    +0.000 A 
ATOM      4  C   UNL     1       7.340   5.094  17.053  0.00  0.00    +0.000 A 
ATOM      5  C   UNL     1       7.120   4.766  15.718  0.00  0.00    +0.000 A 
ATOM      6  C   UNL     1       6.145   3.842  15.329  0.00  0.00    +0.000 A 
ATOM      7  C   UNL     1       5.183   3.439  16.220  0.00  0.00    +0.000 A 
ATOM      8  C   UNL     1       5.236   3.999  17.505  0.00  0.00    +0.000 A 
ATOM      9  S   UNL     1       6.077   3.704  13.579  0.00  0.00    +0.000 S 
ATOM     10  C   UNL     1       6.802   5.355  13.580  0.00  0.00    +0.000 C 
ATOM     11  O   UNL     1       7.728   5.468  14.690  0.00  0.00    +0.000 OA
BRANCH   3  13
ATOM     12  C   UNL     1       7.542   5.605  19.859  0.00  0.00    +0.000 C 
ATOM     13  O   UNL     1       6.419   4.925  19.317  0.00  0.00    +0.000 OA
ENDBRANCH   3  13
ENDBRANCH   1   8
BRANCH   1  14
ATOM     14  C   UNL     1       3.242   5.456  18.132  0.00  0.00    +0.000 C 
ATOM     15  C   UNL     1       2.665   5.994  19.209  0.00  0.00    +0.000 C 
BRANCH  15  16
ATOM     16  C   UNL     1       2.253   7.391  19.167  0.00  0.00    +0.000 A 
ATOM     17  C   UNL     1       1.627   8.017  20.250  0.00  0.00    +0.000 A 
ATOM     18  C   UNL     1       1.147   9.323  20.114  0.00  0.00    +0.000 A 
ATOM     19  C   UNL     1       1.294  10.019  18.901  0.00  0.00    +0.000 A 
ATOM     20  C   UNL     1       1.939   9.390  17.832  0.00  0.00    +0.000 A 
ATOM     21  C   UNL     1       2.415   8.088  17.968  0.00  0.00    +0.000 A 
BRANCH  19  22
ATOM     22  C   UNL     1       0.693  11.394  18.712  0.00  0.00    +0.000 C 
BRANCH  22  23
ATOM     23  C   UNL     1       1.003  12.360  19.869  0.00  0.00    +0.000 C 
BRANCH  23  24
ATOM     24  N   UNL     1       1.415  13.710  19.430  0.00  0.00    +0.000 NA
ATOM     25  C   UNL     1       0.288  14.496  18.922  0.00  0.00    +0.000 C 
ATOM     26  C   UNL     1       2.039  14.419  20.553  0.00  0.00    +0.000 C 
ENDBRANCH  23  24
ENDBRANCH  22  23
ENDBRANCH  19  22
ENDBRANCH  15  16
ENDBRANCH   1  14
TORSDOF 7
ENDMDL
MODEL 6
REMARK VINA RESULT:      -6.8      1.072      1.454
REMARK  Name = 
REMARK  10 active torsions:
REMARK  status: ('A' for Active; 'I' for Inactive)
REMARK    1  A    between atoms: C_1  and  O_2
REMARK    2  A    between atoms: O_2  and  C_3
REMARK    3  A    between atoms: C_8  and  C_9
REMARK    4  A    between atoms: C_9  and  C_11
REMARK    5  A    between atoms: C_12  and  C_13
REMARK    6  A    between atoms: C_16  and  C_17
REMARK    7  A    between atoms: C_17  and  C_18
REMARK    8  A    between atoms: C_18  and  N_19
REMARK    9  A    between atoms: N_19  and  C_20
REMARK   10  A    between atoms: N_19  and  C_21
REMARK                            x       y       z     vdW  Elec       q    Type
REMARK                         _______ _______ _______ _____ _____    ______ ____
ROOT
ATOM      1  C   UNL     1       2.586   3.915  17.809  0.00  0.00    +0.000 C 
ATOM      2  O   UNL     1       1.856   3.099  17.256  0.00  0.00    +0.000 OA
ENDROOT
BRANCH   1   8
ATOM      3  C   UNL     1       4.854   3.802  18.959  0.00  0.00    +0.000 A 
ATOM      4  C   UNL     1       6.147   4.307  18.890  0.00  0.00    +0.000 A 
ATOM      5  C   UNL     1       6.606   4.708  17.637  0.00  0.00    +0.000 A 
ATOM      6  C   UNL     1       5.931   4.379  16.458  0.00  0.00    +0.000 A 
ATOM      7  C   UNL     1       4.649   3.894  16.509  0.00  0.00    +0.000 A 
ATOM      8  C   UNL     1       4.075   3.758  17.781  0.00  0.00    +0.000 A 
ATOM      9  S   UNL     1       6.728   5.089  15.063  0.00  0.00    +0.000 S 
ATOM     10  C   UNL     1       7.387   6.280  16.245  0.00  0.00    +0.000 C 
ATOM     11  O   UNL     1       7.652   5.606  17.502  0.00  0.00    +0.000 OA
BRANCH   3  13
ATOM     12  C   UNL     1       4.378   2.018  20.491  0.00  0.00    +0.000 C 
ATOM     13  O   UNL     1       4.232   3.375  20.098  0.00  0.00    +0.000 OA
ENDBRANCH   3  13
ENDBRANCH   1   8
BRANCH   1  14
ATOM     14  C   UNL     1       2.051   5.188  18.376  0.00  0.00    +0.000 C 
ATOM     15  C   UNL     1       2.834   6.252  18.569  0.00  0.00    +0.000 C 
BRANCH  15  16
ATOM     16  C   UNL     1       2.218   7.533  18.890  0.00  0.00    +0.000 A 
ATOM     17  C   UNL     1       1.736   7.831  20.169  0.00  0.00    +0.000 A 
ATOM     18  C   UNL     1       1.049   9.028  20.390  0.00  0.00    +0.000 A 
ATOM     19  C   UNL     1       0.843   9.942  19.341  0.00  0.00    +0.000 A 
ATOM     20  C   UNL     1       1.345   9.642  18.072  0.00  0.00    +0.000 A 
ATOM     21  C   UNL     1       2.029   8.448  17.852  0.00  0.00    +0.000 A 
BRANCH  19  22
ATOM     22  C   UNL     1       0.017  11.193  19.547  0.00  0.00    +0.000 C 
BRANCH  22  23
ATOM     23  C   UNL     1      -0.405  11.411  21.010  0.00  0.00    +0.000 C 
BRANCH  23  24
ATOM     24  N   UNL     1      -0.534  12.834  21.392  0.00  0.00    +0.000 NA
ATOM     25  C   UNL     1      -0.981  12.998  22.777  0.00  0.00    +0.000 C 
ATOM     26  C   UNL     1       0.757  13.507  21.211  0.00  0.00    +0.000 C 
ENDBRANCH  23  24
ENDBRANCH  22  23
ENDBRANCH  19  22
ENDBRANCH  15  16
ENDBRANCH   1  14
TORSDOF 7
ENDMDL
MODEL 7
REMARK VINA RESULT:      -6.8      2.309      3.812
REMARK  Name = 
REMARK  10 active torsions:
REMARK  status: ('A' for Active; 'I' for Inactive)
REMARK    1  A    between atoms: C_1  and  O_2
REMARK    2  A    between atoms: O_2  and  C_3
REMARK    3  A    between atoms: C_8  and  C_9
REMARK    4  A    between atoms: C_9  and  C_11
REMARK    5  A    between atoms: C_12  and  C_13
REMARK    6  A    between atoms: C_16  and  C_17
REMARK    7  A    between atoms: C_17  and  C_18
REMARK    8  A    between atoms: C_18  and  N_19
REMARK    9  A    between atoms: N_19  and  C_20
REMARK   10  A    between atoms: N_19  and  C_21
REMARK                            x       y       z     vdW  Elec       q    Type
REMARK                         _______ _______ _______ _____ _____    ______ ____
ROOT
ATOM      1  C   UNL     1       4.454   6.466  17.680  0.00  0.00    +0.000 C 
ATOM      2  O   UNL     1       5.565   6.902  17.396  0.00  0.00    +0.000 OA
ENDROOT
BRANCH   1   8
ATOM      3  C   UNL     1       4.057   4.017  17.111  0.00  0.00    +0.000 A 
ATOM      4  C   UNL     1       3.270   2.922  17.454  0.00  0.00    +0.000 A 
ATOM      5  C   UNL     1       2.766   2.885  18.751  0.00  0.00    +0.000 A 
ATOM      6  C   UNL     1       3.231   3.740  19.755  0.00  0.00    +0.000 A 
ATOM      7  C   UNL     1       3.995   4.832  19.432  0.00  0.00    +0.000 A 
ATOM      8  C   UNL     1       4.268   5.032  18.070  0.00  0.00    +0.000 A 
ATOM      9  S   UNL     1       2.347   3.486  21.252  0.00  0.00    +0.000 S 
ATOM     10  C   UNL     1       1.047   2.833  20.188  0.00  0.00    +0.000 C 
ATOM     11  O   UNL     1       1.652   2.127  19.075  0.00  0.00    +0.000 OA
BRANCH   3  13
ATOM     12  C   UNL     1       5.955   3.790  15.660  0.00  0.00    +0.000 C 
ATOM     13  O   UNL     1       4.623   4.230  15.886  0.00  0.00    +0.000 OA
ENDBRANCH   3  13
ENDBRANCH   1   8
BRANCH   1  14
ATOM     14  C   UNL     1       3.272   7.364  17.827  0.00  0.00    +0.000 C 
ATOM     15  C   UNL     1       2.607   7.466  18.981  0.00  0.00    +0.000 C 
BRANCH  15  16
ATOM     16  C   UNL     1       1.625   8.530  19.140  0.00  0.00    +0.000 A 
ATOM     17  C   UNL     1       1.044   8.830  20.376  0.00  0.00    +0.000 A 
ATOM     18  C   UNL     1       0.020   9.781  20.449  0.00  0.00    +0.000 A 
ATOM     19  C   UNL     1      -0.426  10.446  19.293  0.00  0.00    +0.000 A 
ATOM     20  C   UNL     1       0.176  10.150  18.066  0.00  0.00    +0.000 A 
ATOM     21  C   UNL     1       1.194   9.202  17.994  0.00  0.00    +0.000 A 
BRANCH  19  22
ATOM     22  C   UNL     1      -1.596  11.402  19.346  0.00  0.00    +0.000 C 
BRANCH  22  23
ATOM     23  C   UNL     1      -1.311  12.670  20.170  0.00  0.00    +0.000 C 
BRANCH  23  24
ATOM     24  N   UNL     1      -0.020  13.315  19.851  0.00  0.00    +0.000 NA
ATOM     25  C   UNL     1      -0.171  14.419  18.899  0.00  0.00    +0.000 C 
ATOM     26  C   UNL     1       0.593  13.816  21.086  0.00  0.00    +0.000 C 
ENDBRANCH  23  24
ENDBRANCH  22  23
ENDBRANCH  19  22
ENDBRANCH  15  16
ENDBRANCH   1  14
TORSDOF 7
ENDMDL
MODEL 8
REMARK VINA RESULT:      -6.8      4.655      9.074
REMARK  Name = 
REMARK  10 active torsions:
REMARK  status: ('A' for Active; 'I' for Inactive)
REMARK    1  A    between atoms: C_1  and  O_2
REMARK    2  A    between atoms: O_2  and  C_3
REMARK    3  A    between atoms: C_8  and  C_9
REMARK    4  A    between atoms: C_9  and  C_11
REMARK    5  A    between atoms: C_12  and  C_13
REMARK    6  A    between atoms: C_16  and  C_17
REMARK    7  A    between atoms: C_17  and  C_18
REMARK    8  A    between atoms: C_18  and  N_19
REMARK    9  A    between atoms: N_19  and  C_20
REMARK   10  A    between atoms: N_19  and  C_21
REMARK                            x       y       z     vdW  Elec       q    Type
REMARK                         _______ _______ _______ _____ _____    ______ ____
ROOT
ATOM      1  C   UNL     1       0.189   9.579  21.177  0.00  0.00    +0.000 C 
ATOM      2  O   UNL     1      -0.106   9.429  22.358  0.00  0.00    +0.000 OA
ENDROOT
BRANCH   1   8
ATOM      3  C   UNL     1      -1.131  11.741  20.927  0.00  0.00    +0.000 A 
ATOM      4  C   UNL     1      -2.230  12.289  20.275  0.00  0.00    +0.000 A 
ATOM      5  C   UNL     1      -2.592  11.720  19.056  0.00  0.00    +0.000 A 
ATOM      6  C   UNL     1      -1.757  10.833  18.371  0.00  0.00    +0.000 A 
ATOM      7  C   UNL     1      -0.677  10.273  19.006  0.00  0.00    +0.000 A 
ATOM      8  C   UNL     1      -0.474  10.633  20.346  0.00  0.00    +0.000 A 
ATOM      9  S   UNL     1      -2.532  10.247  16.908  0.00  0.00    +0.000 S 
ATOM     10  C   UNL     1      -4.072  10.663  17.748  0.00  0.00    +0.000 C 
ATOM     11  O   UNL     1      -3.872  11.858  18.545  0.00  0.00    +0.000 OA
BRANCH   3  13
ATOM     12  C   UNL     1      -1.549  12.606  23.126  0.00  0.00    +0.000 C 
ATOM     13  O   UNL     1      -0.639  12.157  22.132  0.00  0.00    +0.000 OA
ENDBRANCH   3  13
ENDBRANCH   1   8
BRANCH   1  14
ATOM     14  C   UNL     1       1.337   8.854  20.557  0.00  0.00    +0.000 C 
ATOM     15  C   UNL     1       1.355   7.522  20.461  0.00  0.00    +0.000 C 
BRANCH  15  16
ATOM     16  C   UNL     1       2.372   6.887  19.633  0.00  0.00    +0.000 A 
ATOM     17  C   UNL     1       2.819   7.452  18.434  0.00  0.00    +0.000 A 
ATOM     18  C   UNL     1       3.709   6.742  17.621  0.00  0.00    +0.000 A 
ATOM     19  C   UNL     1       4.167   5.468  18.001  0.00  0.00    +0.000 A 
ATOM     20  C   UNL     1       3.728   4.922  19.211  0.00  0.00    +0.000 A 
ATOM     21  C   UNL     1       2.841   5.629  20.019  0.00  0.00    +0.000 A 
BRANCH  19  22
ATOM     22  C   UNL     1       5.051   4.651  17.084  0.00  0.00    +0.000 C 
BRANCH  22  23
ATOM     23  C   UNL     1       5.981   5.510  16.211  0.00  0.00    +0.000 C 
BRANCH  23  24
ATOM     24  N   UNL     1       7.326   5.717  16.788  0.00  0.00    +0.000 NA
ATOM     25  C   UNL     1       7.436   6.995  17.497  0.00  0.00    +0.000 C 
ATOM     26  C   UNL     1       7.636   4.619  17.710  0.00  0.00    +0.000 C 
ENDBRANCH  23  24
ENDBRANCH  22  23
ENDBRANCH  19  22
ENDBRANCH  15  16
ENDBRANCH   1  14
TORSDOF 7
ENDMDL
MODEL 9
REMARK VINA RESULT:      -6.8      1.895      2.905
REMARK  Name = 
REMARK  10 active torsions:
REMARK  status: ('A' for Active; 'I' for Inactive)
REMARK    1  A    between atoms: C_1  and  O_2
REMARK    2  A    between atoms: O_2  and  C_3
REMARK    3  A    between atoms: C_8  and  C_9
REMARK    4  A    between atoms: C_9  and  C_11
REMARK    5  A    between atoms: C_12  and  C_13
REMARK    6  A    between atoms: C_16  and  C_17
REMARK    7  A    between atoms: C_17  and  C_18
REMARK    8  A    between atoms: C_18  and  N_19
REMARK    9  A    between atoms: N_19  and  C_20
REMARK   10  A    between atoms: N_19  and  C_21
REMARK                            x       y       z     vdW  Elec       q    Type
REMARK                         _______ _______ _______ _____ _____    ______ ____
ROOT
ATOM      1  C   UNL     1       4.153   4.468  19.055  0.00  0.00    +0.000 C 
ATOM      2  O   UNL     1       3.795   3.624  19.870  0.00  0.00    +0.000 OA
ENDROOT
BRANCH   1   8
ATOM      3  C   UNL     1       6.596   4.900  18.483  0.00  0.00    +0.000 A 
ATOM      4  C   UNL     1       7.436   5.223  17.422  0.00  0.00    +0.000 A 
ATOM      5  C   UNL     1       7.020   4.849  16.147  0.00  0.00    +0.000 A 
ATOM      6  C   UNL     1       5.963   3.958  15.940  0.00  0.00    +0.000 A 
ATOM      7  C   UNL     1       5.117   3.640  16.973  0.00  0.00    +0.000 A 
ATOM      8  C   UNL     1       5.370   4.252  18.209  0.00  0.00    +0.000 A 
ATOM      9  S   UNL     1       5.649   3.747  14.225  0.00  0.00    +0.000 S 
ATOM     10  C   UNL     1       6.435   5.359  14.045  0.00  0.00    +0.000 C 
ATOM     11  O   UNL     1       7.510   5.475  15.012  0.00  0.00    +0.000 OA
BRANCH   3  13
ATOM     12  C   UNL     1       8.133   5.608  20.184  0.00  0.00    +0.000 C 
ATOM     13  O   UNL     1       6.830   5.198  19.795  0.00  0.00    +0.000 OA
ENDBRANCH   3  13
ENDBRANCH   1   8
BRANCH   1  14
ATOM     14  C   UNL     1       3.310   5.656  18.734  0.00  0.00    +0.000 C 
ATOM     15  C   UNL     1       2.712   6.371  19.690  0.00  0.00    +0.000 C 
BRANCH  15  16
ATOM     16  C   UNL     1       2.111   7.652  19.344  0.00  0.00    +0.000 A 
ATOM     17  C   UNL     1       2.354   8.284  18.120  0.00  0.00    +0.000 A 
ATOM     18  C   UNL     1       1.847   9.567  17.889  0.00  0.00    +0.000 A 
ATOM     19  C   UNL     1       1.087  10.227  18.871  0.00  0.00    +0.000 A 
ATOM     20  C   UNL     1       0.836   9.577  20.083  0.00  0.00    +0.000 A 
ATOM     21  C   UNL     1       1.343   8.300  20.314  0.00  0.00    +0.000 A 
BRANCH  19  22
ATOM     22  C   UNL     1       0.618  11.650  18.670  0.00  0.00    +0.000 C 
BRANCH  22  23
ATOM     23  C   UNL     1       1.106  12.614  19.765  0.00  0.00    +0.000 C 
BRANCH  23  24
ATOM     24  N   UNL     1       2.519  13.023  19.620  0.00  0.00    +0.000 NA
ATOM     25  C   UNL     1       2.756  13.773  18.383  0.00  0.00    +0.000 C 
ATOM     26  C   UNL     1       2.911  13.842  20.771  0.00  0.00    +0.000 C 
ENDBRANCH  23  24
ENDBRANCH  22  23
ENDBRANCH  19  22
ENDBRANCH  15  16
ENDBRANCH   1  14
TORSDOF 7
ENDMDL
