MODEL 1
REMARK VINA RESULT:      -8.3      0.000      0.000
REMARK  Name = 
REMARK  3 active torsions:
REMARK  status: ('A' for Active; 'I' for Inactive)
REMARK    1  A    between atoms: C_1  and  O_2
REMARK    2  A    between atoms: O_2  and  C_3
REMARK    3  A    between atoms: C_9  and  C_10
REMARK                            x       y       z     vdW  Elec       q    Type
REMARK                         _______ _______ _______ _____ _____    ______ ____
ROOT
ATOM      1  C   UNL     1       5.141   3.469  12.326  0.00  0.00    +0.000 A 
ATOM      2  C   UNL     1       6.430   3.497  11.796  0.00  0.00    +0.000 A 
ATOM      3  C   UNL     1       7.476   4.139  12.468  0.00  0.00    +0.000 A 
ATOM      4  C   UNL     1       7.176   4.738  13.695  0.00  0.00    +0.000 A 
ATOM      5  N   UNL     1       7.957   5.432  14.574  0.00  0.00    +0.000 N 
ATOM      6  N   UNL     1       7.311   5.865  15.665  0.00  0.00    +0.000 NA
ATOM      7  C   UNL     1       6.047   5.435  15.503  0.00  0.00    +0.000 A 
ATOM      8  C   UNL     1       5.906   4.734  14.260  0.00  0.00    +0.000 A 
ATOM      9  C   UNL     1       4.864   4.110  13.544  0.00  0.00    +0.000 A 
ATOM     10  H   UNL     1       8.943   5.647  14.486  0.00  0.00    +0.000 HD
ENDROOT
BRANCH   7  11
ATOM     11  C   UNL     1       5.039   5.716  16.529  0.00  0.00    +0.000 A 
ATOM     12  C   UNL     1       4.478   6.977  16.682  0.00  0.00    +0.000 A 
ATOM     13  C   UNL     1       3.549   7.150  17.688  0.00  0.00    +0.000 A 
ATOM     14  N   UNL     1       3.148   6.168  18.526  0.00  0.00    +0.000 NA
ATOM     15  C   UNL     1       3.664   4.929  18.375  0.00  0.00    +0.000 A 
ATOM     16  N   UNL     1       3.273   3.940  19.251  0.00  0.00    +0.000 N 
ATOM     17  C   UNL     1       3.188   2.524  18.874  0.00  0.00    +0.000 C 
ATOM     18  C   UNL     1       1.738   2.021  18.982  0.00  0.00    +0.000 C 
ATOM     19  O   UNL     1       1.169   2.294  20.272  0.00  0.00    +0.000 OA
ATOM     20  C   UNL     1       1.159   3.713  20.512  0.00  0.00    +0.000 C 
ATOM     21  C   UNL     1       2.578   4.293  20.496  0.00  0.00    +0.000 C 
ATOM     22  C   UNL     1       4.612   4.689  17.383  0.00  0.00    +0.000 A 
ENDBRANCH   7  11
BRANCH   1  24
ATOM     23  C   UNL     1       3.562   3.532  10.564  0.00  0.00    +0.000 C 
ATOM     24  O   UNL     1       4.056   2.881  11.730  0.00  0.00    +0.000 OA
ENDBRANCH   1  24
TORSDOF 2
ENDMDL
MODEL 2
REMARK VINA RESULT:      -7.6      3.918      6.095
REMARK  Name = 
REMARK  3 active torsions:
REMARK  status: ('A' for Active; 'I' for Inactive)
REMARK    1  A    between atoms: C_1  and  O_2
REMARK    2  A    between atoms: O_2  and  C_3
REMARK    3  A    between atoms: C_9  and  C_10
REMARK                            x       y       z     vdW  Elec       q    Type
REMARK                         _______ _______ _______ _____ _____    ______ ____
ROOT
ATOM      1  C   UNL     1       6.703   6.107  16.562  0.00  0.00    +0.000 A 
ATOM      2  C   UNL     1       6.761   4.906  15.856  0.00  0.00    +0.000 A 
ATOM      3  C   UNL     1       5.708   3.986  15.905  0.00  0.00    +0.000 A 
ATOM      4  C   UNL     1       4.594   4.327  16.678  0.00  0.00    +0.000 A 
ATOM      5  N   UNL     1       3.431   3.658  16.928  0.00  0.00    +0.000 N 
ATOM      6  N   UNL     1       2.580   4.309  17.732  0.00  0.00    +0.000 NA
ATOM      7  C   UNL     1       3.206   5.464  18.024  0.00  0.00    +0.000 A 
ATOM      8  C   UNL     1       4.494   5.513  17.396  0.00  0.00    +0.000 A 
ATOM      9  C   UNL     1       5.586   6.406  17.357  0.00  0.00    +0.000 A 
ATOM     10  H   UNL     1       3.157   2.747  16.581  0.00  0.00    +0.000 HD
ENDROOT
BRANCH   7  11
ATOM     11  C   UNL     1       2.555   6.454  18.885  0.00  0.00    +0.000 A 
ATOM     12  C   UNL     1       2.238   6.181  20.209  0.00  0.00    +0.000 A 
ATOM     13  C   UNL     1       1.610   7.171  20.937  0.00  0.00    +0.000 A 
ATOM     14  N   UNL     1       1.292   8.389  20.443  0.00  0.00    +0.000 NA
ATOM     15  C   UNL     1       1.615   8.681  19.166  0.00  0.00    +0.000 A 
ATOM     16  N   UNL     1       1.262   9.913  18.660  0.00  0.00    +0.000 N 
ATOM     17  C   UNL     1       2.047  10.613  17.636  0.00  0.00    +0.000 C 
ATOM     18  C   UNL     1       2.599  11.939  18.189  0.00  0.00    +0.000 C 
ATOM     19  O   UNL     1       1.564  12.755  18.759  0.00  0.00    +0.000 OA
ATOM     20  C   UNL     1       0.933  12.056  19.847  0.00  0.00    +0.000 C 
ATOM     21  C   UNL     1       0.287  10.748  19.373  0.00  0.00    +0.000 C 
ATOM     22  C   UNL     1       2.245   7.723  18.374  0.00  0.00    +0.000 A 
ENDBRANCH   7  11
BRANCH   1  24
ATOM     23  C   UNL     1       7.814   7.791  17.798  0.00  0.00    +0.000 C 
ATOM     24  O   UNL     1       7.691   7.055  16.586  0.00  0.00    +0.000 OA
ENDBRANCH   1  24
TORSDOF 2
ENDMDL
MODEL 3
REMARK VINA RESULT:      -7.5      4.241      6.128
REMARK  Name = 
REMARK  3 active torsions:
REMARK  status: ('A' for Active; 'I' for Inactive)
REMARK    1  A    between atoms: C_1  and  O_2
REMARK    2  A    between atoms: O_2  and  C_3
REMARK    3  A    between atoms: C_9  and  C_10
REMARK                            x       y       z     vdW  Elec       q    Type
REMARK                         _______ _______ _______ _____ _____    ______ ____
ROOT
ATOM      1  C   UNL     1       5.328   5.410  16.251  0.00  0.00    +0.000 A 
ATOM      2  C   UNL     1       5.535   4.114  16.722  0.00  0.00    +0.000 A 
ATOM      3  C   UNL     1       4.871   3.643  17.861  0.00  0.00    +0.000 A 
ATOM      4  C   UNL     1       3.986   4.520  18.495  0.00  0.00    +0.000 A 
ATOM      5  N   UNL     1       3.207   4.368  19.606  0.00  0.00    +0.000 N 
ATOM      6  N   UNL     1       2.476   5.445  19.921  0.00  0.00    +0.000 NA
ATOM      7  C   UNL     1       2.782   6.350  18.973  0.00  0.00    +0.000 A 
ATOM      8  C   UNL     1       3.750   5.818  18.059  0.00  0.00    +0.000 A 
ATOM      9  C   UNL     1       4.460   6.278  16.930  0.00  0.00    +0.000 A 
ATOM     10  H   UNL     1       3.131   3.549  20.197  0.00  0.00    +0.000 HD
ENDROOT
BRANCH   7  11
ATOM     11  C   UNL     1       2.147   7.671  18.989  0.00  0.00    +0.000 A 
ATOM     12  C   UNL     1       1.829   8.346  17.818  0.00  0.00    +0.000 A 
ATOM     13  C   UNL     1       1.248   9.593  17.932  0.00  0.00    +0.000 A 
ATOM     14  N   UNL     1       0.965  10.191  19.112  0.00  0.00    +0.000 NA
ATOM     15  C   UNL     1       1.243   9.538  20.260  0.00  0.00    +0.000 A 
ATOM     16  N   UNL     1       0.979  10.165  21.458  0.00  0.00    +0.000 N 
ATOM     17  C   UNL     1       0.599   9.438  22.675  0.00  0.00    +0.000 C 
ATOM     18  C   UNL     1      -0.819   9.834  23.122  0.00  0.00    +0.000 C 
ATOM     19  O   UNL     1      -0.965  11.258  23.249  0.00  0.00    +0.000 OA
ATOM     20  C   UNL     1      -0.713  11.890  21.981  0.00  0.00    +0.000 C 
ATOM     21  C   UNL     1       0.712  11.609  21.488  0.00  0.00    +0.000 C 
ATOM     22  C   UNL     1       1.836   8.278  20.214  0.00  0.00    +0.000 A 
ENDBRANCH   7  11
BRANCH   1  24
ATOM     23  C   UNL     1       6.741   5.067  14.384  0.00  0.00    +0.000 C 
ATOM     24  O   UNL     1       5.946   5.959  15.159  0.00  0.00    +0.000 OA
ENDBRANCH   1  24
TORSDOF 2
ENDMDL
MODEL 4
REMARK VINA RESULT:      -7.5      4.396      6.430
REMARK  Name = 
REMARK  3 active torsions:
REMARK  status: ('A' for Active; 'I' for Inactive)
REMARK    1  A    between atoms: C_1  and  O_2
REMARK    2  A    between atoms: O_2  and  C_3
REMARK    3  A    between atoms: C_9  and  C_10
REMARK                            x       y       z     vdW  Elec       q    Type
REMARK                         _______ _______ _______ _____ _____    ______ ____
ROOT
ATOM      1  C   UNL     1       6.344   5.997  17.288  0.00  0.00    +0.000 A 
ATOM      2  C   UNL     1       6.455   4.626  17.514  0.00  0.00    +0.000 A 
ATOM      3  C   UNL     1       5.433   3.911  18.149  0.00  0.00    +0.000 A 
ATOM      4  C   UNL     1       4.295   4.626  18.534  0.00  0.00    +0.000 A 
ATOM      5  N   UNL     1       3.151   4.230  19.164  0.00  0.00    +0.000 N 
ATOM      6  N   UNL     1       2.265   5.212  19.372  0.00  0.00    +0.000 NA
ATOM      7  C   UNL     1       2.846   6.308  18.852  0.00  0.00    +0.000 A 
ATOM      8  C   UNL     1       4.142   5.992  18.327  0.00  0.00    +0.000 A 
ATOM      9  C   UNL     1       5.203   6.693  17.717  0.00  0.00    +0.000 A 
ATOM     10  H   UNL     1       2.915   3.297  19.482  0.00  0.00    +0.000 HD
ENDROOT
BRANCH   7  11
ATOM     11  C   UNL     1       2.146   7.595  18.885  0.00  0.00    +0.000 A 
ATOM     12  C   UNL     1       1.733   8.237  17.725  0.00  0.00    +0.000 A 
ATOM     13  C   UNL     1       1.097   9.455  17.856  0.00  0.00    +0.000 A 
ATOM     14  N   UNL     1       0.846  10.055  19.042  0.00  0.00    +0.000 NA
ATOM     15  C   UNL     1       1.217   9.433  20.181  0.00  0.00    +0.000 A 
ATOM     16  N   UNL     1       0.985  10.063  21.384  0.00  0.00    +0.000 N 
ATOM     17  C   UNL     1       0.707   9.336  22.628  0.00  0.00    +0.000 C 
ATOM     18  C   UNL     1      -0.703   9.667  23.146  0.00  0.00    +0.000 C 
ATOM     19  O   UNL     1      -0.915  11.083  23.263  0.00  0.00    +0.000 OA
ATOM     20  C   UNL     1      -0.762  11.709  21.976  0.00  0.00    +0.000 C 
ATOM     21  C   UNL     1       0.647  11.492  21.412  0.00  0.00    +0.000 C 
ATOM     22  C   UNL     1       1.871   8.204  20.118  0.00  0.00    +0.000 A 
ENDBRANCH   7  11
BRANCH   1  24
ATOM     23  C   UNL     1       7.752   7.892  17.453  0.00  0.00    +0.000 C 
ATOM     24  O   UNL     1       7.299   6.777  16.692  0.00  0.00    +0.000 OA
ENDBRANCH   1  24
TORSDOF 2
ENDMDL
MODEL 5
REMARK VINA RESULT:      -7.4      4.217      6.803
REMARK  Name = 
REMARK  3 active torsions:
REMARK  status: ('A' for Active; 'I' for Inactive)
REMARK    1  A    between atoms: C_1  and  O_2
REMARK    2  A    between atoms: O_2  and  C_3
REMARK    3  A    between atoms: C_9  and  C_10
REMARK                            x       y       z     vdW  Elec       q    Type
REMARK                         _______ _______ _______ _____ _____    ______ ____
ROOT
ATOM      1  C   UNL     1       2.140   3.472  19.535  0.00  0.00    +0.000 A 
ATOM      2  C   UNL     1       3.293   2.883  19.019  0.00  0.00    +0.000 A 
ATOM      3  C   UNL     1       4.215   3.629  18.275  0.00  0.00    +0.000 A 
ATOM      4  C   UNL     1       3.937   4.985  18.084  0.00  0.00    +0.000 A 
ATOM      5  N   UNL     1       4.620   5.961  17.417  0.00  0.00    +0.000 N 
ATOM      6  N   UNL     1       4.037   7.166  17.448  0.00  0.00    +0.000 NA
ATOM      7  C   UNL     1       2.919   6.981  18.174  0.00  0.00    +0.000 A 
ATOM      8  C   UNL     1       2.801   5.612  18.582  0.00  0.00    +0.000 A 
ATOM      9  C   UNL     1       1.871   4.828  19.298  0.00  0.00    +0.000 A 
ATOM     10  H   UNL     1       5.494   5.866  16.914  0.00  0.00    +0.000 HD
ENDROOT
BRANCH   7  11
ATOM     11  C   UNL     1       2.020   8.109  18.436  0.00  0.00    +0.000 A 
ATOM     12  C   UNL     1       1.312   8.735  17.419  0.00  0.00    +0.000 A 
ATOM     13  C   UNL     1       0.503   9.800  17.761  0.00  0.00    +0.000 A 
ATOM     14  N   UNL     1       0.353  10.264  19.023  0.00  0.00    +0.000 NA
ATOM     15  C   UNL     1       1.014   9.650  20.027  0.00  0.00    +0.000 A 
ATOM     16  N   UNL     1       0.880  10.146  21.305  0.00  0.00    +0.000 N 
ATOM     17  C   UNL     1       0.947   9.300  22.503  0.00  0.00    +0.000 C 
ATOM     18  C   UNL     1      -0.393   9.325  23.259  0.00  0.00    +0.000 C 
ATOM     19  O   UNL     1      -0.827  10.665  23.541  0.00  0.00    +0.000 OA
ATOM     20  C   UNL     1      -1.005  11.391  22.311  0.00  0.00    +0.000 C 
ATOM     21  C   UNL     1       0.306  11.481  21.520  0.00  0.00    +0.000 C 
ATOM     22  C   UNL     1       1.852   8.573  19.748  0.00  0.00    +0.000 A 
ENDBRANCH   7  11
BRANCH   1  24
ATOM     23  C   UNL     1       1.476   2.595  21.631  0.00  0.00    +0.000 C 
ATOM     24  O   UNL     1       1.177   2.816  20.257  0.00  0.00    +0.000 OA
ENDBRANCH   1  24
TORSDOF 2
ENDMDL
MODEL 6
REMARK VINA RESULT:      -7.4      3.838      7.596
REMARK  Name = 
REMARK  3 active torsions:
REMARK  status: ('A' for Active; 'I' for Inactive)
REMARK    1  A    between atoms: C_1  and  O_2
REMARK    2  A    between atoms: O_2  and  C_3
REMARK    3  A    between atoms: C_9  and  C_10
REMARK                            x       y       z     vdW  Elec       q    Type
REMARK                         _______ _______ _______ _____ _____    ______ ____
ROOT
ATOM      1  C   UNL     1       0.062   9.436  21.239  0.00  0.00    +0.000 A 
ATOM      2  C   UNL     1      -0.254  10.755  20.917  0.00  0.00    +0.000 A 
ATOM      3  C   UNL     1       0.256  11.360  19.763  0.00  0.00    +0.000 A 
ATOM      4  C   UNL     1       1.082  10.585  18.944  0.00  0.00    +0.000 A 
ATOM      5  N   UNL     1       1.726  10.878  17.777  0.00  0.00    +0.000 N 
ATOM      6  N   UNL     1       2.442   9.865  17.270  0.00  0.00    +0.000 NA
ATOM      7  C   UNL     1       2.258   8.854  18.139  0.00  0.00    +0.000 A 
ATOM      8  C   UNL     1       1.421   9.267  19.227  0.00  0.00    +0.000 A 
ATOM      9  C   UNL     1       0.922   8.693  20.415  0.00  0.00    +0.000 A 
ATOM     10  H   UNL     1       1.720  11.757  17.274  0.00  0.00    +0.000 HD
ENDROOT
BRANCH   7  11
ATOM     11  C   UNL     1       2.891   7.554  17.895  0.00  0.00    +0.000 A 
ATOM     12  C   UNL     1       4.175   7.448  17.378  0.00  0.00    +0.000 A 
ATOM     13  C   UNL     1       4.680   6.181  17.167  0.00  0.00    +0.000 A 
ATOM     14  N   UNL     1       4.004   5.041  17.438  0.00  0.00    +0.000 NA
ATOM     15  C   UNL     1       2.765   5.126  17.965  0.00  0.00    +0.000 A 
ATOM     16  N   UNL     1       2.071   3.961  18.212  0.00  0.00    +0.000 N 
ATOM     17  C   UNL     1       1.102   3.824  19.305  0.00  0.00    +0.000 C 
ATOM     18  C   UNL     1       1.572   2.762  20.315  0.00  0.00    +0.000 C 
ATOM     19  O   UNL     1       1.881   1.513  19.678  0.00  0.00    +0.000 OA
ATOM     20  C   UNL     1       2.936   1.702  18.718  0.00  0.00    +0.000 C 
ATOM     21  C   UNL     1       2.527   2.695  17.624  0.00  0.00    +0.000 C 
ATOM     22  C   UNL     1       2.194   6.376  18.197  0.00  0.00    +0.000 A 
ENDBRANCH   7  11
BRANCH   1  24
ATOM     23  C   UNL     1      -0.162   9.434  23.596  0.00  0.00    +0.000 C 
ATOM     24  O   UNL     1      -0.376   8.770  22.354  0.00  0.00    +0.000 OA
ENDBRANCH   1  24
TORSDOF 2
ENDMDL
MODEL 7
REMARK VINA RESULT:      -7.1      1.581      1.782
REMARK  Name = 
REMARK  3 active torsions:
REMARK  status: ('A' for Active; 'I' for Inactive)
REMARK    1  A    between atoms: C_1  and  O_2
REMARK    2  A    between atoms: O_2  and  C_3
REMARK    3  A    between atoms: C_9  and  C_10
REMARK                            x       y       z     vdW  Elec       q    Type
REMARK                         _______ _______ _______ _____ _____    ______ ____
ROOT
ATOM      1  C   UNL     1       5.505   3.342  12.125  0.00  0.00    +0.000 A 
ATOM      2  C   UNL     1       6.412   3.920  11.238  0.00  0.00    +0.000 A 
ATOM      3  C   UNL     1       7.426   4.771  11.692  0.00  0.00    +0.000 A 
ATOM      4  C   UNL     1       7.499   5.004  13.068  0.00  0.00    +0.000 A 
ATOM      5  N   UNL     1       8.351   5.771  13.810  0.00  0.00    +0.000 N 
ATOM      6  N   UNL     1       8.110   5.751  15.127  0.00  0.00    +0.000 NA
ATOM      7  C   UNL     1       7.053   4.930  15.265  0.00  0.00    +0.000 A 
ATOM      8  C   UNL     1       6.617   4.448  13.987  0.00  0.00    +0.000 A 
ATOM      9  C   UNL     1       5.582   3.623  13.498  0.00  0.00    +0.000 A 
ATOM     10  H   UNL     1       9.120   6.337  13.473  0.00  0.00    +0.000 HD
ENDROOT
BRANCH   7  11
ATOM     11  C   UNL     1       6.509   4.651  16.597  0.00  0.00    +0.000 A 
ATOM     12  C   UNL     1       7.170   5.038  17.756  0.00  0.00    +0.000 A 
ATOM     13  C   UNL     1       6.589   4.716  18.965  0.00  0.00    +0.000 A 
ATOM     14  N   UNL     1       5.415   4.055  19.090  0.00  0.00    +0.000 NA
ATOM     15  C   UNL     1       4.747   3.695  17.974  0.00  0.00    +0.000 A 
ATOM     16  N   UNL     1       3.567   2.996  18.108  0.00  0.00    +0.000 N 
ATOM     17  C   UNL     1       2.457   3.108  17.153  0.00  0.00    +0.000 C 
ATOM     18  C   UNL     1       1.209   3.689  17.839  0.00  0.00    +0.000 C 
ATOM     19  O   UNL     1       0.858   2.959  19.026  0.00  0.00    +0.000 OA
ATOM     20  C   UNL     1       1.942   3.012  19.971  0.00  0.00    +0.000 C 
ATOM     21  C   UNL     1       3.217   2.384  19.396  0.00  0.00    +0.000 C 
ATOM     22  C   UNL     1       5.283   3.983  16.721  0.00  0.00    +0.000 A 
ENDBRANCH   7  11
BRANCH   1  24
ATOM     23  C   UNL     1       3.528   3.062  10.855  0.00  0.00    +0.000 C 
ATOM     24  O   UNL     1       4.473   2.515  11.768  0.00  0.00    +0.000 OA
ENDBRANCH   1  24
TORSDOF 2
ENDMDL
MODEL 8
REMARK VINA RESULT:      -7.1      4.262      8.614
REMARK  Name = 
REMARK  3 active torsions:
REMARK  status: ('A' for Active; 'I' for Inactive)
REMARK    1  A    between atoms: C_1  and  O_2
REMARK    2  A    between atoms: O_2  and  C_3
REMARK    3  A    between atoms: C_9  and  C_10
REMARK                            x       y       z     vdW  Elec       q    Type
REMARK                         _______ _______ _______ _____ _____    ______ ____
ROOT
ATOM      1  C   UNL     1      -0.098  10.575  21.708  0.00  0.00    +0.000 A 
ATOM      2  C   UNL     1      -0.844  11.473  20.945  0.00  0.00    +0.000 A 
ATOM      3  C   UNL     1      -0.800  11.446  19.547  0.00  0.00    +0.000 A 
ATOM      4  C   UNL     1       0.010  10.475  18.950  0.00  0.00    +0.000 A 
ATOM      5  N   UNL     1       0.266  10.196  17.638  0.00  0.00    +0.000 N 
ATOM      6  N   UNL     1       1.110   9.174  17.444  0.00  0.00    +0.000 NA
ATOM      7  C   UNL     1       1.424   8.755  18.684  0.00  0.00    +0.000 A 
ATOM      8  C   UNL     1       0.768   9.560  19.672  0.00  0.00    +0.000 A 
ATOM      9  C   UNL     1       0.732   9.634  21.080  0.00  0.00    +0.000 A 
ATOM     10  H   UNL     1      -0.105  10.670  16.824  0.00  0.00    +0.000 HD
ENDROOT
BRANCH   7  11
ATOM     11  C   UNL     1       2.332   7.619  18.865  0.00  0.00    +0.000 A 
ATOM     12  C   UNL     1       2.166   6.703  19.896  0.00  0.00    +0.000 A 
ATOM     13  C   UNL     1       3.082   5.676  19.997  0.00  0.00    +0.000 A 
ATOM     14  N   UNL     1       4.124   5.504  19.152  0.00  0.00    +0.000 NA
ATOM     15  C   UNL     1       4.286   6.370  18.130  0.00  0.00    +0.000 A 
ATOM     16  N   UNL     1       5.366   6.207  17.290  0.00  0.00    +0.000 N 
ATOM     17  C   UNL     1       5.339   6.574  15.869  0.00  0.00    +0.000 C 
ATOM     18  C   UNL     1       5.536   5.331  14.985  0.00  0.00    +0.000 C 
ATOM     19  O   UNL     1       6.712   4.591  15.351  0.00  0.00    +0.000 OA
ATOM     20  C   UNL     1       6.603   4.145  16.716  0.00  0.00    +0.000 C 
ATOM     21  C   UNL     1       6.476   5.328  17.683  0.00  0.00    +0.000 C 
ATOM     22  C   UNL     1       3.399   7.434  17.975  0.00  0.00    +0.000 A 
ENDBRANCH   7  11
BRANCH   1  24
ATOM     23  C   UNL     1       0.301   9.295  23.658  0.00  0.00    +0.000 C 
ATOM     24  O   UNL     1      -0.066  10.542  23.077  0.00  0.00    +0.000 OA
ENDBRANCH   1  24
TORSDOF 2
ENDMDL
MODEL 9
REMARK VINA RESULT:      -7.1      2.158      7.480
REMARK  Name = 
REMARK  3 active torsions:
REMARK  status: ('A' for Active; 'I' for Inactive)
REMARK    1  A    between atoms: C_1  and  O_2
REMARK    2  A    between atoms: O_2  and  C_3
REMARK    3  A    between atoms: C_9  and  C_10
REMARK                            x       y       z     vdW  Elec       q    Type
REMARK                         _______ _______ _______ _____ _____    ______ ____
ROOT
ATOM      1  C   UNL     1       1.689   5.355  20.457  0.00  0.00    +0.000 A 
ATOM      2  C   UNL     1       0.817   4.315  20.779  0.00  0.00    +0.000 A 
ATOM      3  C   UNL     1       0.993   3.033  20.248  0.00  0.00    +0.000 A 
ATOM      4  C   UNL     1       2.083   2.837  19.394  0.00  0.00    +0.000 A 
ATOM      5  N   UNL     1       2.515   1.729  18.724  0.00  0.00    +0.000 N 
ATOM      6  N   UNL     1       3.616   1.923  17.986  0.00  0.00    +0.000 NA
ATOM      7  C   UNL     1       3.929   3.217  18.180  0.00  0.00    +0.000 A 
ATOM      8  C   UNL     1       2.976   3.844  19.047  0.00  0.00    +0.000 A 
ATOM      9  C   UNL     1       2.754   5.135  19.570  0.00  0.00    +0.000 A 
ATOM     10  H   UNL     1       2.099   0.806  18.727  0.00  0.00    +0.000 HD
ENDROOT
BRANCH   7  11
ATOM     11  C   UNL     1       5.110   3.792  17.528  0.00  0.00    +0.000 A 
ATOM     12  C   UNL     1       6.238   4.163  18.247  0.00  0.00    +0.000 A 
ATOM     13  C   UNL     1       7.294   4.712  17.548  0.00  0.00    +0.000 A 
ATOM     14  N   UNL     1       7.299   4.902  16.209  0.00  0.00    +0.000 NA
ATOM     15  C   UNL     1       6.220   4.524  15.491  0.00  0.00    +0.000 A 
ATOM     16  N   UNL     1       6.220   4.748  14.131  0.00  0.00    +0.000 N 
ATOM     17  C   UNL     1       5.523   3.878  13.177  0.00  0.00    +0.000 C 
ATOM     18  C   UNL     1       6.526   3.217  12.215  0.00  0.00    +0.000 C 
ATOM     19  O   UNL     1       7.376   4.183  11.577  0.00  0.00    +0.000 OA
ATOM     20  C   UNL     1       8.131   4.901  12.570  0.00  0.00    +0.000 C 
ATOM     21  C   UNL     1       7.209   5.656  13.536  0.00  0.00    +0.000 C 
ATOM     22  C   UNL     1       5.118   3.969  16.137  0.00  0.00    +0.000 A 
ENDBRANCH   7  11
BRANCH   1  24
ATOM     23  C   UNL     1       1.958   7.660  19.994  0.00  0.00    +0.000 C 
ATOM     24  O   UNL     1       1.583   6.642  20.915  0.00  0.00    +0.000 OA
ENDBRANCH   1  24
TORSDOF 2
ENDMDL
