MODEL 1
REMARK VINA RESULT:      -8.4      0.000      0.000
REMARK  Name = 
REMARK  7 active torsions:
REMARK  status: ('A' for Active; 'I' for Inactive)
REMARK    1  A    between atoms: C_1  and  N_2
REMARK    2  A    between atoms: C_6  and  C_7
REMARK    3  A    between atoms: N_11  and  C_12
REMARK    4  A    between atoms: C_12  and  C_13
REMARK    5  A    between atoms: N_15  and  C_16
REMARK    6  A    between atoms: C_19  and  S_20
REMARK    7  A    between atoms: S_20  and  C_23
REMARK                            x       y       z     vdW  Elec       q    Type
REMARK                         _______ _______ _______ _____ _____    ______ ____
ROOT
ATOM      1  C   UNL     1       2.434   4.954  20.168  0.00  0.00    +0.000 C 
ATOM      2  O   UNL     1       1.240   4.681  20.285  0.00  0.00    +0.000 OA
ATOM      3  N   UNL     1       2.943   6.204  19.832  0.00  0.00    +0.000 N 
ATOM      4  H   UNL     1       3.937   6.218  19.626  0.00  0.00    +0.000 HD
ENDROOT
BRANCH   3   5
ATOM      5  C   UNL     1       2.208   7.403  19.702  0.00  0.00    +0.000 A 
ATOM      6  C   UNL     1       1.507   7.979  20.766  0.00  0.00    +0.000 A 
ATOM      7  C   UNL     1       0.761   9.150  20.592  0.00  0.00    +0.000 A 
ATOM      8  C   UNL     1       0.717   9.759  19.342  0.00  0.00    +0.000 A 
ATOM      9  C   UNL     1       1.421   9.209  18.264  0.00  0.00    +0.000 A 
ATOM     10  C   UNL     1       2.183   8.047  18.455  0.00  0.00    +0.000 A 
BRANCH   8  11
ATOM     11  S   UNL     1      -0.299  11.202  19.110  0.00  0.00    +0.000 S 
ATOM     12  O   UNL     1      -1.047  11.398  20.346  0.00  0.00    +0.000 OA
ATOM     13  O   UNL     1       0.566  12.266  18.624  0.00  0.00    +0.000 OA
BRANCH  11  14
ATOM     14  C   UNL     1      -1.424  10.704  17.801  0.00  0.00    +0.000 C 
ATOM     15  F   UNL     1      -2.452   9.929  18.255  0.00  0.00    +0.000 F 
ATOM     16  F   UNL     1      -2.003  11.769  17.173  0.00  0.00    +0.000 F 
ENDBRANCH  11  14
ENDBRANCH   8  11
ENDBRANCH   3   5
BRANCH   1  17
ATOM     17  C   UNL     1       3.501   3.844  20.319  0.00  0.00    +0.000 C 
BRANCH  17  22
ATOM     18  C   UNL     1       4.548   3.604  18.061  0.00  0.00    +0.000 C 
ATOM     19  C   UNL     1       3.673   4.461  17.152  0.00  0.00    +0.000 C 
ATOM     20  C   UNL     1       2.398   3.659  17.058  0.00  0.00    +0.000 C 
ATOM     21  C   UNL     1       2.291   2.967  18.408  0.00  0.00    +0.000 C 
ATOM     22  N   UNL     1       3.621   3.025  19.081  0.00  0.00    +0.000 NA
BRANCH  18  28
ATOM     23  C   UNL     1       7.055   4.433  16.358  0.00  0.00    +0.000 C 
ATOM     24  N   UNL     1       6.832   4.714  17.749  0.00  0.00    +0.000 N 
ATOM     25  C   UNL     1       7.655   5.449  18.546  0.00  0.00    +0.000 A 
ATOM     26  N   UNL     1       7.140   5.534  19.749  0.00  0.00    +0.000 NA
ATOM     27  N   UNL     1       5.959   4.834  19.742  0.00  0.00    +0.000 NA
ATOM     28  C   UNL     1       5.764   4.343  18.530  0.00  0.00    +0.000 A 
ENDBRANCH  18  28
ENDBRANCH  17  22
ENDBRANCH   1  17
TORSDOF 6
ENDMDL
MODEL 2
REMARK VINA RESULT:      -8.3      5.120      8.391
REMARK  Name = 
REMARK  7 active torsions:
REMARK  status: ('A' for Active; 'I' for Inactive)
REMARK    1  A    between atoms: C_1  and  N_2
REMARK    2  A    between atoms: C_6  and  C_7
REMARK    3  A    between atoms: N_11  and  C_12
REMARK    4  A    between atoms: C_12  and  C_13
REMARK    5  A    between atoms: N_15  and  C_16
REMARK    6  A    between atoms: C_19  and  S_20
REMARK    7  A    between atoms: S_20  and  C_23
REMARK                            x       y       z     vdW  Elec       q    Type
REMARK                         _______ _______ _______ _____ _____    ______ ____
ROOT
ATOM      1  C   UNL     1       1.531   9.312  18.496  0.00  0.00    +0.000 C 
ATOM      2  O   UNL     1       1.991   9.868  17.499  0.00  0.00    +0.000 OA
ATOM      3  N   UNL     1       1.935   8.073  18.983  0.00  0.00    +0.000 N 
ATOM      4  H   UNL     1       1.348   7.693  19.718  0.00  0.00    +0.000 HD
ENDROOT
BRANCH   3   5
ATOM      5  C   UNL     1       3.022   7.301  18.516  0.00  0.00    +0.000 A 
ATOM      6  C   UNL     1       3.535   6.212  19.227  0.00  0.00    +0.000 A 
ATOM      7  C   UNL     1       4.635   5.490  18.751  0.00  0.00    +0.000 A 
ATOM      8  C   UNL     1       5.228   5.856  17.546  0.00  0.00    +0.000 A 
ATOM      9  C   UNL     1       4.725   6.934  16.810  0.00  0.00    +0.000 A 
ATOM     10  C   UNL     1       3.609   7.637  17.287  0.00  0.00    +0.000 A 
BRANCH   8  11
ATOM     11  S   UNL     1       6.676   4.983  16.988  0.00  0.00    +0.000 S 
ATOM     12  O   UNL     1       7.471   5.929  16.213  0.00  0.00    +0.000 OA
ATOM     13  O   UNL     1       7.267   4.339  18.151  0.00  0.00    +0.000 OA
BRANCH  11  14
ATOM     14  C   UNL     1       6.000   3.729  15.893  0.00  0.00    +0.000 C 
ATOM     15  F   UNL     1       4.636   3.752  15.843  0.00  0.00    +0.000 F 
ATOM     16  F   UNL     1       6.427   3.873  14.605  0.00  0.00    +0.000 F 
ENDBRANCH  11  14
ENDBRANCH   8  11
ENDBRANCH   3   5
BRANCH   1  17
ATOM     17  C   UNL     1       0.355   9.955  19.268  0.00  0.00    +0.000 C 
BRANCH  17  22
ATOM     18  C   UNL     1      -0.366  12.341  19.065  0.00  0.00    +0.000 C 
ATOM     19  C   UNL     1      -1.660  12.408  19.869  0.00  0.00    +0.000 C 
ATOM     20  C   UNL     1      -2.635  11.650  19.002  0.00  0.00    +0.000 C 
ATOM     21  C   UNL     1      -1.783  10.594  18.315  0.00  0.00    +0.000 C 
ATOM     22  N   UNL     1      -0.347  10.980  18.447  0.00  0.00    +0.000 NA
BRANCH  18  28
ATOM     23  C   UNL     1       2.426  13.298  17.985  0.00  0.00    +0.000 C 
ATOM     24  N   UNL     1       2.017  13.223  19.362  0.00  0.00    +0.000 N 
ATOM     25  C   UNL     1       2.765  13.619  20.428  0.00  0.00    +0.000 A 
ATOM     26  N   UNL     1       2.083  13.439  21.532  0.00  0.00    +0.000 NA
ATOM     27  N   UNL     1       0.866  12.908  21.184  0.00  0.00    +0.000 NA
ATOM     28  C   UNL     1       0.819  12.782  19.869  0.00  0.00    +0.000 A 
ENDBRANCH  18  28
ENDBRANCH  17  22
ENDBRANCH   1  17
TORSDOF 6
ENDMDL
MODEL 3
REMARK VINA RESULT:      -8.3      0.480      1.046
REMARK  Name = 
REMARK  7 active torsions:
REMARK  status: ('A' for Active; 'I' for Inactive)
REMARK    1  A    between atoms: C_1  and  N_2
REMARK    2  A    between atoms: C_6  and  C_7
REMARK    3  A    between atoms: N_11  and  C_12
REMARK    4  A    between atoms: C_12  and  C_13
REMARK    5  A    between atoms: N_15  and  C_16
REMARK    6  A    between atoms: C_19  and  S_20
REMARK    7  A    between atoms: S_20  and  C_23
REMARK                            x       y       z     vdW  Elec       q    Type
REMARK                         _______ _______ _______ _____ _____    ______ ____
ROOT
ATOM      1  C   UNL     1       2.393   5.035  20.201  0.00  0.00    +0.000 C 
ATOM      2  O   UNL     1       1.195   4.774  20.314  0.00  0.00    +0.000 OA
ATOM      3  N   UNL     1       2.915   6.276  19.851  0.00  0.00    +0.000 N 
ATOM      4  H   UNL     1       3.910   6.278  19.651  0.00  0.00    +0.000 HD
ENDROOT
BRANCH   3   5
ATOM      5  C   UNL     1       2.191   7.479  19.699  0.00  0.00    +0.000 A 
ATOM      6  C   UNL     1       2.129   8.176  18.489  0.00  0.00    +0.000 A 
ATOM      7  C   UNL     1       1.429   9.383  18.384  0.00  0.00    +0.000 A 
ATOM      8  C   UNL     1       0.778   9.901  19.499  0.00  0.00    +0.000 A 
ATOM      9  C   UNL     1       0.816   9.216  20.719  0.00  0.00    +0.000 A 
ATOM     10  C   UNL     1       1.502   7.996  20.807  0.00  0.00    +0.000 A 
BRANCH   8  11
ATOM     11  S   UNL     1      -0.040  11.477  19.377  0.00  0.00    +0.000 S 
ATOM     12  O   UNL     1      -0.376  11.888  20.735  0.00  0.00    +0.000 OA
ATOM     13  O   UNL     1       0.799  12.337  18.558  0.00  0.00    +0.000 OA
BRANCH  11  14
ATOM     14  C   UNL     1      -1.547  11.086  18.479  0.00  0.00    +0.000 C 
ATOM     15  F   UNL     1      -1.829   9.750  18.479  0.00  0.00    +0.000 F 
ATOM     16  F   UNL     1      -2.646  11.703  19.004  0.00  0.00    +0.000 F 
ENDBRANCH  11  14
ENDBRANCH   8  11
ENDBRANCH   3   5
BRANCH   1  17
ATOM     17  C   UNL     1       3.449   3.918  20.374  0.00  0.00    +0.000 C 
BRANCH  17  22
ATOM     18  C   UNL     1       4.486   3.611  18.120  0.00  0.00    +0.000 C 
ATOM     19  C   UNL     1       3.620   4.457  17.193  0.00  0.00    +0.000 C 
ATOM     20  C   UNL     1       2.335   3.670  17.121  0.00  0.00    +0.000 C 
ATOM     21  C   UNL     1       2.222   3.011  18.488  0.00  0.00    +0.000 C 
ATOM     22  N   UNL     1       3.556   3.068  19.156  0.00  0.00    +0.000 NA
BRANCH  18  28
ATOM     23  C   UNL     1       6.985   4.396  16.383  0.00  0.00    +0.000 C 
ATOM     24  N   UNL     1       6.777   4.698  17.773  0.00  0.00    +0.000 N 
ATOM     25  C   UNL     1       7.613   5.435  18.553  0.00  0.00    +0.000 A 
ATOM     26  N   UNL     1       7.110   5.540  19.759  0.00  0.00    +0.000 NA
ATOM     27  N   UNL     1       5.923   4.851  19.772  0.00  0.00    +0.000 NA
ATOM     28  C   UNL     1       5.713   4.345  18.568  0.00  0.00    +0.000 A 
ENDBRANCH  18  28
ENDBRANCH  17  22
ENDBRANCH   1  17
TORSDOF 6
ENDMDL
MODEL 4
REMARK VINA RESULT:      -8.2      1.381      1.579
REMARK  Name = 
REMARK  7 active torsions:
REMARK  status: ('A' for Active; 'I' for Inactive)
REMARK    1  A    between atoms: C_1  and  N_2
REMARK    2  A    between atoms: C_6  and  C_7
REMARK    3  A    between atoms: N_11  and  C_12
REMARK    4  A    between atoms: C_12  and  C_13
REMARK    5  A    between atoms: N_15  and  C_16
REMARK    6  A    between atoms: C_19  and  S_20
REMARK    7  A    between atoms: S_20  and  C_23
REMARK                            x       y       z     vdW  Elec       q    Type
REMARK                         _______ _______ _______ _____ _____    ______ ____
ROOT
ATOM      1  C   UNL     1       2.402   4.958  20.282  0.00  0.00    +0.000 C 
ATOM      2  O   UNL     1       1.213   4.689  20.446  0.00  0.00    +0.000 OA
ATOM      3  N   UNL     1       2.903   6.209  19.939  0.00  0.00    +0.000 N 
ATOM      4  H   UNL     1       3.887   6.221  19.691  0.00  0.00    +0.000 HD
ENDROOT
BRANCH   3   5
ATOM      5  C   UNL     1       2.168   7.413  19.853  0.00  0.00    +0.000 A 
ATOM      6  C   UNL     1       1.476   7.955  20.940  0.00  0.00    +0.000 A 
ATOM      7  C   UNL     1       0.731   9.132  20.810  0.00  0.00    +0.000 A 
ATOM      8  C   UNL     1       0.678   9.781  19.580  0.00  0.00    +0.000 A 
ATOM      9  C   UNL     1       1.372   9.265  18.479  0.00  0.00    +0.000 A 
ATOM     10  C   UNL     1       2.134   8.096  18.628  0.00  0.00    +0.000 A 
BRANCH   8  11
ATOM     11  S   UNL     1      -0.338  11.232  19.403  0.00  0.00    +0.000 S 
ATOM     12  O   UNL     1      -1.002  11.131  18.109  0.00  0.00    +0.000 OA
ATOM     13  O   UNL     1      -1.140  11.347  20.611  0.00  0.00    +0.000 OA
BRANCH  11  14
ATOM     14  C   UNL     1       0.864  12.568  19.358  0.00  0.00    +0.000 C 
ATOM     15  F   UNL     1       1.849  12.423  20.292  0.00  0.00    +0.000 F 
ATOM     16  F   UNL     1       1.498  12.662  18.153  0.00  0.00    +0.000 F 
ENDBRANCH  11  14
ENDBRANCH   8  11
ENDBRANCH   3   5
BRANCH   1  17
ATOM     17  C   UNL     1       3.469   3.841  20.375  0.00  0.00    +0.000 C 
BRANCH  17  22
ATOM     18  C   UNL     1       4.462   3.642  18.089  0.00  0.00    +0.000 C 
ATOM     19  C   UNL     1       3.580   4.533  17.221  0.00  0.00    +0.000 C 
ATOM     20  C   UNL     1       2.292   3.751  17.137  0.00  0.00    +0.000 C 
ATOM     21  C   UNL     1       2.204   3.028  18.472  0.00  0.00    +0.000 C 
ATOM     22  N   UNL     1       3.550   3.051  19.116  0.00  0.00    +0.000 NA
BRANCH  18  28
ATOM     23  C   UNL     1       6.980   4.400  16.369  0.00  0.00    +0.000 C 
ATOM     24  N   UNL     1       6.771   4.693  17.761  0.00  0.00    +0.000 N 
ATOM     25  C   UNL     1       7.617   5.410  18.550  0.00  0.00    +0.000 A 
ATOM     26  N   UNL     1       7.111   5.513  19.755  0.00  0.00    +0.000 NA
ATOM     27  N   UNL     1       5.913   4.844  19.757  0.00  0.00    +0.000 NA
ATOM     28  C   UNL     1       5.699   4.352  18.549  0.00  0.00    +0.000 A 
ENDBRANCH  18  28
ENDBRANCH  17  22
ENDBRANCH   1  17
TORSDOF 6
ENDMDL
MODEL 5
REMARK VINA RESULT:      -8.1      4.865      8.367
REMARK  Name = 
REMARK  7 active torsions:
REMARK  status: ('A' for Active; 'I' for Inactive)
REMARK    1  A    between atoms: C_1  and  N_2
REMARK    2  A    between atoms: C_6  and  C_7
REMARK    3  A    between atoms: N_11  and  C_12
REMARK    4  A    between atoms: C_12  and  C_13
REMARK    5  A    between atoms: N_15  and  C_16
REMARK    6  A    between atoms: C_19  and  S_20
REMARK    7  A    between atoms: S_20  and  C_23
REMARK                            x       y       z     vdW  Elec       q    Type
REMARK                         _______ _______ _______ _____ _____    ______ ____
ROOT
ATOM      1  C   UNL     1       1.086   9.367  19.383  0.00  0.00    +0.000 C 
ATOM      2  O   UNL     1       1.081   9.340  18.152  0.00  0.00    +0.000 OA
ATOM      3  N   UNL     1       1.498   8.325  20.207  0.00  0.00    +0.000 N 
ATOM      4  H   UNL     1       1.292   8.455  21.192  0.00  0.00    +0.000 HD
ENDROOT
BRANCH   3   5
ATOM      5  C   UNL     1       2.105   7.118  19.796  0.00  0.00    +0.000 A 
ATOM      6  C   UNL     1       1.951   5.918  20.497  0.00  0.00    +0.000 A 
ATOM      7  C   UNL     1       2.595   4.748  20.079  0.00  0.00    +0.000 A 
ATOM      8  C   UNL     1       3.399   4.773  18.944  0.00  0.00    +0.000 A 
ATOM      9  C   UNL     1       3.559   5.959  18.218  0.00  0.00    +0.000 A 
ATOM     10  C   UNL     1       2.891   7.121  18.634  0.00  0.00    +0.000 A 
BRANCH   8  11
ATOM     11  S   UNL     1       4.279   3.301  18.466  0.00  0.00    +0.000 S 
ATOM     12  O   UNL     1       5.101   3.652  17.314  0.00  0.00    +0.000 OA
ATOM     13  O   UNL     1       4.914   2.770  19.662  0.00  0.00    +0.000 OA
BRANCH  11  14
ATOM     14  C   UNL     1       2.964   2.191  17.948  0.00  0.00    +0.000 C 
ATOM     15  F   UNL     1       2.293   1.639  19.001  0.00  0.00    +0.000 F 
ATOM     16  F   UNL     1       2.020   2.816  17.185  0.00  0.00    +0.000 F 
ENDBRANCH  11  14
ENDBRANCH   8  11
ENDBRANCH   3   5
BRANCH   1  17
ATOM     17  C   UNL     1       0.531  10.601  20.132  0.00  0.00    +0.000 C 
BRANCH  17  22
ATOM     18  C   UNL     1      -0.012  12.993  19.647  0.00  0.00    +0.000 C 
ATOM     19  C   UNL     1      -1.282  13.257  20.449  0.00  0.00    +0.000 C 
ATOM     20  C   UNL     1      -2.327  12.476  19.690  0.00  0.00    +0.000 C 
ATOM     21  C   UNL     1      -1.570  11.282  19.129  0.00  0.00    +0.000 C 
ATOM     22  N   UNL     1      -0.107  11.570  19.199  0.00  0.00    +0.000 NA
BRANCH  18  28
ATOM     23  C   UNL     1       2.858  13.459  18.455  0.00  0.00    +0.000 C 
ATOM     24  N   UNL     1       2.453  13.658  19.819  0.00  0.00    +0.000 N 
ATOM     25  C   UNL     1       3.244  14.146  20.813  0.00  0.00    +0.000 A 
ATOM     26  N   UNL     1       2.554  14.226  21.924  0.00  0.00    +0.000 NA
ATOM     27  N   UNL     1       1.286  13.774  21.656  0.00  0.00    +0.000 NA
ATOM     28  C   UNL     1       1.218  13.436  20.379  0.00  0.00    +0.000 A 
ENDBRANCH  18  28
ENDBRANCH  17  22
ENDBRANCH   1  17
TORSDOF 6
ENDMDL
MODEL 6
REMARK VINA RESULT:      -8.1      5.053      8.285
REMARK  Name = 
REMARK  7 active torsions:
REMARK  status: ('A' for Active; 'I' for Inactive)
REMARK    1  A    between atoms: C_1  and  N_2
REMARK    2  A    between atoms: C_6  and  C_7
REMARK    3  A    between atoms: N_11  and  C_12
REMARK    4  A    between atoms: C_12  and  C_13
REMARK    5  A    between atoms: N_15  and  C_16
REMARK    6  A    between atoms: C_19  and  S_20
REMARK    7  A    between atoms: S_20  and  C_23
REMARK                            x       y       z     vdW  Elec       q    Type
REMARK                         _______ _______ _______ _____ _____    ______ ____
ROOT
ATOM      1  C   UNL     1       1.037   9.084  20.566  0.00  0.00    +0.000 C 
ATOM      2  O   UNL     1       1.464   8.633  21.628  0.00  0.00    +0.000 OA
ATOM      3  N   UNL     1       1.461   8.695  19.300  0.00  0.00    +0.000 N 
ATOM      4  H   UNL     1       1.119   9.275  18.540  0.00  0.00    +0.000 HD
ENDROOT
BRANCH   3   5
ATOM      5  C   UNL     1       2.342   7.633  18.998  0.00  0.00    +0.000 A 
ATOM      6  C   UNL     1       2.437   6.483  19.788  0.00  0.00    +0.000 A 
ATOM      7  C   UNL     1       3.346   5.465  19.478  0.00  0.00    +0.000 A 
ATOM      8  C   UNL     1       4.168   5.593  18.363  0.00  0.00    +0.000 A 
ATOM      9  C   UNL     1       4.083   6.729  17.549  0.00  0.00    +0.000 A 
ATOM     10  C   UNL     1       3.153   7.733  17.858  0.00  0.00    +0.000 A 
BRANCH   8  11
ATOM     11  S   UNL     1       5.377   4.331  18.022  0.00  0.00    +0.000 S 
ATOM     12  O   UNL     1       5.451   3.483  19.206  0.00  0.00    +0.000 OA
ATOM     13  O   UNL     1       5.032   3.738  16.739  0.00  0.00    +0.000 OA
BRANCH  11  14
ATOM     14  C   UNL     1       6.904   5.264  17.855  0.00  0.00    +0.000 C 
ATOM     15  F   UNL     1       7.136   6.090  18.917  0.00  0.00    +0.000 F 
ATOM     16  F   UNL     1       8.002   4.459  17.757  0.00  0.00    +0.000 F 
ENDBRANCH  11  14
ENDBRANCH   8  11
ENDBRANCH   3   5
BRANCH   1  17
ATOM     17  C   UNL     1      -0.001  10.232  20.573  0.00  0.00    +0.000 C 
BRANCH  17  22
ATOM     18  C   UNL     1       0.004  12.304  19.175  0.00  0.00    +0.000 C 
ATOM     19  C   UNL     1      -1.387  12.895  19.380  0.00  0.00    +0.000 C 
ATOM     20  C   UNL     1      -2.274  11.938  18.622  0.00  0.00    +0.000 C 
ATOM     21  C   UNL     1      -1.583  10.591  18.770  0.00  0.00    +0.000 C 
ATOM     22  N   UNL     1      -0.179  10.822  19.217  0.00  0.00    +0.000 NA
BRANCH  18  28
ATOM     23  C   UNL     1       2.893  13.285  18.419  0.00  0.00    +0.000 C 
ATOM     24  N   UNL     1       2.266  13.375  19.709  0.00  0.00    +0.000 N 
ATOM     25  C   UNL     1       2.809  13.963  20.809  0.00  0.00    +0.000 A 
ATOM     26  N   UNL     1       1.963  13.894  21.807  0.00  0.00    +0.000 NA
ATOM     27  N   UNL     1       0.844  13.240  21.354  0.00  0.00    +0.000 NA
ATOM     28  C   UNL     1       1.020  12.931  20.081  0.00  0.00    +0.000 A 
ENDBRANCH  18  28
ENDBRANCH  17  22
ENDBRANCH   1  17
TORSDOF 6
ENDMDL
MODEL 7
REMARK VINA RESULT:      -8.1      4.855      8.424
REMARK  Name = 
REMARK  7 active torsions:
REMARK  status: ('A' for Active; 'I' for Inactive)
REMARK    1  A    between atoms: C_1  and  N_2
REMARK    2  A    between atoms: C_6  and  C_7
REMARK    3  A    between atoms: N_11  and  C_12
REMARK    4  A    between atoms: C_12  and  C_13
REMARK    5  A    between atoms: N_15  and  C_16
REMARK    6  A    between atoms: C_19  and  S_20
REMARK    7  A    between atoms: S_20  and  C_23
REMARK                            x       y       z     vdW  Elec       q    Type
REMARK                         _______ _______ _______ _____ _____    ______ ____
ROOT
ATOM      1  C   UNL     1       0.847   9.676  19.639  0.00  0.00    +0.000 C 
ATOM      2  O   UNL     1       0.634   9.638  18.428  0.00  0.00    +0.000 OA
ATOM      3  N   UNL     1       1.403   8.645  20.389  0.00  0.00    +0.000 N 
ATOM      4  H   UNL     1       1.366   8.781  21.394  0.00  0.00    +0.000 HD
ENDROOT
BRANCH   3   5
ATOM      5  C   UNL     1       1.945   7.440  19.889  0.00  0.00    +0.000 A 
ATOM      6  C   UNL     1       2.611   7.364  18.662  0.00  0.00    +0.000 A 
ATOM      7  C   UNL     1       3.106   6.146  18.182  0.00  0.00    +0.000 A 
ATOM      8  C   UNL     1       2.939   4.989  18.937  0.00  0.00    +0.000 A 
ATOM      9  C   UNL     1       2.287   5.042  20.174  0.00  0.00    +0.000 A 
ATOM     10  C   UNL     1       1.815   6.272  20.655  0.00  0.00    +0.000 A 
BRANCH   8  11
ATOM     11  S   UNL     1       3.500   3.432  18.282  0.00  0.00    +0.000 S 
ATOM     12  O   UNL     1       3.944   3.681  16.915  0.00  0.00    +0.000 OA
ATOM     13  O   UNL     1       4.434   2.869  19.245  0.00  0.00    +0.000 OA
BRANCH  11  14
ATOM     14  C   UNL     1       2.003   2.438  18.254  0.00  0.00    +0.000 C 
ATOM     15  F   UNL     1       1.781   1.785  19.433  0.00  0.00    +0.000 F 
ATOM     16  F   UNL     1       0.883   3.183  18.020  0.00  0.00    +0.000 F 
ENDBRANCH  11  14
ENDBRANCH   8  11
ENDBRANCH   3   5
BRANCH   1  17
ATOM     17  C   UNL     1       0.414  10.911  20.464  0.00  0.00    +0.000 C 
BRANCH  17  22
ATOM     18  C   UNL     1      -0.005  13.342  20.059  0.00  0.00    +0.000 C 
ATOM     19  C   UNL     1      -1.163  13.681  20.992  0.00  0.00    +0.000 C 
ATOM     20  C   UNL     1      -2.334  12.988  20.340  0.00  0.00    +0.000 C 
ATOM     21  C   UNL     1      -1.726  11.753  19.692  0.00  0.00    +0.000 C 
ATOM     22  N   UNL     1      -0.247  11.937  19.611  0.00  0.00    +0.000 NA
BRANCH  18  28
ATOM     23  C   UNL     1       2.778  13.478  18.605  0.00  0.00    +0.000 C 
ATOM     24  N   UNL     1       2.518  13.765  19.990  0.00  0.00    +0.000 N 
ATOM     25  C   UNL     1       3.439  14.206  20.889  0.00  0.00    +0.000 A 
ATOM     26  N   UNL     1       2.862  14.394  22.051  0.00  0.00    +0.000 NA
ATOM     27  N   UNL     1       1.537  14.061  21.913  0.00  0.00    +0.000 NA
ATOM     28  C   UNL     1       1.323  13.687  20.663  0.00  0.00    +0.000 A 
ENDBRANCH  18  28
ENDBRANCH  17  22
ENDBRANCH   1  17
TORSDOF 6
ENDMDL
MODEL 8
REMARK VINA RESULT:      -8.1      4.908      8.357
REMARK  Name = 
REMARK  7 active torsions:
REMARK  status: ('A' for Active; 'I' for Inactive)
REMARK    1  A    between atoms: C_1  and  N_2
REMARK    2  A    between atoms: C_6  and  C_7
REMARK    3  A    between atoms: N_11  and  C_12
REMARK    4  A    between atoms: C_12  and  C_13
REMARK    5  A    between atoms: N_15  and  C_16
REMARK    6  A    between atoms: C_19  and  S_20
REMARK    7  A    between atoms: S_20  and  C_23
REMARK                            x       y       z     vdW  Elec       q    Type
REMARK                         _______ _______ _______ _____ _____    ______ ____
ROOT
ATOM      1  C   UNL     1       0.413  10.377  21.715  0.00  0.00    +0.000 C 
ATOM      2  O   UNL     1       1.056   9.869  22.633  0.00  0.00    +0.000 OA
ATOM      3  N   UNL     1       0.499  10.010  20.376  0.00  0.00    +0.000 N 
ATOM      4  H   UNL     1       0.019  10.631  19.733  0.00  0.00    +0.000 HD
ENDROOT
BRANCH   3   5
ATOM      5  C   UNL     1       1.221   8.917  19.849  0.00  0.00    +0.000 A 
ATOM      6  C   UNL     1       1.465   7.750  20.579  0.00  0.00    +0.000 A 
ATOM      7  C   UNL     1       2.215   6.700  20.037  0.00  0.00    +0.000 A 
ATOM      8  C   UNL     1       2.723   6.812  18.747  0.00  0.00    +0.000 A 
ATOM      9  C   UNL     1       2.482   7.964  17.991  0.00  0.00    +0.000 A 
ATOM     10  C   UNL     1       1.711   9.002  18.537  0.00  0.00    +0.000 A 
BRANCH   8  11
ATOM     11  S   UNL     1       3.742   5.505  18.096  0.00  0.00    +0.000 S 
ATOM     12  O   UNL     1       4.335   6.005  16.861  0.00  0.00    +0.000 OA
ATOM     13  O   UNL     1       4.609   5.056  19.173  0.00  0.00    +0.000 OA
BRANCH  11  14
ATOM     14  C   UNL     1       2.553   4.214  17.710  0.00  0.00    +0.000 C 
ATOM     15  F   UNL     1       1.316   4.708  17.413  0.00  0.00    +0.000 F 
ATOM     16  F   UNL     1       2.927   3.461  16.635  0.00  0.00    +0.000 F 
ENDBRANCH  11  14
ENDBRANCH   8  11
ENDBRANCH   3   5
BRANCH   1  17
ATOM     17  C   UNL     1      -0.527  11.573  21.996  0.00  0.00    +0.000 C 
BRANCH  17  22
ATOM     18  C   UNL     1      -0.380  13.609  20.552  0.00  0.00    +0.000 C 
ATOM     19  C   UNL     1      -1.397  14.570  21.159  0.00  0.00    +0.000 C 
ATOM     20  C   UNL     1      -2.717  13.942  20.784  0.00  0.00    +0.000 C 
ATOM     21  C   UNL     1      -2.434  12.448  20.779  0.00  0.00    +0.000 C 
ATOM     22  N   UNL     1      -0.957  12.243  20.737  0.00  0.00    +0.000 NA
BRANCH  18  28
ATOM     23  C   UNL     1       2.326  12.890  19.124  0.00  0.00    +0.000 C 
ATOM     24  N   UNL     1       2.173  13.573  20.380  0.00  0.00    +0.000 N 
ATOM     25  C   UNL     1       3.189  14.079  21.130  0.00  0.00    +0.000 A 
ATOM     26  N   UNL     1       2.699  14.661  22.197  0.00  0.00    +0.000 NA
ATOM     27  N   UNL     1       1.334  14.528  22.149  0.00  0.00    +0.000 NA
ATOM     28  C   UNL     1       1.010  13.876  21.045  0.00  0.00    +0.000 A 
ENDBRANCH  18  28
ENDBRANCH  17  22
ENDBRANCH   1  17
TORSDOF 6
ENDMDL
MODEL 9
REMARK VINA RESULT:      -8.1      4.824      8.161
REMARK  Name = 
REMARK  7 active torsions:
REMARK  status: ('A' for Active; 'I' for Inactive)
REMARK    1  A    between atoms: C_1  and  N_2
REMARK    2  A    between atoms: C_6  and  C_7
REMARK    3  A    between atoms: N_11  and  C_12
REMARK    4  A    between atoms: C_12  and  C_13
REMARK    5  A    between atoms: N_15  and  C_16
REMARK    6  A    between atoms: C_19  and  S_20
REMARK    7  A    between atoms: S_20  and  C_23
REMARK                            x       y       z     vdW  Elec       q    Type
REMARK                         _______ _______ _______ _____ _____    ______ ____
ROOT
ATOM      1  C   UNL     1       1.003   9.184  20.770  0.00  0.00    +0.000 C 
ATOM      2  O   UNL     1       1.255   8.587  21.817  0.00  0.00    +0.000 OA
ATOM      3  N   UNL     1       1.485   8.837  19.512  0.00  0.00    +0.000 N 
ATOM      4  H   UNL     1       1.308   9.522  18.785  0.00  0.00    +0.000 HD
ENDROOT
BRANCH   3   5
ATOM      5  C   UNL     1       2.225   7.679  19.186  0.00  0.00    +0.000 A 
ATOM      6  C   UNL     1       2.230   6.535  19.989  0.00  0.00    +0.000 A 
ATOM      7  C   UNL     1       3.002   5.417  19.652  0.00  0.00    +0.000 A 
ATOM      8  C   UNL     1       3.776   5.439  18.495  0.00  0.00    +0.000 A 
ATOM      9  C   UNL     1       3.778   6.568  17.668  0.00  0.00    +0.000 A 
ATOM     10  C   UNL     1       2.983   7.674  18.005  0.00  0.00    +0.000 A 
BRANCH   8  11
ATOM     11  S   UNL     1       4.816   4.045  18.117  0.00  0.00    +0.000 S 
ATOM     12  O   UNL     1       5.597   4.404  16.939  0.00  0.00    +0.000 OA
ATOM     13  O   UNL     1       5.505   3.675  19.344  0.00  0.00    +0.000 OA
BRANCH  11  14
ATOM     14  C   UNL     1       3.636   2.760  17.686  0.00  0.00    +0.000 C 
ATOM     15  F   UNL     1       3.105   2.142  18.782  0.00  0.00    +0.000 F 
ATOM     16  F   UNL     1       2.576   3.239  16.973  0.00  0.00    +0.000 F 
ENDBRANCH  11  14
ENDBRANCH   8  11
ENDBRANCH   3   5
BRANCH   1  17
ATOM     17  C   UNL     1       0.150  10.474  20.800  0.00  0.00    +0.000 C 
BRANCH  17  22
ATOM     18  C   UNL     1       0.118  12.510  19.349  0.00  0.00    +0.000 C 
ATOM     19  C   UNL     1      -1.271  13.101  19.567  0.00  0.00    +0.000 C 
ATOM     20  C   UNL     1      -2.169  12.121  18.853  0.00  0.00    +0.000 C 
ATOM     21  C   UNL     1      -1.470  10.781  19.021  0.00  0.00    +0.000 C 
ATOM     22  N   UNL     1      -0.058  11.028  19.434  0.00  0.00    +0.000 NA
BRANCH  18  28
ATOM     23  C   UNL     1       2.994  13.462  18.513  0.00  0.00    +0.000 C 
ATOM     24  N   UNL     1       2.390  13.593  19.811  0.00  0.00    +0.000 N 
ATOM     25  C   UNL     1       2.953  14.215  20.882  0.00  0.00    +0.000 A 
ATOM     26  N   UNL     1       2.123  14.179  21.896  0.00  0.00    +0.000 NA
ATOM     27  N   UNL     1       0.996  13.512  21.483  0.00  0.00    +0.000 NA
ATOM     28  C   UNL     1       1.150  13.163  20.218  0.00  0.00    +0.000 A 
ENDBRANCH  18  28
ENDBRANCH  17  22
ENDBRANCH   1  17
TORSDOF 6
ENDMDL
