MODEL 1
REMARK VINA RESULT:      -8.3      0.000      0.000
REMARK  Name = 
REMARK  8 active torsions:
REMARK  status: ('A' for Active; 'I' for Inactive)
REMARK    1  A    between atoms: C_2  and  O_3
REMARK    2  A    between atoms: C_2  and  C_4
REMARK    3  A    between atoms: N_8  and  C_9
REMARK    4  A    between atoms: C_9  and  C_10
REMARK    5  A    between atoms: C_10  and  O_11
REMARK    6  A    between atoms: O_11  and  C_12
REMARK    7  A    between atoms: C_12  and  C_13
REMARK    8  A    between atoms: C_13  and  N_14
REMARK                            x       y       z     vdW  Elec       q    Type
REMARK                         _______ _______ _______ _____ _____    ______ ____
ROOT
ATOM      1  N   UNL     1       3.072   5.771  18.937  0.00  0.00    +0.000 N 
ATOM      2  C   UNL     1       2.444   4.744  19.651  0.00  0.00    +0.000 A 
ATOM      3  C   UNL     1       2.595   4.669  21.046  0.00  0.00    +0.000 A 
ATOM      4  C   UNL     1       2.020   3.625  21.762  0.00  0.00    +0.000 A 
ATOM      5  C   UNL     1       1.271   2.660  21.091  0.00  0.00    +0.000 A 
ATOM      6  C   UNL     1       1.097   2.738  19.711  0.00  0.00    +0.000 A 
ATOM      7  C   UNL     1       1.687   3.773  18.985  0.00  0.00    +0.000 A 
ATOM      8  C   UNL     1       1.543   3.881  17.489  0.00  0.00    +0.000 C 
ATOM      9  C   UNL     1       2.873   3.628  16.776  0.00  0.00    +0.000 C 
ATOM     10  C   UNL     1       4.030   4.592  16.989  0.00  0.00    +0.000 A 
ATOM     11  C   UNL     1       5.126   4.439  16.110  0.00  0.00    +0.000 A 
ATOM     12  C   UNL     1       6.252   5.255  16.201  0.00  0.00    +0.000 A 
ATOM     13  C   UNL     1       6.303   6.235  17.179  0.00  0.00    +0.000 A 
ATOM     14 CL   UNL     1       7.694   7.238  17.315  0.00  0.00    +0.000 Cl
ATOM     15  C   UNL     1       5.237   6.402  18.060  0.00  0.00    +0.000 A 
ATOM     16  C   UNL     1       4.086   5.591  17.984  0.00  0.00    +0.000 A 
ENDROOT
BRANCH   1  17
ATOM     17  C   UNL     1       2.490   7.101  19.139  0.00  0.00    +0.000 C 
BRANCH  17  18
ATOM     18  C   UNL     1       1.821   7.647  17.863  0.00  0.00    +0.000 C 
BRANCH  18  19
ATOM     19  O   UNL     1       2.339   8.913  17.444  0.00  0.00    +0.000 OA
BRANCH  19  20
ATOM     20  C   UNL     1       1.741  10.047  18.070  0.00  0.00    +0.000 C 
BRANCH  20  21
ATOM     21  C   UNL     1       0.206   9.960  18.133  0.00  0.00    +0.000 C 
BRANCH  21  26
ATOM     22  C   UNL     1       0.161  11.633  21.493  0.00  0.00    +0.000 C 
ATOM     23  C   UNL     1      -0.949  12.663  21.273  0.00  0.00    +0.000 C 
ATOM     24  C   UNL     1      -2.002  12.160  20.288  0.00  0.00    +0.000 C 
ATOM     25  C   UNL     1      -1.373  11.599  19.013  0.00  0.00    +0.000 C 
ATOM     26  N   UNL     1      -0.366  10.572  19.342  0.00  0.00    +0.000 NA
ATOM     27  C   UNL     1       0.725  11.158  20.156  0.00  0.00    +0.000 C 
BRANCH  22  29
ATOM     28  O   UNL     1      -0.929  10.648  23.412  0.00  0.00    +0.000 OA
ATOM     29  C   UNL     1      -0.322  10.480  22.359  0.00  0.00    +0.000 C 
BRANCH  29  30
ATOM     30  O   UNL     1      -0.101   9.243  21.858  0.00  0.00    +0.000 OA
ATOM     31  H   UNL     1      -0.407   9.182  20.922  0.00  0.00    +0.000 HD
ENDBRANCH  29  30
ENDBRANCH  22  29
ENDBRANCH  21  26
ENDBRANCH  20  21
ENDBRANCH  19  20
ENDBRANCH  18  19
ENDBRANCH  17  18
ENDBRANCH   1  17
TORSDOF 8
ENDMDL
MODEL 2
REMARK VINA RESULT:      -8.0      1.195      1.627
REMARK  Name = 
REMARK  8 active torsions:
REMARK  status: ('A' for Active; 'I' for Inactive)
REMARK    1  A    between atoms: C_2  and  O_3
REMARK    2  A    between atoms: C_2  and  C_4
REMARK    3  A    between atoms: N_8  and  C_9
REMARK    4  A    between atoms: C_9  and  C_10
REMARK    5  A    between atoms: C_10  and  O_11
REMARK    6  A    between atoms: O_11  and  C_12
REMARK    7  A    between atoms: C_12  and  C_13
REMARK    8  A    between atoms: C_13  and  N_14
REMARK                            x       y       z     vdW  Elec       q    Type
REMARK                         _______ _______ _______ _____ _____    ______ ____
ROOT
ATOM      1  N   UNL     1       3.293   5.693  19.050  0.00  0.00    +0.000 N 
ATOM      2  C   UNL     1       2.581   4.660  19.669  0.00  0.00    +0.000 A 
ATOM      3  C   UNL     1       2.543   4.579  21.071  0.00  0.00    +0.000 A 
ATOM      4  C   UNL     1       1.883   3.530  21.699  0.00  0.00    +0.000 A 
ATOM      5  C   UNL     1       1.237   2.563  20.931  0.00  0.00    +0.000 A 
ATOM      6  C   UNL     1       1.251   2.645  19.540  0.00  0.00    +0.000 A 
ATOM      7  C   UNL     1       1.927   3.687  18.904  0.00  0.00    +0.000 A 
ATOM      8  C   UNL     1       1.986   3.800  17.402  0.00  0.00    +0.000 C 
ATOM      9  C   UNL     1       3.402   3.557  16.875  0.00  0.00    +0.000 C 
ATOM     10  C   UNL     1       4.513   4.527  17.245  0.00  0.00    +0.000 A 
ATOM     11  C   UNL     1       5.718   4.384  16.522  0.00  0.00    +0.000 A 
ATOM     12  C   UNL     1       6.816   5.206  16.767  0.00  0.00    +0.000 A 
ATOM     13  C   UNL     1       6.729   6.182  17.746  0.00  0.00    +0.000 A 
ATOM     14 CL   UNL     1       8.083   7.193  18.071  0.00  0.00    +0.000 Cl
ATOM     15  C   UNL     1       5.553   6.340  18.475  0.00  0.00    +0.000 A 
ATOM     16  C   UNL     1       4.428   5.523  18.242  0.00  0.00    +0.000 A 
ENDROOT
BRANCH   1  17
ATOM     17  C   UNL     1       2.681   7.019  19.176  0.00  0.00    +0.000 C 
BRANCH  17  18
ATOM     18  C   UNL     1       2.102   7.525  17.841  0.00  0.00    +0.000 C 
BRANCH  18  19
ATOM     19  O   UNL     1       2.103   8.951  17.723  0.00  0.00    +0.000 OA
BRANCH  19  20
ATOM     20  C   UNL     1       0.939   9.600  18.231  0.00  0.00    +0.000 C 
BRANCH  20  21
ATOM     21  C   UNL     1       1.249  10.938  18.923  0.00  0.00    +0.000 C 
BRANCH  21  26
ATOM     22  C   UNL     1      -1.111  11.749  21.727  0.00  0.00    +0.000 C 
ATOM     23  C   UNL     1      -0.999  10.471  22.560  0.00  0.00    +0.000 C 
ATOM     24  C   UNL     1       0.386   9.839  22.445  0.00  0.00    +0.000 C 
ATOM     25  C   UNL     1       0.839   9.710  20.992  0.00  0.00    +0.000 C 
ATOM     26  N   UNL     1       0.751  11.012  20.306  0.00  0.00    +0.000 NA
ATOM     27  C   UNL     1      -0.649  11.499  20.294  0.00  0.00    +0.000 C 
BRANCH  22  29
ATOM     28  O   UNL     1      -0.630  13.314  23.506  0.00  0.00    +0.000 OA
ATOM     29  C   UNL     1      -0.361  12.900  22.383  0.00  0.00    +0.000 C 
BRANCH  29  30
ATOM     30  O   UNL     1       0.677  13.398  21.673  0.00  0.00    +0.000 OA
ATOM     31  H   UNL     1       1.503  13.401  22.211  0.00  0.00    +0.000 HD
ENDBRANCH  29  30
ENDBRANCH  22  29
ENDBRANCH  21  26
ENDBRANCH  20  21
ENDBRANCH  19  20
ENDBRANCH  18  19
ENDBRANCH  17  18
ENDBRANCH   1  17
TORSDOF 8
ENDMDL
MODEL 3
REMARK VINA RESULT:      -7.9      2.989      8.102
REMARK  Name = 
REMARK  8 active torsions:
REMARK  status: ('A' for Active; 'I' for Inactive)
REMARK    1  A    between atoms: C_2  and  O_3
REMARK    2  A    between atoms: C_2  and  C_4
REMARK    3  A    between atoms: N_8  and  C_9
REMARK    4  A    between atoms: C_9  and  C_10
REMARK    5  A    between atoms: C_10  and  O_11
REMARK    6  A    between atoms: O_11  and  C_12
REMARK    7  A    between atoms: C_12  and  C_13
REMARK    8  A    between atoms: C_13  and  N_14
REMARK                            x       y       z     vdW  Elec       q    Type
REMARK                         _______ _______ _______ _____ _____    ______ ____
ROOT
ATOM      1  N   UNL     1      -0.373  10.435  19.214  0.00  0.00    +0.000 N 
ATOM      2  C   UNL     1      -0.379  10.199  20.594  0.00  0.00    +0.000 A 
ATOM      3  C   UNL     1      -0.045   8.927  21.087  0.00  0.00    +0.000 A 
ATOM      4  C   UNL     1      -0.097   8.664  22.451  0.00  0.00    +0.000 A 
ATOM      5  C   UNL     1      -0.464   9.677  23.335  0.00  0.00    +0.000 A 
ATOM      6  C   UNL     1      -0.776  10.948  22.858  0.00  0.00    +0.000 A 
ATOM      7  C   UNL     1      -0.743  11.213  21.488  0.00  0.00    +0.000 A 
ATOM      8  C   UNL     1      -1.096  12.567  20.929  0.00  0.00    +0.000 C 
ATOM      9  C   UNL     1      -2.400  12.522  20.129  0.00  0.00    +0.000 C 
ATOM     10  C   UNL     1      -2.466  11.697  18.854  0.00  0.00    +0.000 A 
ATOM     11  C   UNL     1      -3.605  11.908  18.045  0.00  0.00    +0.000 A 
ATOM     12  C   UNL     1      -3.790  11.212  16.852  0.00  0.00    +0.000 A 
ATOM     13  C   UNL     1      -2.840  10.286  16.451  0.00  0.00    +0.000 A 
ATOM     14 CL   UNL     1      -3.064   9.406  14.990  0.00  0.00    +0.000 Cl
ATOM     15  C   UNL     1      -1.711  10.057  17.234  0.00  0.00    +0.000 A 
ATOM     16  C   UNL     1      -1.501  10.753  18.442  0.00  0.00    +0.000 A 
ENDROOT
BRANCH   1  17
ATOM     17  C   UNL     1       0.960  10.476  18.607  0.00  0.00    +0.000 C 
BRANCH  17  18
ATOM     18  C   UNL     1       1.371   9.119  18.006  0.00  0.00    +0.000 C 
BRANCH  18  19
ATOM     19  O   UNL     1       2.336   8.415  18.794  0.00  0.00    +0.000 OA
BRANCH  19  20
ATOM     20  C   UNL     1       3.025   7.369  18.112  0.00  0.00    +0.000 C 
BRANCH  20  21
ATOM     21  C   UNL     1       2.142   6.136  17.850  0.00  0.00    +0.000 C 
BRANCH  21  26
ATOM     22  C   UNL     1       1.763   3.018  19.906  0.00  0.00    +0.000 C 
ATOM     23  C   UNL     1       2.811   2.122  19.244  0.00  0.00    +0.000 C 
ATOM     24  C   UNL     1       3.982   2.932  18.691  0.00  0.00    +0.000 C 
ATOM     25  C   UNL     1       3.513   4.117  17.848  0.00  0.00    +0.000 C 
ATOM     26  N   UNL     1       2.557   4.946  18.608  0.00  0.00    +0.000 NA
ATOM     27  C   UNL     1       1.357   4.154  18.970  0.00  0.00    +0.000 C 
BRANCH  22  29
ATOM     28  O   UNL     1       2.600   2.778  22.161  0.00  0.00    +0.000 OA
ATOM     29  C   UNL     1       2.248   3.527  21.255  0.00  0.00    +0.000 C 
BRANCH  29  30
ATOM     30  O   UNL     1       2.337   4.872  21.373  0.00  0.00    +0.000 OA
ATOM     31  H   UNL     1       3.219   5.195  21.073  0.00  0.00    +0.000 HD
ENDBRANCH  29  30
ENDBRANCH  22  29
ENDBRANCH  21  26
ENDBRANCH  20  21
ENDBRANCH  19  20
ENDBRANCH  18  19
ENDBRANCH  17  18
ENDBRANCH   1  17
TORSDOF 8
ENDMDL
MODEL 4
REMARK VINA RESULT:      -7.8      1.758      2.204
REMARK  Name = 
REMARK  8 active torsions:
REMARK  status: ('A' for Active; 'I' for Inactive)
REMARK    1  A    between atoms: C_2  and  O_3
REMARK    2  A    between atoms: C_2  and  C_4
REMARK    3  A    between atoms: N_8  and  C_9
REMARK    4  A    between atoms: C_9  and  C_10
REMARK    5  A    between atoms: C_10  and  O_11
REMARK    6  A    between atoms: O_11  and  C_12
REMARK    7  A    between atoms: C_12  and  C_13
REMARK    8  A    between atoms: C_13  and  N_14
REMARK                            x       y       z     vdW  Elec       q    Type
REMARK                         _______ _______ _______ _____ _____    ______ ____
ROOT
ATOM      1  N   UNL     1       3.136   5.842  18.837  0.00  0.00    +0.000 N 
ATOM      2  C   UNL     1       2.493   4.835  19.566  0.00  0.00    +0.000 A 
ATOM      3  C   UNL     1       2.566   4.832  20.968  0.00  0.00    +0.000 A 
ATOM      4  C   UNL     1       1.976   3.810  21.703  0.00  0.00    +0.000 A 
ATOM      5  C   UNL     1       1.289   2.794  21.041  0.00  0.00    +0.000 A 
ATOM      6  C   UNL     1       1.192   2.799  19.651  0.00  0.00    +0.000 A 
ATOM      7  C   UNL     1       1.798   3.813  18.908  0.00  0.00    +0.000 A 
ATOM      8  C   UNL     1       1.738   3.844  17.403  0.00  0.00    +0.000 C 
ATOM      9  C   UNL     1       3.112   3.591  16.779  0.00  0.00    +0.000 C 
ATOM     10  C   UNL     1       4.231   4.594  17.007  0.00  0.00    +0.000 A 
ATOM     11  C   UNL     1       5.379   4.427  16.200  0.00  0.00    +0.000 A 
ATOM     12  C   UNL     1       6.478   5.276  16.312  0.00  0.00    +0.000 A 
ATOM     13  C   UNL     1       6.451   6.304  17.241  0.00  0.00    +0.000 A 
ATOM     14 CL   UNL     1       7.808   7.349  17.403  0.00  0.00    +0.000 Cl
ATOM     15  C   UNL     1       5.333   6.486  18.051  0.00  0.00    +0.000 A 
ATOM     16  C   UNL     1       4.207   5.642  17.952  0.00  0.00    +0.000 A 
ENDROOT
BRANCH   1  17
ATOM     17  C   UNL     1       2.513   7.165  18.939  0.00  0.00    +0.000 C 
BRANCH  17  18
ATOM     18  C   UNL     1       2.117   7.732  17.562  0.00  0.00    +0.000 C 
BRANCH  18  19
ATOM     19  O   UNL     1       1.814   9.130  17.588  0.00  0.00    +0.000 OA
BRANCH  19  20
ATOM     20  C   UNL     1       1.382   9.631  18.851  0.00  0.00    +0.000 C 
BRANCH  20  21
ATOM     21  C   UNL     1       1.316  11.168  18.899  0.00  0.00    +0.000 C 
BRANCH  21  26
ATOM     22  C   UNL     1      -2.435  11.107  19.034  0.00  0.00    +0.000 C 
ATOM     23  C   UNL     1      -2.701  12.358  19.873  0.00  0.00    +0.000 C 
ATOM     24  C   UNL     1      -1.632  13.426  19.654  0.00  0.00    +0.000 C 
ATOM     25  C   UNL     1      -0.220  12.855  19.766  0.00  0.00    +0.000 C 
ATOM     26  N   UNL     1      -0.057  11.696  18.868  0.00  0.00    +0.000 NA
ATOM     27  C   UNL     1      -1.004  10.617  19.238  0.00  0.00    +0.000 C 
BRANCH  22  29
ATOM     28  O   UNL     1      -3.834  11.808  17.190  0.00  0.00    +0.000 OA
ATOM     29  C   UNL     1      -2.760  11.350  17.567  0.00  0.00    +0.000 C 
BRANCH  29  30
ATOM     30  O   UNL     1      -1.755  11.094  16.699  0.00  0.00    +0.000 OA
ATOM     31  H   UNL     1      -1.957  10.300  16.149  0.00  0.00    +0.000 HD
ENDBRANCH  29  30
ENDBRANCH  22  29
ENDBRANCH  21  26
ENDBRANCH  20  21
ENDBRANCH  19  20
ENDBRANCH  18  19
ENDBRANCH  17  18
ENDBRANCH   1  17
TORSDOF 8
ENDMDL
MODEL 5
REMARK VINA RESULT:      -7.7      0.943      1.110
REMARK  Name = 
REMARK  8 active torsions:
REMARK  status: ('A' for Active; 'I' for Inactive)
REMARK    1  A    between atoms: C_2  and  O_3
REMARK    2  A    between atoms: C_2  and  C_4
REMARK    3  A    between atoms: N_8  and  C_9
REMARK    4  A    between atoms: C_9  and  C_10
REMARK    5  A    between atoms: C_10  and  O_11
REMARK    6  A    between atoms: O_11  and  C_12
REMARK    7  A    between atoms: C_12  and  C_13
REMARK    8  A    between atoms: C_13  and  N_14
REMARK                            x       y       z     vdW  Elec       q    Type
REMARK                         _______ _______ _______ _____ _____    ______ ____
ROOT
ATOM      1  N   UNL     1       3.325   5.624  19.241  0.00  0.00    +0.000 N 
ATOM      2  C   UNL     1       2.561   4.580  19.774  0.00  0.00    +0.000 A 
ATOM      3  C   UNL     1       2.484   4.409  21.166  0.00  0.00    +0.000 A 
ATOM      4  C   UNL     1       1.771   3.346  21.708  0.00  0.00    +0.000 A 
ATOM      5  C   UNL     1       1.112   2.456  20.862  0.00  0.00    +0.000 A 
ATOM      6  C   UNL     1       1.164   2.629  19.480  0.00  0.00    +0.000 A 
ATOM      7  C   UNL     1       1.893   3.684  18.931  0.00  0.00    +0.000 A 
ATOM      8  C   UNL     1       1.995   3.893  17.442  0.00  0.00    +0.000 C 
ATOM      9  C   UNL     1       3.414   3.633  16.933  0.00  0.00    +0.000 C 
ATOM     10  C   UNL     1       4.549   4.535  17.392  0.00  0.00    +0.000 A 
ATOM     11  C   UNL     1       5.767   4.395  16.689  0.00  0.00    +0.000 A 
ATOM     12  C   UNL     1       6.887   5.157  17.014  0.00  0.00    +0.000 A 
ATOM     13  C   UNL     1       6.809   6.070  18.054  0.00  0.00    +0.000 A 
ATOM     14 CL   UNL     1       8.189   7.006  18.477  0.00  0.00    +0.000 Cl
ATOM     15  C   UNL     1       5.621   6.223  18.764  0.00  0.00    +0.000 A 
ATOM     16  C   UNL     1       4.474   5.465  18.450  0.00  0.00    +0.000 A 
ENDROOT
BRANCH   1  17
ATOM     17  C   UNL     1       2.758   6.961  19.441  0.00  0.00    +0.000 C 
BRANCH  17  18
ATOM     18  C   UNL     1       2.318   7.613  18.116  0.00  0.00    +0.000 C 
BRANCH  18  19
ATOM     19  O   UNL     1       2.279   9.042  18.170  0.00  0.00    +0.000 OA
BRANCH  19  20
ATOM     20  C   UNL     1       0.992   9.602  18.425  0.00  0.00    +0.000 C 
BRANCH  20  21
ATOM     21  C   UNL     1       0.617   9.595  19.917  0.00  0.00    +0.000 C 
BRANCH  21  26
ATOM     22  C   UNL     1      -0.121  12.971  21.383  0.00  0.00    +0.000 C 
ATOM     23  C   UNL     1      -1.105  13.513  20.345  0.00  0.00    +0.000 C 
ATOM     24  C   UNL     1      -1.927  12.396  19.705  0.00  0.00    +0.000 C 
ATOM     25  C   UNL     1      -1.049  11.240  19.227  0.00  0.00    +0.000 C 
ATOM     26  N   UNL     1      -0.189  10.756  20.324  0.00  0.00    +0.000 NA
ATOM     27  C   UNL     1       0.712  11.836  20.792  0.00  0.00    +0.000 C 
BRANCH  22  29
ATOM     28  O   UNL     1      -1.688  13.257  23.201  0.00  0.00    +0.000 OA
ATOM     29  C   UNL     1      -0.839  12.557  22.659  0.00  0.00    +0.000 C 
BRANCH  29  30
ATOM     30  O   UNL     1      -0.532  11.325  23.126  0.00  0.00    +0.000 OA
ATOM     31  H   UNL     1       0.385  11.067  22.867  0.00  0.00    +0.000 HD
ENDBRANCH  29  30
ENDBRANCH  22  29
ENDBRANCH  21  26
ENDBRANCH  20  21
ENDBRANCH  19  20
ENDBRANCH  18  19
ENDBRANCH  17  18
ENDBRANCH   1  17
TORSDOF 8
ENDMDL
MODEL 6
REMARK VINA RESULT:      -7.7      2.037      2.741
REMARK  Name = 
REMARK  8 active torsions:
REMARK  status: ('A' for Active; 'I' for Inactive)
REMARK    1  A    between atoms: C_2  and  O_3
REMARK    2  A    between atoms: C_2  and  C_4
REMARK    3  A    between atoms: N_8  and  C_9
REMARK    4  A    between atoms: C_9  and  C_10
REMARK    5  A    between atoms: C_10  and  O_11
REMARK    6  A    between atoms: O_11  and  C_12
REMARK    7  A    between atoms: C_12  and  C_13
REMARK    8  A    between atoms: C_13  and  N_14
REMARK                            x       y       z     vdW  Elec       q    Type
REMARK                         _______ _______ _______ _____ _____    ______ ____
ROOT
ATOM      1  N   UNL     1       3.135   5.765  18.988  0.00  0.00    +0.000 N 
ATOM      2  C   UNL     1       2.496   4.745  19.703  0.00  0.00    +0.000 A 
ATOM      3  C   UNL     1       2.666   4.656  21.094  0.00  0.00    +0.000 A 
ATOM      4  C   UNL     1       2.080   3.618  21.810  0.00  0.00    +0.000 A 
ATOM      5  C   UNL     1       1.302   2.673  21.143  0.00  0.00    +0.000 A 
ATOM      6  C   UNL     1       1.110   2.766  19.766  0.00  0.00    +0.000 A 
ATOM      7  C   UNL     1       1.711   3.795  19.040  0.00  0.00    +0.000 A 
ATOM      8  C   UNL     1       1.548   3.918  17.547  0.00  0.00    +0.000 C 
ATOM      9  C   UNL     1       2.862   3.644  16.813  0.00  0.00    +0.000 C 
ATOM     10  C   UNL     1       4.041   4.583  17.017  0.00  0.00    +0.000 A 
ATOM     11  C   UNL     1       5.121   4.415  16.121  0.00  0.00    +0.000 A 
ATOM     12  C   UNL     1       6.264   5.207  16.203  0.00  0.00    +0.000 A 
ATOM     13  C   UNL     1       6.350   6.178  17.188  0.00  0.00    +0.000 A 
ATOM     14 CL   UNL     1       7.762   7.152  17.311  0.00  0.00    +0.000 Cl
ATOM     15  C   UNL     1       5.300   6.359  18.085  0.00  0.00    +0.000 A 
ATOM     16  C   UNL     1       4.132   5.572  18.019  0.00  0.00    +0.000 A 
ENDROOT
BRANCH   1  17
ATOM     17  C   UNL     1       2.583   7.105  19.209  0.00  0.00    +0.000 C 
BRANCH  17  18
ATOM     18  C   UNL     1       2.247   7.824  17.888  0.00  0.00    +0.000 C 
BRANCH  18  19
ATOM     19  O   UNL     1       2.484   9.235  17.931  0.00  0.00    +0.000 OA
BRANCH  19  20
ATOM     20  C   UNL     1       1.377  10.019  18.370  0.00  0.00    +0.000 C 
BRANCH  20  21
ATOM     21  C   UNL     1       0.026   9.499  17.851  0.00  0.00    +0.000 C 
BRANCH  21  26
ATOM     22  C   UNL     1      -3.485  10.814  18.039  0.00  0.00    +0.000 C 
ATOM     23  C   UNL     1      -3.302  11.944  19.054  0.00  0.00    +0.000 C 
ATOM     24  C   UNL     1      -1.907  12.560  18.971  0.00  0.00    +0.000 C 
ATOM     25  C   UNL     1      -0.810  11.496  18.978  0.00  0.00    +0.000 C 
ATOM     26  N   UNL     1      -1.053  10.497  17.920  0.00  0.00    +0.000 NA
ATOM     27  C   UNL     1      -2.344   9.805  18.146  0.00  0.00    +0.000 C 
BRANCH  22  29
ATOM     28  O   UNL     1      -2.925  11.011  15.695  0.00  0.00    +0.000 OA
ATOM     29  C   UNL     1      -3.641  11.362  16.628  0.00  0.00    +0.000 C 
BRANCH  29  30
ATOM     30  O   UNL     1      -4.673  12.216  16.446  0.00  0.00    +0.000 OA
ATOM     31  H   UNL     1      -5.084  12.091  15.558  0.00  0.00    +0.000 HD
ENDBRANCH  29  30
ENDBRANCH  22  29
ENDBRANCH  21  26
ENDBRANCH  20  21
ENDBRANCH  19  20
ENDBRANCH  18  19
ENDBRANCH  17  18
ENDBRANCH   1  17
TORSDOF 8
ENDMDL
MODEL 7
REMARK VINA RESULT:      -7.7      1.513      1.731
REMARK  Name = 
REMARK  8 active torsions:
REMARK  status: ('A' for Active; 'I' for Inactive)
REMARK    1  A    between atoms: C_2  and  O_3
REMARK    2  A    between atoms: C_2  and  C_4
REMARK    3  A    between atoms: N_8  and  C_9
REMARK    4  A    between atoms: C_9  and  C_10
REMARK    5  A    between atoms: C_10  and  O_11
REMARK    6  A    between atoms: O_11  and  C_12
REMARK    7  A    between atoms: C_12  and  C_13
REMARK    8  A    between atoms: C_13  and  N_14
REMARK                            x       y       z     vdW  Elec       q    Type
REMARK                         _______ _______ _______ _____ _____    ______ ____
ROOT
ATOM      1  N   UNL     1       3.086   5.772  18.935  0.00  0.00    +0.000 N 
ATOM      2  C   UNL     1       2.441   4.755  19.648  0.00  0.00    +0.000 A 
ATOM      3  C   UNL     1       2.584   4.680  21.043  0.00  0.00    +0.000 A 
ATOM      4  C   UNL     1       1.993   3.644  21.757  0.00  0.00    +0.000 A 
ATOM      5  C   UNL     1       1.234   2.688  21.085  0.00  0.00    +0.000 A 
ATOM      6  C   UNL     1       1.068   2.766  19.703  0.00  0.00    +0.000 A 
ATOM      7  C   UNL     1       1.675   3.793  18.979  0.00  0.00    +0.000 A 
ATOM      8  C   UNL     1       1.541   3.900  17.482  0.00  0.00    +0.000 C 
ATOM      9  C   UNL     1       2.871   3.629  16.776  0.00  0.00    +0.000 C 
ATOM     10  C   UNL     1       4.039   4.578  16.993  0.00  0.00    +0.000 A 
ATOM     11  C   UNL     1       5.136   4.409  16.120  0.00  0.00    +0.000 A 
ATOM     12  C   UNL     1       6.273   5.211  16.216  0.00  0.00    +0.000 A 
ATOM     13  C   UNL     1       6.332   6.192  17.193  0.00  0.00    +0.000 A 
ATOM     14 CL   UNL     1       7.735   7.177  17.333  0.00  0.00    +0.000 Cl
ATOM     15  C   UNL     1       5.264   6.374  18.068  0.00  0.00    +0.000 A 
ATOM     16  C   UNL     1       4.103   5.578  17.987  0.00  0.00    +0.000 A 
ENDROOT
BRANCH   1  17
ATOM     17  C   UNL     1       2.521   7.110  19.132  0.00  0.00    +0.000 C 
BRANCH  17  18
ATOM     18  C   UNL     1       2.457   7.917  17.821  0.00  0.00    +0.000 C 
BRANCH  18  19
ATOM     19  O   UNL     1       1.322   8.784  17.740  0.00  0.00    +0.000 OA
BRANCH  19  20
ATOM     20  C   UNL     1       1.433   9.995  18.485  0.00  0.00    +0.000 C 
BRANCH  20  21
ATOM     21  C   UNL     1       0.069  10.596  18.866  0.00  0.00    +0.000 C 
BRANCH  21  26
ATOM     22  C   UNL     1       0.009  13.785  20.845  0.00  0.00    +0.000 C 
ATOM     23  C   UNL     1      -0.839  13.351  22.042  0.00  0.00    +0.000 C 
ATOM     24  C   UNL     1      -0.653  11.870  22.361  0.00  0.00    +0.000 C 
ATOM     25  C   UNL     1      -0.787  10.993  21.117  0.00  0.00    +0.000 C 
ATOM     26  N   UNL     1       0.120  11.464  20.053  0.00  0.00    +0.000 NA
ATOM     27  C   UNL     1      -0.218  12.852  19.658  0.00  0.00    +0.000 C 
BRANCH  22  29
ATOM     28  O   UNL     1       1.870  14.528  22.196  0.00  0.00    +0.000 OA
ATOM     29  C   UNL     1       1.479  13.893  21.222  0.00  0.00    +0.000 C 
BRANCH  29  30
ATOM     30  O   UNL     1       2.331  13.180  20.451  0.00  0.00    +0.000 OA
ATOM     31  H   UNL     1       3.166  12.983  20.938  0.00  0.00    +0.000 HD
ENDBRANCH  29  30
ENDBRANCH  22  29
ENDBRANCH  21  26
ENDBRANCH  20  21
ENDBRANCH  19  20
ENDBRANCH  18  19
ENDBRANCH  17  18
ENDBRANCH   1  17
TORSDOF 8
ENDMDL
MODEL 8
REMARK VINA RESULT:      -7.7      1.665      2.363
REMARK  Name = 
REMARK  8 active torsions:
REMARK  status: ('A' for Active; 'I' for Inactive)
REMARK    1  A    between atoms: C_2  and  O_3
REMARK    2  A    between atoms: C_2  and  C_4
REMARK    3  A    between atoms: N_8  and  C_9
REMARK    4  A    between atoms: C_9  and  C_10
REMARK    5  A    between atoms: C_10  and  O_11
REMARK    6  A    between atoms: O_11  and  C_12
REMARK    7  A    between atoms: C_12  and  C_13
REMARK    8  A    between atoms: C_13  and  N_14
REMARK                            x       y       z     vdW  Elec       q    Type
REMARK                         _______ _______ _______ _____ _____    ______ ____
ROOT
ATOM      1  N   UNL     1       3.143   5.606  18.382  0.00  0.00    +0.000 N 
ATOM      2  C   UNL     1       2.561   4.634  19.204  0.00  0.00    +0.000 A 
ATOM      3  C   UNL     1       2.342   4.908  20.564  0.00  0.00    +0.000 A 
ATOM      4  C   UNL     1       1.813   3.934  21.403  0.00  0.00    +0.000 A 
ATOM      5  C   UNL     1       1.477   2.685  20.883  0.00  0.00    +0.000 A 
ATOM      6  C   UNL     1       1.670   2.410  19.530  0.00  0.00    +0.000 A 
ATOM      7  C   UNL     1       2.218   3.379  18.688  0.00  0.00    +0.000 A 
ATOM      8  C   UNL     1       2.465   3.115  17.225  0.00  0.00    +0.000 C 
ATOM      9  C   UNL     1       3.961   3.065  16.906  0.00  0.00    +0.000 C 
ATOM     10  C   UNL     1       4.804   4.319  17.083  0.00  0.00    +0.000 A 
ATOM     11  C   UNL     1       6.103   4.266  16.531  0.00  0.00    +0.000 A 
ATOM     12  C   UNL     1       6.980   5.345  16.629  0.00  0.00    +0.000 A 
ATOM     13  C   UNL     1       6.572   6.495  17.286  0.00  0.00    +0.000 A 
ATOM     14 CL   UNL     1       7.649   7.829  17.428  0.00  0.00    +0.000 Cl
ATOM     15  C   UNL     1       5.296   6.569  17.841  0.00  0.00    +0.000 A 
ATOM     16  C   UNL     1       4.392   5.491  17.751  0.00  0.00    +0.000 A 
ENDROOT
BRANCH   1  17
ATOM     17  C   UNL     1       2.278   6.751  18.082  0.00  0.00    +0.000 C 
BRANCH  17  18
ATOM     18  C   UNL     1       2.525   7.936  19.035  0.00  0.00    +0.000 C 
BRANCH  18  19
ATOM     19  O   UNL     1       1.321   8.564  19.487  0.00  0.00    +0.000 OA
BRANCH  19  20
ATOM     20  C   UNL     1       1.235   8.757  20.898  0.00  0.00    +0.000 C 
BRANCH  20  21
ATOM     21  C   UNL     1       0.553  10.081  21.284  0.00  0.00    +0.000 C 
BRANCH  21  26
ATOM     22  C   UNL     1      -1.525  12.279  19.061  0.00  0.00    +0.000 C 
ATOM     23  C   UNL     1      -0.500  13.355  18.701  0.00  0.00    +0.000 C 
ATOM     24  C   UNL     1       0.921  12.795  18.666  0.00  0.00    +0.000 C 
ATOM     25  C   UNL     1       1.246  11.979  19.915  0.00  0.00    +0.000 C 
ATOM     26  N   UNL     1       0.229  10.932  20.128  0.00  0.00    +0.000 NA
ATOM     27  C   UNL     1      -1.108  11.541  20.330  0.00  0.00    +0.000 C 
BRANCH  22  29
ATOM     28  O   UNL     1      -1.960  10.130  18.042  0.00  0.00    +0.000 OA
ATOM     29  C   UNL     1      -1.762  11.331  17.894  0.00  0.00    +0.000 C 
BRANCH  29  30
ATOM     30  O   UNL     1      -1.810  11.912  16.673  0.00  0.00    +0.000 OA
ATOM     31  H   UNL     1      -1.785  11.234  15.958  0.00  0.00    +0.000 HD
ENDBRANCH  29  30
ENDBRANCH  22  29
ENDBRANCH  21  26
ENDBRANCH  20  21
ENDBRANCH  19  20
ENDBRANCH  18  19
ENDBRANCH  17  18
ENDBRANCH   1  17
TORSDOF 8
ENDMDL
MODEL 9
REMARK VINA RESULT:      -7.7      3.280      8.627
REMARK  Name = 
REMARK  8 active torsions:
REMARK  status: ('A' for Active; 'I' for Inactive)
REMARK    1  A    between atoms: C_2  and  O_3
REMARK    2  A    between atoms: C_2  and  C_4
REMARK    3  A    between atoms: N_8  and  C_9
REMARK    4  A    between atoms: C_9  and  C_10
REMARK    5  A    between atoms: C_10  and  O_11
REMARK    6  A    between atoms: O_11  and  C_12
REMARK    7  A    between atoms: C_12  and  C_13
REMARK    8  A    between atoms: C_13  and  N_14
REMARK                            x       y       z     vdW  Elec       q    Type
REMARK                         _______ _______ _______ _____ _____    ______ ____
ROOT
ATOM      1  N   UNL     1      -0.408  10.556  19.224  0.00  0.00    +0.000 N 
ATOM      2  C   UNL     1      -0.408  10.306  20.602  0.00  0.00    +0.000 A 
ATOM      3  C   UNL     1      -0.031   9.042  21.083  0.00  0.00    +0.000 A 
ATOM      4  C   UNL     1      -0.077   8.763  22.444  0.00  0.00    +0.000 A 
ATOM      5  C   UNL     1      -0.480   9.754  23.337  0.00  0.00    +0.000 A 
ATOM      6  C   UNL     1      -0.836  11.018  22.872  0.00  0.00    +0.000 A 
ATOM      7  C   UNL     1      -0.809  11.297  21.505  0.00  0.00    +0.000 A 
ATOM      8  C   UNL     1      -1.209  12.644  20.958  0.00  0.00    +0.000 C 
ATOM      9  C   UNL     1      -2.509  12.562  20.155  0.00  0.00    +0.000 C 
ATOM     10  C   UNL     1      -2.543  11.748  18.871  0.00  0.00    +0.000 A 
ATOM     11  C   UNL     1      -3.687  11.927  18.062  0.00  0.00    +0.000 A 
ATOM     12  C   UNL     1      -3.845  11.237  16.862  0.00  0.00    +0.000 A 
ATOM     13  C   UNL     1      -2.863  10.349  16.454  0.00  0.00    +0.000 A 
ATOM     14 CL   UNL     1      -3.053   9.477  14.983  0.00  0.00    +0.000 Cl
ATOM     15  C   UNL     1      -1.728  10.152  17.237  0.00  0.00    +0.000 A 
ATOM     16  C   UNL     1      -1.545  10.843  18.453  0.00  0.00    +0.000 A 
ENDROOT
BRANCH   1  17
ATOM     17  C   UNL     1       0.925  10.650  18.620  0.00  0.00    +0.000 C 
BRANCH  17  18
ATOM     18  C   UNL     1       1.245   9.441  17.721  0.00  0.00    +0.000 C 
BRANCH  18  19
ATOM     19  O   UNL     1       1.840   8.348  18.427  0.00  0.00    +0.000 OA
BRANCH  19  20
ATOM     20  C   UNL     1       3.103   7.920  17.923  0.00  0.00    +0.000 C 
BRANCH  20  21
ATOM     21  C   UNL     1       3.252   6.389  17.891  0.00  0.00    +0.000 C 
BRANCH  21  26
ATOM     22  C   UNL     1       6.934   6.514  17.169  0.00  0.00    +0.000 C 
ATOM     23  C   UNL     1       7.491   5.959  18.482  0.00  0.00    +0.000 C 
ATOM     24  C   UNL     1       6.536   4.955  19.123  0.00  0.00    +0.000 C 
ATOM     25  C   UNL     1       5.107   5.490  19.198  0.00  0.00    +0.000 C 
ATOM     26  N   UNL     1       4.651   5.935  17.867  0.00  0.00    +0.000 NA
ATOM     27  C   UNL     1       5.512   7.034  17.366  0.00  0.00    +0.000 C 
BRANCH  22  29
ATOM     28  O   UNL     1       7.814   4.545  16.077  0.00  0.00    +0.000 OA
ATOM     29  C   UNL     1       7.023   5.482  16.054  0.00  0.00    +0.000 C 
BRANCH  29  30
ATOM     30  O   UNL     1       6.118   5.622  15.059  0.00  0.00    +0.000 OA
ATOM     31  H   UNL     1       5.487   6.354  15.255  0.00  0.00    +0.000 HD
ENDBRANCH  29  30
ENDBRANCH  22  29
ENDBRANCH  21  26
ENDBRANCH  20  21
ENDBRANCH  19  20
ENDBRANCH  18  19
ENDBRANCH  17  18
ENDBRANCH   1  17
TORSDOF 8
ENDMDL
