MODEL 1
REMARK VINA RESULT:      -7.2      0.000      0.000
REMARK  Name = 
REMARK  7 active torsions:
REMARK  status: ('A' for Active; 'I' for Inactive)
REMARK    1  A    between atoms: C_1  and  C_2
REMARK    2  A    between atoms: C_2  and  C_3
REMARK    3  A    between atoms: C_6  and  N_7
REMARK    4  A    between atoms: C_13  and  O_14
REMARK    5  A    between atoms: O_14  and  C_15
REMARK    6  A    between atoms: C_15  and  C_16
REMARK    7  A    between atoms: C_16  and  O_18
REMARK                            x       y       z     vdW  Elec       q    Type
REMARK                         _______ _______ _______ _____ _____    ______ ____
ROOT
ATOM      1  C   UNL     1       7.242   5.689  17.079  0.00  0.00    +0.000 C 
ATOM      2  C   UNL     1       5.947   5.212  16.378  0.00  0.00    +0.000 C 
ATOM      3  C   UNL     1       5.254   4.144  17.271  0.00  0.00    +0.000 C 
ATOM      4  C   UNL     1       4.312   4.936  18.120  0.00  0.00    +0.000 A 
ATOM      5  C   UNL     1       3.679   4.482  19.263  0.00  0.00    +0.000 A 
ATOM      6  C   UNL     1       2.824   5.349  19.952  0.00  0.00    +0.000 A 
ATOM      7  C   UNL     1       2.542   6.630  19.414  0.00  0.00    +0.000 A 
ATOM      8 CL   UNL     1       1.428   7.657  20.271  0.00  0.00    +0.000 Cl
ATOM      9  C   UNL     1       3.168   7.072  18.230  0.00  0.00    +0.000 A 
ATOM     10 CL   UNL     1       2.871   8.646  17.585  0.00  0.00    +0.000 Cl
ATOM     11  C   UNL     1       4.063   6.207  17.615  0.00  0.00    +0.000 A 
ATOM     12  C   UNL     1       4.941   6.379  16.448  0.00  0.00    +0.000 C 
ATOM     13  O   UNL     1       4.910   7.360  15.725  0.00  0.00    +0.000 OA
ENDROOT
BRANCH   2  14
ATOM     14  C   UNL     1       6.271   4.755  14.953  0.00  0.00    +0.000 A 
ATOM     15  C   UNL     1       7.387   5.211  14.231  0.00  0.00    +0.000 A 
ATOM     16  C   UNL     1       7.655   4.749  12.935  0.00  0.00    +0.000 A 
ATOM     17  C   UNL     1       6.783   3.875  12.289  0.00  0.00    +0.000 A 
ATOM     18  C   UNL     1       5.685   3.398  13.000  0.00  0.00    +0.000 A 
ATOM     19  C   UNL     1       5.422   3.844  14.301  0.00  0.00    +0.000 A 
BRANCH  17  20
ATOM     20  N   UNL     1       7.128   3.312  11.057  0.00  0.00    +0.000 N 
ATOM     21  H   UNL     1       7.438   3.986  10.365  0.00  0.00    +0.000 HD
ATOM     22  H   UNL     1       6.431   2.672  10.691  0.00  0.00    +0.000 HD
ENDBRANCH  17  20
ENDBRANCH   2  14
BRANCH   6  23
ATOM     23  O   UNL     1       2.238   5.006  21.152  0.00  0.00    +0.000 OA
BRANCH  23  24
ATOM     24  C   UNL     1       2.540   3.685  21.619  0.00  0.00    +0.000 C 
BRANCH  24  25
ATOM     25  C   UNL     1       1.303   2.805  21.645  0.00  0.00    +0.000 C 
ATOM     26  O   UNL     1       1.033   2.053  22.568  0.00  0.00    +0.000 OA
BRANCH  25  27
ATOM     27  O   UNL     1       0.525   2.932  20.546  0.00  0.00    +0.000 OA
ATOM     28  H   UNL     1      -0.421   3.008  20.797  0.00  0.00    +0.000 HD
ENDBRANCH  25  27
ENDBRANCH  24  25
ENDBRANCH  23  24
ENDBRANCH   6  23
TORSDOF 6
ENDMDL
MODEL 2
REMARK VINA RESULT:      -7.1      0.703      1.220
REMARK  Name = 
REMARK  7 active torsions:
REMARK  status: ('A' for Active; 'I' for Inactive)
REMARK    1  A    between atoms: C_1  and  C_2
REMARK    2  A    between atoms: C_2  and  C_3
REMARK    3  A    between atoms: C_6  and  N_7
REMARK    4  A    between atoms: C_13  and  O_14
REMARK    5  A    between atoms: O_14  and  C_15
REMARK    6  A    between atoms: C_15  and  C_16
REMARK    7  A    between atoms: C_16  and  O_18
REMARK                            x       y       z     vdW  Elec       q    Type
REMARK                         _______ _______ _______ _____ _____    ______ ____
ROOT
ATOM      1  C   UNL     1       7.301   5.832  17.075  0.00  0.00    +0.000 C 
ATOM      2  C   UNL     1       6.038   5.217  16.425  0.00  0.00    +0.000 C 
ATOM      3  C   UNL     1       5.505   4.079  17.341  0.00  0.00    +0.000 C 
ATOM      4  C   UNL     1       4.517   4.761  18.234  0.00  0.00    +0.000 A 
ATOM      5  C   UNL     1       3.987   4.240  19.400  0.00  0.00    +0.000 A 
ATOM      6  C   UNL     1       3.072   5.008  20.128  0.00  0.00    +0.000 A 
ATOM      7  C   UNL     1       2.628   6.251  19.609  0.00  0.00    +0.000 A 
ATOM      8 CL   UNL     1       1.446   7.148  20.518  0.00  0.00    +0.000 Cl
ATOM      9  C   UNL     1       3.152   6.760  18.402  0.00  0.00    +0.000 A 
ATOM     10 CL   UNL     1       2.656   8.291  17.778  0.00  0.00    +0.000 Cl
ATOM     11  C   UNL     1       4.110   5.998  17.746  0.00  0.00    +0.000 A 
ATOM     12  C   UNL     1       4.913   6.266  16.544  0.00  0.00    +0.000 C 
ATOM     13  O   UNL     1       4.744   7.238  15.828  0.00  0.00    +0.000 OA
ENDROOT
BRANCH   2  14
ATOM     14  C   UNL     1       6.349   4.799  14.986  0.00  0.00    +0.000 A 
ATOM     15  C   UNL     1       5.586   3.860  14.272  0.00  0.00    +0.000 A 
ATOM     16  C   UNL     1       5.898   3.523  12.948  0.00  0.00    +0.000 A 
ATOM     17  C   UNL     1       7.019   4.056  12.316  0.00  0.00    +0.000 A 
ATOM     18  C   UNL     1       7.772   5.005  13.003  0.00  0.00    +0.000 A 
ATOM     19  C   UNL     1       7.455   5.356  14.320  0.00  0.00    +0.000 A 
BRANCH  17  20
ATOM     20  N   UNL     1       7.242   3.825  10.955  0.00  0.00    +0.000 N 
ATOM     21  H   UNL     1       7.530   2.878  10.736  0.00  0.00    +0.000 HD
ATOM     22  H   UNL     1       7.832   4.523  10.514  0.00  0.00    +0.000 HD
ENDBRANCH  17  20
ENDBRANCH   2  14
BRANCH   6  23
ATOM     23  O   UNL     1       2.578   4.602  21.350  0.00  0.00    +0.000 OA
BRANCH  23  24
ATOM     24  C   UNL     1       2.267   3.206  21.445  0.00  0.00    +0.000 C 
BRANCH  24  25
ATOM     25  C   UNL     1       1.328   2.767  20.336  0.00  0.00    +0.000 C 
ATOM     26  O   UNL     1       1.587   1.864  19.556  0.00  0.00    +0.000 OA
BRANCH  25  27
ATOM     27  O   UNL     1       0.174   3.471  20.292  0.00  0.00    +0.000 OA
ATOM     28  H   UNL     1      -0.351   3.330  21.109  0.00  0.00    +0.000 HD
ENDBRANCH  25  27
ENDBRANCH  24  25
ENDBRANCH  23  24
ENDBRANCH   6  23
TORSDOF 6
ENDMDL
MODEL 3
REMARK VINA RESULT:      -6.9      4.219      6.264
REMARK  Name = 
REMARK  7 active torsions:
REMARK  status: ('A' for Active; 'I' for Inactive)
REMARK    1  A    between atoms: C_1  and  C_2
REMARK    2  A    between atoms: C_2  and  C_3
REMARK    3  A    between atoms: C_6  and  N_7
REMARK    4  A    between atoms: C_13  and  O_14
REMARK    5  A    between atoms: O_14  and  C_15
REMARK    6  A    between atoms: C_15  and  C_16
REMARK    7  A    between atoms: C_16  and  O_18
REMARK                            x       y       z     vdW  Elec       q    Type
REMARK                         _______ _______ _______ _____ _____    ______ ____
ROOT
ATOM      1  C   UNL     1       1.632   5.731  17.827  0.00  0.00    +0.000 C 
ATOM      2  C   UNL     1       2.719   6.735  18.283  0.00  0.00    +0.000 C 
ATOM      3  C   UNL     1       2.559   8.052  17.473  0.00  0.00    +0.000 C 
ATOM      4  C   UNL     1       1.655   8.893  18.318  0.00  0.00    +0.000 A 
ATOM      5  C   UNL     1       0.991  10.033  17.903  0.00  0.00    +0.000 A 
ATOM      6  C   UNL     1       0.176  10.709  18.817  0.00  0.00    +0.000 A 
ATOM      7  C   UNL     1       0.127  10.280  20.167  0.00  0.00    +0.000 A 
ATOM      8 CL   UNL     1      -0.854  11.184  21.285  0.00  0.00    +0.000 Cl
ATOM      9  C   UNL     1       0.834   9.134  20.588  0.00  0.00    +0.000 A 
ATOM     10 CL   UNL     1       0.752   8.571  22.217  0.00  0.00    +0.000 Cl
ATOM     11  C   UNL     1       1.576   8.451  19.633  0.00  0.00    +0.000 A 
ATOM     12  C   UNL     1       2.338   7.195  19.706  0.00  0.00    +0.000 C 
ATOM     13  O   UNL     1       2.535   6.590  20.746  0.00  0.00    +0.000 OA
ENDROOT
BRANCH   2  14
ATOM     14  C   UNL     1       4.098   6.079  18.190  0.00  0.00    +0.000 A 
ATOM     15  C   UNL     1       4.426   4.875  18.836  0.00  0.00    +0.000 A 
ATOM     16  C   UNL     1       5.698   4.301  18.706  0.00  0.00    +0.000 A 
ATOM     17  C   UNL     1       6.705   4.941  17.988  0.00  0.00    +0.000 A 
ATOM     18  C   UNL     1       6.389   6.124  17.323  0.00  0.00    +0.000 A 
ATOM     19  C   UNL     1       5.115   6.693  17.439  0.00  0.00    +0.000 A 
BRANCH  17  20
ATOM     20  N   UNL     1       7.922   4.297  17.746  0.00  0.00    +0.000 N 
ATOM     21  H   UNL     1       8.399   4.611  16.908  0.00  0.00    +0.000 HD
ATOM     22  H   UNL     1       7.868   3.285  17.807  0.00  0.00    +0.000 HD
ENDBRANCH  17  20
ENDBRANCH   2  14
BRANCH   6  23
ATOM     23  O   UNL     1      -0.597  11.792  18.452  0.00  0.00    +0.000 OA
BRANCH  23  24
ATOM     24  C   UNL     1      -2.008  11.542  18.407  0.00  0.00    +0.000 C 
BRANCH  24  25
ATOM     25  C   UNL     1      -2.404  10.808  17.138  0.00  0.00    +0.000 C 
ATOM     26  O   UNL     1      -2.790   9.650  17.125  0.00  0.00    +0.000 OA
BRANCH  25  27
ATOM     27  O   UNL     1      -2.288  11.560  16.018  0.00  0.00    +0.000 OA
ATOM     28  H   UNL     1      -2.336  12.516  16.235  0.00  0.00    +0.000 HD
ENDBRANCH  25  27
ENDBRANCH  24  25
ENDBRANCH  23  24
ENDBRANCH   6  23
TORSDOF 6
ENDMDL
MODEL 4
REMARK VINA RESULT:      -6.9      5.011      8.214
REMARK  Name = 
REMARK  7 active torsions:
REMARK  status: ('A' for Active; 'I' for Inactive)
REMARK    1  A    between atoms: C_1  and  C_2
REMARK    2  A    between atoms: C_2  and  C_3
REMARK    3  A    between atoms: C_6  and  N_7
REMARK    4  A    between atoms: C_13  and  O_14
REMARK    5  A    between atoms: O_14  and  C_15
REMARK    6  A    between atoms: C_15  and  C_16
REMARK    7  A    between atoms: C_16  and  O_18
REMARK                            x       y       z     vdW  Elec       q    Type
REMARK                         _______ _______ _______ _____ _____    ______ ____
ROOT
ATOM      1  C   UNL     1       1.957  10.735  19.931  0.00  0.00    +0.000 C 
ATOM      2  C   UNL     1       1.068   9.790  19.087  0.00  0.00    +0.000 C 
ATOM      3  C   UNL     1       1.819   9.431  17.774  0.00  0.00    +0.000 C 
ATOM      4  C   UNL     1       2.558   8.174  18.109  0.00  0.00    +0.000 A 
ATOM      5  C   UNL     1       3.586   7.619  17.369  0.00  0.00    +0.000 A 
ATOM      6  C   UNL     1       4.179   6.436  17.819  0.00  0.00    +0.000 A 
ATOM      7  C   UNL     1       3.653   5.774  18.958  0.00  0.00    +0.000 A 
ATOM      8 CL   UNL     1       4.384   4.273  19.451  0.00  0.00    +0.000 Cl
ATOM      9  C   UNL     1       2.583   6.332  19.688  0.00  0.00    +0.000 A 
ATOM     10 CL   UNL     1       1.958   5.563  21.102  0.00  0.00    +0.000 Cl
ATOM     11  C   UNL     1       2.067   7.544  19.247  0.00  0.00    +0.000 A 
ATOM     12  C   UNL     1       1.039   8.429  19.814  0.00  0.00    +0.000 C 
ATOM     13  O   UNL     1       0.353   8.130  20.776  0.00  0.00    +0.000 OA
ENDROOT
BRANCH   2  14
ATOM     14  C   UNL     1      -0.313  10.420  18.893  0.00  0.00    +0.000 A 
ATOM     15  C   UNL     1      -0.851  11.386  19.761  0.00  0.00    +0.000 A 
ATOM     16  C   UNL     1      -2.114  11.950  19.531  0.00  0.00    +0.000 A 
ATOM     17  C   UNL     1      -2.911  11.520  18.473  0.00  0.00    +0.000 A 
ATOM     18  C   UNL     1      -2.382  10.580  17.591  0.00  0.00    +0.000 A 
ATOM     19  C   UNL     1      -1.116  10.026  17.808  0.00  0.00    +0.000 A 
BRANCH  17  20
ATOM     20  N   UNL     1      -4.103  12.184  18.169  0.00  0.00    +0.000 N 
ATOM     21  H   UNL     1      -4.589  12.555  18.978  0.00  0.00    +0.000 HD
ATOM     22  H   UNL     1      -4.716  11.661  17.553  0.00  0.00    +0.000 HD
ENDBRANCH  17  20
ENDBRANCH   2  14
BRANCH   6  23
ATOM     23  O   UNL     1       5.275   5.877  17.194  0.00  0.00    +0.000 OA
BRANCH  23  24
ATOM     24  C   UNL     1       6.545   6.368  17.642  0.00  0.00    +0.000 C 
BRANCH  24  25
ATOM     25  C   UNL     1       7.520   5.234  17.903  0.00  0.00    +0.000 C 
ATOM     26  O   UNL     1       7.920   4.478  17.031  0.00  0.00    +0.000 OA
BRANCH  25  27
ATOM     27  O   UNL     1       7.906   5.138  19.196  0.00  0.00    +0.000 OA
ATOM     28  H   UNL     1       8.832   4.818  19.259  0.00  0.00    +0.000 HD
ENDBRANCH  25  27
ENDBRANCH  24  25
ENDBRANCH  23  24
ENDBRANCH   6  23
TORSDOF 6
ENDMDL
MODEL 5
REMARK VINA RESULT:      -6.8      5.016      8.235
REMARK  Name = 
REMARK  7 active torsions:
REMARK  status: ('A' for Active; 'I' for Inactive)
REMARK    1  A    between atoms: C_1  and  C_2
REMARK    2  A    between atoms: C_2  and  C_3
REMARK    3  A    between atoms: C_6  and  N_7
REMARK    4  A    between atoms: C_13  and  O_14
REMARK    5  A    between atoms: O_14  and  C_15
REMARK    6  A    between atoms: C_15  and  C_16
REMARK    7  A    between atoms: C_16  and  O_18
REMARK                            x       y       z     vdW  Elec       q    Type
REMARK                         _______ _______ _______ _____ _____    ______ ____
ROOT
ATOM      1  C   UNL     1       2.002  10.669  19.959  0.00  0.00    +0.000 C 
ATOM      2  C   UNL     1       1.105   9.740  19.105  0.00  0.00    +0.000 C 
ATOM      3  C   UNL     1       1.857   9.383  17.791  0.00  0.00    +0.000 C 
ATOM      4  C   UNL     1       2.582   8.116  18.119  0.00  0.00    +0.000 A 
ATOM      5  C   UNL     1       3.606   7.557  17.377  0.00  0.00    +0.000 A 
ATOM      6  C   UNL     1       4.187   6.364  17.820  0.00  0.00    +0.000 A 
ATOM      7  C   UNL     1       3.651   5.699  18.952  0.00  0.00    +0.000 A 
ATOM      8 CL   UNL     1       4.364   4.187  19.435  0.00  0.00    +0.000 Cl
ATOM      9  C   UNL     1       2.584   6.262  19.683  0.00  0.00    +0.000 A 
ATOM     10 CL   UNL     1       1.947   5.489  21.089  0.00  0.00    +0.000 Cl
ATOM     11  C   UNL     1       2.082   7.482  19.250  0.00  0.00    +0.000 A 
ATOM     12  C   UNL     1       1.061   8.373  19.821  0.00  0.00    +0.000 C 
ATOM     13  O   UNL     1       0.369   8.074  20.779  0.00  0.00    +0.000 OA
ENDROOT
BRANCH   2  14
ATOM     14  C   UNL     1      -0.269  10.385  18.911  0.00  0.00    +0.000 A 
ATOM     15  C   UNL     1      -1.151  10.029  17.877  0.00  0.00    +0.000 A 
ATOM     16  C   UNL     1      -2.409  10.634  17.751  0.00  0.00    +0.000 A 
ATOM     17  C   UNL     1      -2.800  11.662  18.606  0.00  0.00    +0.000 A 
ATOM     18  C   UNL     1      -1.946  12.010  19.650  0.00  0.00    +0.000 A 
ATOM     19  C   UNL     1      -0.696  11.398  19.788  0.00  0.00    +0.000 A 
BRANCH  17  20
ATOM     20  N   UNL     1      -4.106  12.161  18.562  0.00  0.00    +0.000 N 
ATOM     21  H   UNL     1      -4.820  11.474  18.778  0.00  0.00    +0.000 HD
ATOM     22  H   UNL     1      -4.314  12.688  17.721  0.00  0.00    +0.000 HD
ENDBRANCH  17  20
ENDBRANCH   2  14
BRANCH   6  23
ATOM     23  O   UNL     1       5.279   5.799  17.194  0.00  0.00    +0.000 OA
BRANCH  23  24
ATOM     24  C   UNL     1       6.552   6.282  17.641  0.00  0.00    +0.000 C 
BRANCH  24  25
ATOM     25  C   UNL     1       7.530   5.144  17.873  0.00  0.00    +0.000 C 
ATOM     26  O   UNL     1       7.967   4.847  18.973  0.00  0.00    +0.000 OA
BRANCH  25  27
ATOM     27  O   UNL     1       7.874   4.486  16.741  0.00  0.00    +0.000 OA
ATOM     28  H   UNL     1       8.839   4.558  16.578  0.00  0.00    +0.000 HD
ENDBRANCH  25  27
ENDBRANCH  24  25
ENDBRANCH  23  24
ENDBRANCH   6  23
TORSDOF 6
ENDMDL
MODEL 6
REMARK VINA RESULT:      -6.8      6.993      8.934
REMARK  Name = 
REMARK  7 active torsions:
REMARK  status: ('A' for Active; 'I' for Inactive)
REMARK    1  A    between atoms: C_1  and  C_2
REMARK    2  A    between atoms: C_2  and  C_3
REMARK    3  A    between atoms: C_6  and  N_7
REMARK    4  A    between atoms: C_13  and  O_14
REMARK    5  A    between atoms: O_14  and  C_15
REMARK    6  A    between atoms: C_15  and  C_16
REMARK    7  A    between atoms: C_16  and  O_18
REMARK                            x       y       z     vdW  Elec       q    Type
REMARK                         _______ _______ _______ _____ _____    ______ ____
ROOT
ATOM      1  C   UNL     1       1.633  11.613  18.638  0.00  0.00    +0.000 C 
ATOM      2  C   UNL     1       0.811  10.473  19.285  0.00  0.00    +0.000 C 
ATOM      3  C   UNL     1       0.510  10.846  20.764  0.00  0.00    +0.000 C 
ATOM      4  C   UNL     1      -0.810  11.547  20.702  0.00  0.00    +0.000 A 
ATOM      5  C   UNL     1      -1.366  12.315  21.709  0.00  0.00    +0.000 A 
ATOM      6  C   UNL     1      -2.613  12.911  21.495  0.00  0.00    +0.000 A 
ATOM      7  C   UNL     1      -3.328  12.634  20.302  0.00  0.00    +0.000 A 
ATOM      8 CL   UNL     1      -4.902  13.348  20.100  0.00  0.00    +0.000 Cl
ATOM      9  C   UNL     1      -2.766  11.823  19.294  0.00  0.00    +0.000 A 
ATOM     10 CL   UNL     1      -3.603  11.511  17.817  0.00  0.00    +0.000 Cl
ATOM     11  C   UNL     1      -1.496  11.308  19.517  0.00  0.00    +0.000 A 
ATOM     12  C   UNL     1      -0.599  10.522  18.657  0.00  0.00    +0.000 C 
ATOM     13  O   UNL     1      -0.930  10.075  17.573  0.00  0.00    +0.000 OA
ENDROOT
BRANCH   2  14
ATOM     14  C   UNL     1       1.533   9.139  19.087  0.00  0.00    +0.000 A 
ATOM     15  C   UNL     1       2.210   8.795  17.904  0.00  0.00    +0.000 A 
ATOM     16  C   UNL     1       2.875   7.568  17.775  0.00  0.00    +0.000 A 
ATOM     17  C   UNL     1       2.829   6.615  18.791  0.00  0.00    +0.000 A 
ATOM     18  C   UNL     1       2.181   6.950  19.977  0.00  0.00    +0.000 A 
ATOM     19  C   UNL     1       1.528   8.181  20.116  0.00  0.00    +0.000 A 
BRANCH  17  20
ATOM     20  N   UNL     1       3.608   5.458  18.712  0.00  0.00    +0.000 N 
ATOM     21  H   UNL     1       4.057   5.199  19.584  0.00  0.00    +0.000 HD
ATOM     22  H   UNL     1       4.250   5.450  17.927  0.00  0.00    +0.000 HD
ENDBRANCH  17  20
ENDBRANCH   2  14
BRANCH   6  23
ATOM     23  O   UNL     1      -3.184  13.771  22.409  0.00  0.00    +0.000 OA
BRANCH  23  24
ATOM     24  C   UNL     1      -3.120  13.338  23.773  0.00  0.00    +0.000 C 
BRANCH  24  25
ATOM     25  C   UNL     1      -4.429  12.713  24.222  0.00  0.00    +0.000 C 
ATOM     26  O   UNL     1      -5.327  12.410  23.453  0.00  0.00    +0.000 OA
BRANCH  25  27
ATOM     27  O   UNL     1      -4.507  12.521  25.559  0.00  0.00    +0.000 OA
ATOM     28  H   UNL     1      -5.434  12.348  25.831  0.00  0.00    +0.000 HD
ENDBRANCH  25  27
ENDBRANCH  24  25
ENDBRANCH  23  24
ENDBRANCH   6  23
TORSDOF 6
ENDMDL
MODEL 7
REMARK VINA RESULT:      -6.7      4.906      8.282
REMARK  Name = 
REMARK  7 active torsions:
REMARK  status: ('A' for Active; 'I' for Inactive)
REMARK    1  A    between atoms: C_1  and  C_2
REMARK    2  A    between atoms: C_2  and  C_3
REMARK    3  A    between atoms: C_6  and  N_7
REMARK    4  A    between atoms: C_13  and  O_14
REMARK    5  A    between atoms: O_14  and  C_15
REMARK    6  A    between atoms: C_15  and  C_16
REMARK    7  A    between atoms: C_16  and  O_18
REMARK                            x       y       z     vdW  Elec       q    Type
REMARK                         _______ _______ _______ _____ _____    ______ ____
ROOT
ATOM      1  C   UNL     1       1.927  10.708  19.898  0.00  0.00    +0.000 C 
ATOM      2  C   UNL     1       1.072   9.751  19.033  0.00  0.00    +0.000 C 
ATOM      3  C   UNL     1       1.852   9.419  17.730  0.00  0.00    +0.000 C 
ATOM      4  C   UNL     1       2.614   8.176  18.067  0.00  0.00    +0.000 A 
ATOM      5  C   UNL     1       3.665   7.650  17.340  0.00  0.00    +0.000 A 
ATOM      6  C   UNL     1       4.279   6.477  17.790  0.00  0.00    +0.000 A 
ATOM      7  C   UNL     1       3.749   5.795  18.915  0.00  0.00    +0.000 A 
ATOM      8 CL   UNL     1       4.505   4.307  19.409  0.00  0.00    +0.000 Cl
ATOM      9  C   UNL     1       2.655   6.323  19.632  0.00  0.00    +0.000 A 
ATOM     10 CL   UNL     1       2.025   5.530  21.030  0.00  0.00    +0.000 Cl
ATOM     11  C   UNL     1       2.120   7.526  19.193  0.00  0.00    +0.000 A 
ATOM     12  C   UNL     1       1.063   8.384  19.749  0.00  0.00    +0.000 C 
ATOM     13  O   UNL     1       0.369   8.063  20.698  0.00  0.00    +0.000 OA
ENDROOT
BRANCH   2  14
ATOM     14  C   UNL     1      -0.319  10.352  18.822  0.00  0.00    +0.000 A 
ATOM     15  C   UNL     1      -0.884  11.313  19.677  0.00  0.00    +0.000 A 
ATOM     16  C   UNL     1      -2.156  11.849  19.432  0.00  0.00    +0.000 A 
ATOM     17  C   UNL     1      -2.934  11.396  18.369  0.00  0.00    +0.000 A 
ATOM     18  C   UNL     1      -2.379  10.460  17.500  0.00  0.00    +0.000 A 
ATOM     19  C   UNL     1      -1.104   9.933  17.733  0.00  0.00    +0.000 A 
BRANCH  17  20
ATOM     20  N   UNL     1      -4.137  12.033  18.050  0.00  0.00    +0.000 N 
ATOM     21  H   UNL     1      -4.138  12.487  17.143  0.00  0.00    +0.000 HD
ATOM     22  H   UNL     1      -4.489  12.635  18.787  0.00  0.00    +0.000 HD
ENDBRANCH  17  20
ENDBRANCH   2  14
BRANCH   6  23
ATOM     23  O   UNL     1       5.396   5.948  17.178  0.00  0.00    +0.000 OA
BRANCH  23  24
ATOM     24  C   UNL     1       5.180   5.438  15.857  0.00  0.00    +0.000 C 
BRANCH  24  25
ATOM     25  C   UNL     1       6.444   4.823  15.283  0.00  0.00    +0.000 C 
ATOM     26  O   UNL     1       7.499   5.429  15.179  0.00  0.00    +0.000 OA
BRANCH  25  27
ATOM     27  O   UNL     1       6.292   3.536  14.893  0.00  0.00    +0.000 OA
ATOM     28  H   UNL     1       5.629   3.467  14.173  0.00  0.00    +0.000 HD
ENDBRANCH  25  27
ENDBRANCH  24  25
ENDBRANCH  23  24
ENDBRANCH   6  23
TORSDOF 6
ENDMDL
MODEL 8
REMARK VINA RESULT:      -6.6      5.316      7.887
REMARK  Name = 
REMARK  7 active torsions:
REMARK  status: ('A' for Active; 'I' for Inactive)
REMARK    1  A    between atoms: C_1  and  C_2
REMARK    2  A    between atoms: C_2  and  C_3
REMARK    3  A    between atoms: C_6  and  N_7
REMARK    4  A    between atoms: C_13  and  O_14
REMARK    5  A    between atoms: O_14  and  C_15
REMARK    6  A    between atoms: C_15  and  C_16
REMARK    7  A    between atoms: C_16  and  O_18
REMARK                            x       y       z     vdW  Elec       q    Type
REMARK                         _______ _______ _______ _____ _____    ______ ____
ROOT
ATOM      1  C   UNL     1      -0.835  10.144  18.380  0.00  0.00    +0.000 C 
ATOM      2  C   UNL     1       0.472  10.499  19.130  0.00  0.00    +0.000 C 
ATOM      3  C   UNL     1       0.512   9.714  20.471  0.00  0.00    +0.000 C 
ATOM      4  C   UNL     1       1.239   8.451  20.132  0.00  0.00    +0.000 A 
ATOM      5  C   UNL     1       1.281   7.309  20.911  0.00  0.00    +0.000 A 
ATOM      6  C   UNL     1       2.005   6.204  20.452  0.00  0.00    +0.000 A 
ATOM      7  C   UNL     1       2.763   6.308  19.258  0.00  0.00    +0.000 A 
ATOM      8 CL   UNL     1       3.697   4.930  18.751  0.00  0.00    +0.000 Cl
ATOM      9  C   UNL     1       2.739   7.489  18.486  0.00  0.00    +0.000 A 
ATOM     10 CL   UNL     1       3.620   7.618  17.007  0.00  0.00    +0.000 Cl
ATOM     11  C   UNL     1       1.952   8.538  18.942  0.00  0.00    +0.000 A 
ATOM     12  C   UNL     1       1.631   9.845  18.349  0.00  0.00    +0.000 C 
ATOM     13  O   UNL     1       2.159  10.269  17.336  0.00  0.00    +0.000 OA
ENDROOT
BRANCH   2  14
ATOM     14  C   UNL     1       0.592  12.019  19.264  0.00  0.00    +0.000 A 
ATOM     15  C   UNL     1       1.500  12.648  20.133  0.00  0.00    +0.000 A 
ATOM     16  C   UNL     1       1.588  14.045  20.208  0.00  0.00    +0.000 A 
ATOM     17  C   UNL     1       0.730  14.860  19.474  0.00  0.00    +0.000 A 
ATOM     18  C   UNL     1      -0.159  14.251  18.591  0.00  0.00    +0.000 A 
ATOM     19  C   UNL     1      -0.241  12.857  18.502  0.00  0.00    +0.000 A 
BRANCH  17  20
ATOM     20  N   UNL     1       0.918  16.245  19.447  0.00  0.00    +0.000 N 
ATOM     21  H   UNL     1       0.105  16.780  19.733  0.00  0.00    +0.000 HD
ATOM     22  H   UNL     1       1.323  16.585  18.581  0.00  0.00    +0.000 HD
ENDBRANCH  17  20
ENDBRANCH   2  14
BRANCH   6  23
ATOM     23  O   UNL     1       2.011   4.998  21.120  0.00  0.00    +0.000 OA
BRANCH  23  24
ATOM     24  C   UNL     1       1.068   4.033  20.639  0.00  0.00    +0.000 C 
BRANCH  24  25
ATOM     25  C   UNL     1       1.612   2.619  20.745  0.00  0.00    +0.000 C 
ATOM     26  O   UNL     1       1.722   1.869  19.789  0.00  0.00    +0.000 OA
BRANCH  25  27
ATOM     27  O   UNL     1       1.964   2.267  22.003  0.00  0.00    +0.000 OA
ATOM     28  H   UNL     1       1.169   2.072  22.544  0.00  0.00    +0.000 HD
ENDBRANCH  25  27
ENDBRANCH  24  25
ENDBRANCH  23  24
ENDBRANCH   6  23
TORSDOF 6
ENDMDL
MODEL 9
REMARK VINA RESULT:      -6.6      4.917      8.362
REMARK  Name = 
REMARK  7 active torsions:
REMARK  status: ('A' for Active; 'I' for Inactive)
REMARK    1  A    between atoms: C_1  and  C_2
REMARK    2  A    between atoms: C_2  and  C_3
REMARK    3  A    between atoms: C_6  and  N_7
REMARK    4  A    between atoms: C_13  and  O_14
REMARK    5  A    between atoms: O_14  and  C_15
REMARK    6  A    between atoms: C_15  and  C_16
REMARK    7  A    between atoms: C_16  and  O_18
REMARK                            x       y       z     vdW  Elec       q    Type
REMARK                         _______ _______ _______ _____ _____    ______ ____
ROOT
ATOM      1  C   UNL     1       1.892  10.679  19.977  0.00  0.00    +0.000 C 
ATOM      2  C   UNL     1       0.997   9.742  19.131  0.00  0.00    +0.000 C 
ATOM      3  C   UNL     1       1.759   9.355  17.832  0.00  0.00    +0.000 C 
ATOM      4  C   UNL     1       2.470   8.089  18.190  0.00  0.00    +0.000 A 
ATOM      5  C   UNL     1       3.497   7.508  17.469  0.00  0.00    +0.000 A 
ATOM      6  C   UNL     1       4.063   6.318  17.940  0.00  0.00    +0.000 A 
ATOM      7  C   UNL     1       3.509   5.678  19.077  0.00  0.00    +0.000 A 
ATOM      8 CL   UNL     1       4.205   4.170  19.596  0.00  0.00    +0.000 Cl
ATOM      9  C   UNL     1       2.440   6.263  19.787  0.00  0.00    +0.000 A 
ATOM     10 CL   UNL     1       1.782   5.521  21.200  0.00  0.00    +0.000 Cl
ATOM     11  C   UNL     1       1.953   7.480  19.327  0.00  0.00    +0.000 A 
ATOM     12  C   UNL     1       0.933   8.390  19.871  0.00  0.00    +0.000 C 
ATOM     13  O   UNL     1       0.229   8.114  20.827  0.00  0.00    +0.000 OA
ENDROOT
BRANCH   2  14
ATOM     14  C   UNL     1      -0.370  10.395  18.911  0.00  0.00    +0.000 A 
ATOM     15  C   UNL     1      -0.909  11.367  19.771  0.00  0.00    +0.000 A 
ATOM     16  C   UNL     1      -2.157  11.952  19.519  0.00  0.00    +0.000 A 
ATOM     17  C   UNL     1      -2.940  11.539  18.443  0.00  0.00    +0.000 A 
ATOM     18  C   UNL     1      -2.409  10.594  17.569  0.00  0.00    +0.000 A 
ATOM     19  C   UNL     1      -1.157  10.018  17.809  0.00  0.00    +0.000 A 
BRANCH  17  20
ATOM     20  N   UNL     1      -4.115  12.223  18.118  0.00  0.00    +0.000 N 
ATOM     21  H   UNL     1      -4.778  11.677  17.579  0.00  0.00    +0.000 HD
ATOM     22  H   UNL     1      -3.956  13.143  17.721  0.00  0.00    +0.000 HD
ENDBRANCH  17  20
ENDBRANCH   2  14
BRANCH   6  23
ATOM     23  O   UNL     1       5.156   5.733  17.335  0.00  0.00    +0.000 OA
BRANCH  23  24
ATOM     24  C   UNL     1       6.422   6.059  17.924  0.00  0.00    +0.000 C 
BRANCH  24  25
ATOM     25  C   UNL     1       7.323   6.786  16.942  0.00  0.00    +0.000 C 
ATOM     26  O   UNL     1       7.777   7.901  17.146  0.00  0.00    +0.000 OA
BRANCH  25  27
ATOM     27  O   UNL     1       7.577   6.082  15.815  0.00  0.00    +0.000 OA
ATOM     28  H   UNL     1       7.070   5.242  15.809  0.00  0.00    +0.000 HD
ENDBRANCH  25  27
ENDBRANCH  24  25
ENDBRANCH  23  24
ENDBRANCH   6  23
TORSDOF 6
ENDMDL
