MODEL 1
REMARK VINA RESULT:      -6.4      0.000      0.000
REMARK  Name = 
REMARK  4 active torsions:
REMARK  status: ('A' for Active; 'I' for Inactive)
REMARK    1  A    between atoms: N_1  and  C_2
REMARK    2  A    between atoms: N_10  and  C_11
REMARK    3  A    between atoms: C_14  and  C_15
REMARK    4  A    between atoms: C_15  and  O_16
REMARK                            x       y       z     vdW  Elec       q    Type
REMARK                         _______ _______ _______ _____ _____    ______ ____
ROOT
ATOM      1  C   UNL     1       1.457   3.181  19.361  0.00  0.00    +0.000 A 
ATOM      2  N   UNL     1       1.825   1.881  19.326  0.00  0.00    +0.000 NA
ATOM      3  C   UNL     1       2.961   1.553  18.679  0.00  0.00    +0.000 A 
ATOM      4  N   UNL     1       3.820   2.371  18.042  0.00  0.00    +0.000 NA
ATOM      5  C   UNL     1       3.390   3.643  18.058  0.00  0.00    +0.000 A 
ATOM      6  C   UNL     1       2.247   4.123  18.674  0.00  0.00    +0.000 A 
ATOM      7  N   UNL     1       2.128   5.484  18.486  0.00  0.00    +0.000 NA
ATOM      8  C   UNL     1       3.199   5.824  17.795  0.00  0.00    +0.000 A 
ATOM      9  N   UNL     1       3.987   4.741  17.490  0.00  0.00    +0.000 N 
ENDROOT
BRANCH   9  10
ATOM     10  C   UNL     1       5.311   4.782  16.882  0.00  0.00    +0.000 C 
ATOM     11  C   UNL     1       5.719   6.066  16.152  0.00  0.00    +0.000 C 
ATOM     12  S   UNL     1       6.538   7.091  17.386  0.00  0.00    +0.000 S 
ATOM     13  C   UNL     1       6.695   5.706  18.542  0.00  0.00    +0.000 C 
ATOM     14  O   UNL     1       6.332   4.491  17.870  0.00  0.00    +0.000 OA
BRANCH  13  15
ATOM     15  C   UNL     1       8.126   5.633  19.099  0.00  0.00    +0.000 C 
BRANCH  15  16
ATOM     16  O   UNL     1       8.133   5.466  20.516  0.00  0.00    +0.000 OA
ATOM     17  H   UNL     1       8.882   4.877  20.720  0.00  0.00    +0.000 HD
ENDBRANCH  15  16
ENDBRANCH  13  15
ENDBRANCH   9  10
BRANCH   1  18
ATOM     18  N   UNL     1       0.309   3.503  20.072  0.00  0.00    +0.000 N 
ATOM     19  H   UNL     1       0.515   3.875  20.987  0.00  0.00    +0.000 HD
ATOM     20  H   UNL     1      -0.426   2.805  20.000  0.00  0.00    +0.000 HD
ENDBRANCH   1  18
TORSDOF 4
ENDMDL
MODEL 2
REMARK VINA RESULT:      -6.4      1.218      1.232
REMARK  Name = 
REMARK  4 active torsions:
REMARK  status: ('A' for Active; 'I' for Inactive)
REMARK    1  A    between atoms: N_1  and  C_2
REMARK    2  A    between atoms: N_10  and  C_11
REMARK    3  A    between atoms: C_14  and  C_15
REMARK    4  A    between atoms: C_15  and  O_16
REMARK                            x       y       z     vdW  Elec       q    Type
REMARK                         _______ _______ _______ _____ _____    ______ ____
ROOT
ATOM      1  C   UNL     1       2.062   3.020  20.396  0.00  0.00    +0.000 A 
ATOM      2  N   UNL     1       2.869   2.299  21.205  0.00  0.00    +0.000 NA
ATOM      3  C   UNL     1       4.164   2.159  20.859  0.00  0.00    +0.000 A 
ATOM      4  N   UNL     1       4.795   2.661  19.781  0.00  0.00    +0.000 NA
ATOM      5  C   UNL     1       3.946   3.325  18.980  0.00  0.00    +0.000 A 
ATOM      6  C   UNL     1       2.597   3.543  19.203  0.00  0.00    +0.000 A 
ATOM      7  N   UNL     1       2.044   4.269  18.169  0.00  0.00    +0.000 NA
ATOM      8  C   UNL     1       3.051   4.512  17.352  0.00  0.00    +0.000 A 
ATOM      9  N   UNL     1       4.223   3.943  17.786  0.00  0.00    +0.000 N 
ENDROOT
BRANCH   9  10
ATOM     10  C   UNL     1       5.546   4.148  17.210  0.00  0.00    +0.000 C 
ATOM     11  C   UNL     1       5.732   5.336  16.260  0.00  0.00    +0.000 C 
ATOM     12  S   UNL     1       6.252   6.714  17.295  0.00  0.00    +0.000 S 
ATOM     13  C   UNL     1       6.613   5.624  18.696  0.00  0.00    +0.000 C 
ATOM     14  O   UNL     1       6.543   4.260  18.258  0.00  0.00    +0.000 OA
BRANCH  13  15
ATOM     15  C   UNL     1       7.993   5.953  19.288  0.00  0.00    +0.000 C 
BRANCH  15  16
ATOM     16  O   UNL     1       8.149   5.408  20.598  0.00  0.00    +0.000 OA
ATOM     17  H   UNL     1       9.068   5.089  20.655  0.00  0.00    +0.000 HD
ENDBRANCH  15  16
ENDBRANCH  13  15
ENDBRANCH   9  10
BRANCH   1  18
ATOM     18  N   UNL     1       0.743   3.191  20.795  0.00  0.00    +0.000 N 
ATOM     19  H   UNL     1       0.633   3.958  21.440  0.00  0.00    +0.000 HD
ATOM     20  H   UNL     1       0.263   2.320  21.008  0.00  0.00    +0.000 HD
ENDBRANCH   1  18
TORSDOF 4
ENDMDL
MODEL 3
REMARK VINA RESULT:      -6.3      2.077      3.049
REMARK  Name = 
REMARK  4 active torsions:
REMARK  status: ('A' for Active; 'I' for Inactive)
REMARK    1  A    between atoms: N_1  and  C_2
REMARK    2  A    between atoms: N_10  and  C_11
REMARK    3  A    between atoms: C_14  and  C_15
REMARK    4  A    between atoms: C_15  and  O_16
REMARK                            x       y       z     vdW  Elec       q    Type
REMARK                         _______ _______ _______ _____ _____    ______ ____
ROOT
ATOM      1  C   UNL     1       1.210   3.771  19.762  0.00  0.00    +0.000 A 
ATOM      2  N   UNL     1       1.161   4.783  20.657  0.00  0.00    +0.000 NA
ATOM      3  C   UNL     1       2.023   5.809  20.511  0.00  0.00    +0.000 A 
ATOM      4  N   UNL     1       2.960   5.978  19.560  0.00  0.00    +0.000 NA
ATOM      5  C   UNL     1       3.008   4.927  18.725  0.00  0.00    +0.000 A 
ATOM      6  C   UNL     1       2.194   3.808  18.756  0.00  0.00    +0.000 A 
ATOM      7  N   UNL     1       2.527   2.936  17.740  0.00  0.00    +0.000 NA
ATOM      8  C   UNL     1       3.505   3.535  17.089  0.00  0.00    +0.000 A 
ATOM      9  N   UNL     1       3.851   4.736  17.658  0.00  0.00    +0.000 N 
ENDROOT
BRANCH   9  10
ATOM     10  C   UNL     1       4.773   5.719  17.104  0.00  0.00    +0.000 C 
ATOM     11  C   UNL     1       6.126   5.896  17.800  0.00  0.00    +0.000 C 
ATOM     12  S   UNL     1       7.253   4.758  16.977  0.00  0.00    +0.000 S 
ATOM     13  C   UNL     1       6.105   4.497  15.601  0.00  0.00    +0.000 C 
ATOM     14  O   UNL     1       5.029   5.441  15.704  0.00  0.00    +0.000 OA
BRANCH  13  15
ATOM     15  C   UNL     1       6.841   4.629  14.258  0.00  0.00    +0.000 C 
BRANCH  15  16
ATOM     16  O   UNL     1       7.903   5.580  14.329  0.00  0.00    +0.000 OA
ATOM     17  H   UNL     1       7.867   6.094  13.501  0.00  0.00    +0.000 HD
ENDBRANCH  15  16
ENDBRANCH  13  15
ENDBRANCH   9  10
BRANCH   1  18
ATOM     18  N   UNL     1       0.281   2.748  19.902  0.00  0.00    +0.000 N 
ATOM     19  H   UNL     1      -0.026   2.382  19.014  0.00  0.00    +0.000 HD
ATOM     20  H   UNL     1      -0.427   2.932  20.608  0.00  0.00    +0.000 HD
ENDBRANCH   1  18
TORSDOF 4
ENDMDL
MODEL 4
REMARK VINA RESULT:      -6.2      3.223      5.615
REMARK  Name = 
REMARK  4 active torsions:
REMARK  status: ('A' for Active; 'I' for Inactive)
REMARK    1  A    between atoms: N_1  and  C_2
REMARK    2  A    between atoms: N_10  and  C_11
REMARK    3  A    between atoms: C_14  and  C_15
REMARK    4  A    between atoms: C_15  and  O_16
REMARK                            x       y       z     vdW  Elec       q    Type
REMARK                         _______ _______ _______ _____ _____    ______ ____
ROOT
ATOM      1  C   UNL     1       7.118   6.113  16.577  0.00  0.00    +0.000 A 
ATOM      2  N   UNL     1       7.199   5.510  15.370  0.00  0.00    +0.000 NA
ATOM      3  C   UNL     1       6.477   4.390  15.163  0.00  0.00    +0.000 A 
ATOM      4  N   UNL     1       5.650   3.765  16.020  0.00  0.00    +0.000 NA
ATOM      5  C   UNL     1       5.639   4.367  17.220  0.00  0.00    +0.000 A 
ATOM      6  C   UNL     1       6.328   5.513  17.577  0.00  0.00    +0.000 A 
ATOM      7  N   UNL     1       6.074   5.844  18.892  0.00  0.00    +0.000 NA
ATOM      8  C   UNL     1       5.219   4.930  19.310  0.00  0.00    +0.000 A 
ATOM      9  N   UNL     1       4.939   3.997  18.342  0.00  0.00    +0.000 N 
ENDROOT
BRANCH   9  10
ATOM     10  C   UNL     1       3.924   2.955  18.418  0.00  0.00    +0.000 C 
ATOM     11  C   UNL     1       4.042   1.927  19.548  0.00  0.00    +0.000 C 
ATOM     12  S   UNL     1       3.086   2.597  20.920  0.00  0.00    +0.000 S 
ATOM     13  C   UNL     1       2.286   3.828  19.860  0.00  0.00    +0.000 C 
ATOM     14  O   UNL     1       2.599   3.541  18.490  0.00  0.00    +0.000 OA
BRANCH  13  15
ATOM     15  C   UNL     1       0.768   3.835  20.099  0.00  0.00    +0.000 C 
BRANCH  15  16
ATOM     16  O   UNL     1       0.137   2.695  19.518  0.00  0.00    +0.000 OA
ATOM     17  H   UNL     1       0.616   1.915  19.853  0.00  0.00    +0.000 HD
ENDBRANCH  15  16
ENDBRANCH  13  15
ENDBRANCH   9  10
BRANCH   1  18
ATOM     18  N   UNL     1       7.831   7.291  16.754  0.00  0.00    +0.000 N 
ATOM     19  H   UNL     1       8.828   7.141  16.752  0.00  0.00    +0.000 HD
ATOM     20  H   UNL     1       7.445   7.898  17.473  0.00  0.00    +0.000 HD
ENDBRANCH   1  18
TORSDOF 4
ENDMDL
MODEL 5
REMARK VINA RESULT:      -6.1      1.727      1.935
REMARK  Name = 
REMARK  4 active torsions:
REMARK  status: ('A' for Active; 'I' for Inactive)
REMARK    1  A    between atoms: N_1  and  C_2
REMARK    2  A    between atoms: N_10  and  C_11
REMARK    3  A    between atoms: C_14  and  C_15
REMARK    4  A    between atoms: C_15  and  O_16
REMARK                            x       y       z     vdW  Elec       q    Type
REMARK                         _______ _______ _______ _____ _____    ______ ____
ROOT
ATOM      1  C   UNL     1       1.951   2.921  20.265  0.00  0.00    +0.000 A 
ATOM      2  N   UNL     1       2.848   2.487  21.178  0.00  0.00    +0.000 NA
ATOM      3  C   UNL     1       4.145   2.413  20.819  0.00  0.00    +0.000 A 
ATOM      4  N   UNL     1       4.697   2.727  19.632  0.00  0.00    +0.000 NA
ATOM      5  C   UNL     1       3.766   3.104  18.741  0.00  0.00    +0.000 A 
ATOM      6  C   UNL     1       2.405   3.221  18.966  0.00  0.00    +0.000 A 
ATOM      7  N   UNL     1       1.757   3.638  17.822  0.00  0.00    +0.000 NA
ATOM      8  C   UNL     1       2.716   3.799  16.931  0.00  0.00    +0.000 A 
ATOM      9  N   UNL     1       3.952   3.468  17.430  0.00  0.00    +0.000 N 
ENDROOT
BRANCH   9  10
ATOM     10  C   UNL     1       5.233   3.681  16.771  0.00  0.00    +0.000 C 
ATOM     11  C   UNL     1       5.222   4.351  15.393  0.00  0.00    +0.000 C 
ATOM     12  S   UNL     1       5.384   6.117  15.706  0.00  0.00    +0.000 S 
ATOM     13  C   UNL     1       5.883   5.843  17.425  0.00  0.00    +0.000 C 
ATOM     14  O   UNL     1       6.124   4.443  17.626  0.00  0.00    +0.000 OA
BRANCH  13  15
ATOM     15  C   UNL     1       7.128   6.679  17.760  0.00  0.00    +0.000 C 
BRANCH  15  16
ATOM     16  O   UNL     1       7.799   7.123  16.581  0.00  0.00    +0.000 OA
ATOM     17  H   UNL     1       7.153   7.054  15.855  0.00  0.00    +0.000 HD
ENDBRANCH  15  16
ENDBRANCH  13  15
ENDBRANCH   9  10
BRANCH   1  18
ATOM     18  N   UNL     1       0.628   3.036  20.670  0.00  0.00    +0.000 N 
ATOM     19  H   UNL     1       0.433   2.502  21.504  0.00  0.00    +0.000 HD
ATOM     20  H   UNL     1      -0.040   2.981  19.906  0.00  0.00    +0.000 HD
ENDBRANCH   1  18
TORSDOF 4
ENDMDL
MODEL 6
REMARK VINA RESULT:      -6.0      3.184      5.647
REMARK  Name = 
REMARK  4 active torsions:
REMARK  status: ('A' for Active; 'I' for Inactive)
REMARK    1  A    between atoms: N_1  and  C_2
REMARK    2  A    between atoms: N_10  and  C_11
REMARK    3  A    between atoms: C_14  and  C_15
REMARK    4  A    between atoms: C_15  and  O_16
REMARK                            x       y       z     vdW  Elec       q    Type
REMARK                         _______ _______ _______ _____ _____    ______ ____
ROOT
ATOM      1  C   UNL     1       7.364   7.052  17.736  0.00  0.00    +0.000 A 
ATOM      2  N   UNL     1       8.114   6.725  18.811  0.00  0.00    +0.000 NA
ATOM      3  C   UNL     1       7.780   5.625  19.515  0.00  0.00    +0.000 A 
ATOM      4  N   UNL     1       6.767   4.769  19.287  0.00  0.00    +0.000 NA
ATOM      5  C   UNL     1       6.019   5.160  18.243  0.00  0.00    +0.000 A 
ATOM      6  C   UNL     1       6.237   6.263  17.436  0.00  0.00    +0.000 A 
ATOM      7  N   UNL     1       5.269   6.349  16.457  0.00  0.00    +0.000 NA
ATOM      8  C   UNL     1       4.497   5.297  16.653  0.00  0.00    +0.000 A 
ATOM      9  N   UNL     1       4.895   4.554  17.738  0.00  0.00    +0.000 N 
ENDROOT
BRANCH   9  10
ATOM     10  C   UNL     1       4.367   3.256  18.134  0.00  0.00    +0.000 C 
ATOM     11  C   UNL     1       4.450   2.875  19.616  0.00  0.00    +0.000 C 
ATOM     12  S   UNL     1       2.907   3.439  20.353  0.00  0.00    +0.000 S 
ATOM     13  C   UNL     1       2.135   3.684  18.734  0.00  0.00    +0.000 C 
ATOM     14  O   UNL     1       2.982   3.124  17.721  0.00  0.00    +0.000 OA
BRANCH  13  15
ATOM     15  C   UNL     1       0.735   3.050  18.707  0.00  0.00    +0.000 C 
BRANCH  15  16
ATOM     16  O   UNL     1       0.224   2.842  20.023  0.00  0.00    +0.000 OA
ATOM     17  H   UNL     1       0.954   3.044  20.637  0.00  0.00    +0.000 HD
ENDBRANCH  15  16
ENDBRANCH  13  15
ENDBRANCH   9  10
BRANCH   1  18
ATOM     18  N   UNL     1       7.754   8.161  16.996  0.00  0.00    +0.000 N 
ATOM     19  H   UNL     1       8.751   8.192  16.845  0.00  0.00    +0.000 HD
ATOM     20  H   UNL     1       7.291   9.022  17.275  0.00  0.00    +0.000 HD
ENDBRANCH   1  18
TORSDOF 4
ENDMDL
MODEL 7
REMARK VINA RESULT:      -6.0      3.283      5.303
REMARK  Name = 
REMARK  4 active torsions:
REMARK  status: ('A' for Active; 'I' for Inactive)
REMARK    1  A    between atoms: N_1  and  C_2
REMARK    2  A    between atoms: N_10  and  C_11
REMARK    3  A    between atoms: C_14  and  C_15
REMARK    4  A    between atoms: C_15  and  O_16
REMARK                            x       y       z     vdW  Elec       q    Type
REMARK                         _______ _______ _______ _____ _____    ______ ____
ROOT
ATOM      1  C   UNL     1       7.222   4.652  17.403  0.00  0.00    +0.000 A 
ATOM      2  N   UNL     1       7.194   5.340  16.240  0.00  0.00    +0.000 NA
ATOM      3  C   UNL     1       6.006   5.797  15.794  0.00  0.00    +0.000 A 
ATOM      4  N   UNL     1       4.796   5.663  16.368  0.00  0.00    +0.000 NA
ATOM      5  C   UNL     1       4.863   4.931  17.491  0.00  0.00    +0.000 A 
ATOM      6  C   UNL     1       6.005   4.396  18.064  0.00  0.00    +0.000 A 
ATOM      7  N   UNL     1       5.694   3.707  19.217  0.00  0.00    +0.000 NA
ATOM      8  C   UNL     1       4.390   3.851  19.355  0.00  0.00    +0.000 A 
ATOM      9  N   UNL     1       3.834   4.566  18.323  0.00  0.00    +0.000 N 
ENDROOT
BRANCH   9  10
ATOM     10  C   UNL     1       2.458   5.041  18.246  0.00  0.00    +0.000 C 
ATOM     11  C   UNL     1       1.398   4.283  19.052  0.00  0.00    +0.000 C 
ATOM     12  S   UNL     1       1.319   5.105  20.652  0.00  0.00    +0.000 S 
ATOM     13  C   UNL     1       2.248   6.537  20.047  0.00  0.00    +0.000 C 
ATOM     14  O   UNL     1       2.382   6.440  18.622  0.00  0.00    +0.000 OA
BRANCH  13  15
ATOM     15  C   UNL     1       1.546   7.841  20.457  0.00  0.00    +0.000 C 
BRANCH  15  16
ATOM     16  O   UNL     1       1.914   8.247  21.776  0.00  0.00    +0.000 OA
ATOM     17  H   UNL     1       2.649   8.879  21.674  0.00  0.00    +0.000 HD
ENDBRANCH  15  16
ENDBRANCH  13  15
ENDBRANCH   9  10
BRANCH   1  18
ATOM     18  N   UNL     1       8.461   4.233  17.869  0.00  0.00    +0.000 N 
ATOM     19  H   UNL     1       8.384   3.532  18.590  0.00  0.00    +0.000 HD
ATOM     20  H   UNL     1       9.121   4.992  18.015  0.00  0.00    +0.000 HD
ENDBRANCH   1  18
TORSDOF 4
ENDMDL
MODEL 8
REMARK VINA RESULT:      -6.0      3.198      5.229
REMARK  Name = 
REMARK  4 active torsions:
REMARK  status: ('A' for Active; 'I' for Inactive)
REMARK    1  A    between atoms: N_1  and  C_2
REMARK    2  A    between atoms: N_10  and  C_11
REMARK    3  A    between atoms: C_14  and  C_15
REMARK    4  A    between atoms: C_15  and  O_16
REMARK                            x       y       z     vdW  Elec       q    Type
REMARK                         _______ _______ _______ _____ _____    ______ ____
ROOT
ATOM      1  C   UNL     1       6.673   6.657  17.042  0.00  0.00    +0.000 A 
ATOM      2  N   UNL     1       7.405   5.567  16.724  0.00  0.00    +0.000 NA
ATOM      3  C   UNL     1       6.796   4.364  16.721  0.00  0.00    +0.000 A 
ATOM      4  N   UNL     1       5.509   4.084  16.996  0.00  0.00    +0.000 NA
ATOM      5  C   UNL     1       4.832   5.187  17.355  0.00  0.00    +0.000 A 
ATOM      6  C   UNL     1       5.325   6.479  17.409  0.00  0.00    +0.000 A 
ATOM      7  N   UNL     1       4.343   7.358  17.816  0.00  0.00    +0.000 NA
ATOM      8  C   UNL     1       3.267   6.611  17.974  0.00  0.00    +0.000 A 
ATOM      9  N   UNL     1       3.515   5.283  17.729  0.00  0.00    +0.000 N 
ENDROOT
BRANCH   9  10
ATOM     10  C   UNL     1       2.521   4.220  17.657  0.00  0.00    +0.000 C 
ATOM     11  C   UNL     1       3.027   2.781  17.505  0.00  0.00    +0.000 C 
ATOM     12  S   UNL     1       3.207   2.146  19.180  0.00  0.00    +0.000 S 
ATOM     13  C   UNL     1       2.249   3.513  19.882  0.00  0.00    +0.000 C 
ATOM     14  O   UNL     1       1.649   4.261  18.816  0.00  0.00    +0.000 OA
BRANCH  13  15
ATOM     15  C   UNL     1       1.189   2.978  20.858  0.00  0.00    +0.000 C 
BRANCH  15  16
ATOM     16  O   UNL     1       1.755   2.654  22.128  0.00  0.00    +0.000 OA
ATOM     17  H   UNL     1       1.037   2.748  22.780  0.00  0.00    +0.000 HD
ENDBRANCH  15  16
ENDBRANCH  13  15
ENDBRANCH   9  10
BRANCH   1  18
ATOM     18  N   UNL     1       7.307   7.892  16.992  0.00  0.00    +0.000 N 
ATOM     19  H   UNL     1       6.801   8.562  16.435  0.00  0.00    +0.000 HD
ATOM     20  H   UNL     1       8.313   7.829  16.860  0.00  0.00    +0.000 HD
ENDBRANCH   1  18
TORSDOF 4
ENDMDL
MODEL 9
REMARK VINA RESULT:      -5.9      1.630      1.865
REMARK  Name = 
REMARK  4 active torsions:
REMARK  status: ('A' for Active; 'I' for Inactive)
REMARK    1  A    between atoms: N_1  and  C_2
REMARK    2  A    between atoms: N_10  and  C_11
REMARK    3  A    between atoms: C_14  and  C_15
REMARK    4  A    between atoms: C_15  and  O_16
REMARK                            x       y       z     vdW  Elec       q    Type
REMARK                         _______ _______ _______ _____ _____    ______ ____
ROOT
ATOM      1  C   UNL     1       1.816   2.890  20.605  0.00  0.00    +0.000 A 
ATOM      2  N   UNL     1       1.624   1.836  19.781  0.00  0.00    +0.000 NA
ATOM      3  C   UNL     1       1.971   1.964  18.484  0.00  0.00    +0.000 A 
ATOM      4  N   UNL     1       2.508   3.034  17.870  0.00  0.00    +0.000 NA
ATOM      5  C   UNL     1       2.634   4.072  18.712  0.00  0.00    +0.000 A 
ATOM      6  C   UNL     1       2.317   4.088  20.060  0.00  0.00    +0.000 A 
ATOM      7  N   UNL     1       2.582   5.326  20.608  0.00  0.00    +0.000 NA
ATOM      8  C   UNL     1       3.081   6.034  19.613  0.00  0.00    +0.000 A 
ATOM      9  N   UNL     1       3.114   5.329  18.436  0.00  0.00    +0.000 N 
ENDROOT
BRANCH   9  10
ATOM     10  C   UNL     1       3.746   5.753  17.194  0.00  0.00    +0.000 C 
ATOM     11  C   UNL     1       4.450   7.114  17.183  0.00  0.00    +0.000 C 
ATOM     12  S   UNL     1       6.161   6.784  17.638  0.00  0.00    +0.000 S 
ATOM     13  C   UNL     1       5.967   5.003  17.374  0.00  0.00    +0.000 C 
ATOM     14  O   UNL     1       4.701   4.758  16.744  0.00  0.00    +0.000 OA
BRANCH  13  15
ATOM     15  C   UNL     1       7.129   4.457  16.530  0.00  0.00    +0.000 C 
BRANCH  15  16
ATOM     16  O   UNL     1       8.232   4.059  17.344  0.00  0.00    +0.000 OA
ATOM     17  H   UNL     1       8.461   3.152  17.070  0.00  0.00    +0.000 HD
ENDBRANCH  15  16
ENDBRANCH  13  15
ENDBRANCH   9  10
BRANCH   1  18
ATOM     18  N   UNL     1       1.498   2.721  21.945  0.00  0.00    +0.000 N 
ATOM     19  H   UNL     1       0.504   2.759  22.113  0.00  0.00    +0.000 HD
ATOM     20  H   UNL     1       2.105   3.236  22.578  0.00  0.00    +0.000 HD
ENDBRANCH   1  18
TORSDOF 4
ENDMDL
