MODEL 1
REMARK VINA RESULT:      -9.7      0.000      0.000
REMARK  Name = 
REMARK  8 active torsions:
REMARK  status: ('A' for Active; 'I' for Inactive)
REMARK    1  A    between atoms: C_1  and  O_2
REMARK    2  A    between atoms: O_2  and  C_3
REMARK    3  A    between atoms: C_6  and  N_7
REMARK    4  A    between atoms: C_8  and  C_9
REMARK    5  A    between atoms: C_12  and  N_13
REMARK    6  A    between atoms: C_14  and  C_16
REMARK    7  A    between atoms: C_20  and  C_21
REMARK    8  A    between atoms: C_21  and  C_22
REMARK                            x       y       z     vdW  Elec       q    Type
REMARK                         _______ _______ _______ _____ _____    ______ ____
ROOT
ATOM      1  C   UNL     1       1.333   8.723  20.319  0.00  0.00    +0.000 A 
ATOM      2  C   UNL     1       0.996   8.537  21.670  0.00  0.00    +0.000 A 
ATOM      3  C   UNL     1       0.284   9.505  22.372  0.00  0.00    +0.000 A 
ATOM      4  C   UNL     1      -0.125  10.663  21.721  0.00  0.00    +0.000 A 
ATOM      5  C   UNL     1       0.158  10.853  20.358  0.00  0.00    +0.000 A 
ATOM      6  C   UNL     1       0.907   9.881  19.658  0.00  0.00    +0.000 A 
ENDROOT
BRANCH   1   8
ATOM      7  N   UNL     1       2.347   6.454  20.382  0.00  0.00    +0.000 N 
ATOM      8  C   UNL     1       2.001   7.581  19.642  0.00  0.00    +0.000 C 
ATOM      9  O   UNL     1       2.156   7.708  18.432  0.00  0.00    +0.000 OA
ATOM     10  H   UNL     1       1.958   6.324  21.310  0.00  0.00    +0.000 HD
BRANCH   7  16
ATOM     11  C   UNL     1       2.910   4.043  20.397  0.00  0.00    +0.000 A 
ATOM     12  C   UNL     1       3.633   2.972  19.844  0.00  0.00    +0.000 A 
ATOM     13  C   UNL     1       4.424   3.143  18.706  0.00  0.00    +0.000 A 
ATOM     14  C   UNL     1       4.541   4.394  18.122  0.00  0.00    +0.000 A 
ATOM     15  C   UNL     1       3.891   5.477  18.720  0.00  0.00    +0.000 A 
ATOM     16  C   UNL     1       3.050   5.329  19.839  0.00  0.00    +0.000 A 
BRANCH  14  17
ATOM     17  N   UNL     1       5.246   4.642  16.925  0.00  0.00    +0.000 N 
ATOM     18  C   UNL     1       6.613   4.584  16.742  0.00  0.00    +0.000 C 
ATOM     19  C   UNL     1       7.027   4.767  15.304  0.00  0.00    +0.000 C 
ATOM     20  O   UNL     1       7.461   4.439  17.615  0.00  0.00    +0.000 OA
ATOM     21  H   UNL     1       4.674   4.871  16.120  0.00  0.00    +0.000 HD
ENDBRANCH  14  17
BRANCH  11  23
ATOM     22  C   UNL     1       1.563   2.544  21.638  0.00  0.00    +0.000 C 
ATOM     23  O   UNL     1       2.041   3.882  21.454  0.00  0.00    +0.000 OA
ENDBRANCH  11  23
ENDBRANCH   7  16
ENDBRANCH   1   8
BRANCH   5  24
ATOM     24  C   UNL     1      -0.347  12.102  19.665  0.00  0.00    +0.000 C 
BRANCH  24  25
ATOM     25  C   UNL     1      -1.868  12.133  19.567  0.00  0.00    +0.000 A 
ATOM     26  N   UNL     1      -2.492  12.761  20.521  0.00  0.00    +0.000 NA
ATOM     27  N   UNL     1      -3.847  12.814  20.454  0.00  0.00    +0.000 N 
ATOM     28  C   UNL     1      -4.624  12.286  19.461  0.00  0.00    +0.000 A 
ATOM     29  O   UNL     1      -5.848  12.358  19.478  0.00  0.00    +0.000 OA
ATOM     30  C   UNL     1      -3.896  11.617  18.354  0.00  0.00    +0.000 A 
ATOM     31  C   UNL     1      -2.557  11.497  18.399  0.00  0.00    +0.000 A 
ATOM     32  C   UNL     1      -1.782  10.787  17.322  0.00  0.00    +0.000 C 
ATOM     33  C   UNL     1      -2.666   9.988  16.358  0.00  0.00    +0.000 C 
ATOM     34  C   UNL     1      -3.906  10.782  15.972  0.00  0.00    +0.000 C 
ATOM     35  C   UNL     1      -4.736  11.113  17.213  0.00  0.00    +0.000 C 
ATOM     36  H   UNL     1      -4.324  13.278  21.219  0.00  0.00    +0.000 HD
ENDBRANCH  24  25
ENDBRANCH   5  24
TORSDOF 6
ENDMDL
MODEL 2
REMARK VINA RESULT:      -9.4      1.291      2.024
REMARK  Name = 
REMARK  8 active torsions:
REMARK  status: ('A' for Active; 'I' for Inactive)
REMARK    1  A    between atoms: C_1  and  O_2
REMARK    2  A    between atoms: O_2  and  C_3
REMARK    3  A    between atoms: C_6  and  N_7
REMARK    4  A    between atoms: C_8  and  C_9
REMARK    5  A    between atoms: C_12  and  N_13
REMARK    6  A    between atoms: C_14  and  C_16
REMARK    7  A    between atoms: C_20  and  C_21
REMARK    8  A    between atoms: C_21  and  C_22
REMARK                            x       y       z     vdW  Elec       q    Type
REMARK                         _______ _______ _______ _____ _____    ______ ____
ROOT
ATOM      1  C   UNL     1       1.214   8.857  20.519  0.00  0.00    +0.000 A 
ATOM      2  C   UNL     1       0.866   8.623  21.860  0.00  0.00    +0.000 A 
ATOM      3  C   UNL     1       0.165   9.573  22.596  0.00  0.00    +0.000 A 
ATOM      4  C   UNL     1      -0.221  10.762  21.989  0.00  0.00    +0.000 A 
ATOM      5  C   UNL     1       0.073  11.002  20.637  0.00  0.00    +0.000 A 
ATOM      6  C   UNL     1       0.810  10.046  19.903  0.00  0.00    +0.000 A 
ENDROOT
BRANCH   1   8
ATOM      7  N   UNL     1       2.195   6.572  20.498  0.00  0.00    +0.000 N 
ATOM      8  C   UNL     1       1.868   7.732  19.801  0.00  0.00    +0.000 C 
ATOM      9  O   UNL     1       2.030   7.903  18.597  0.00  0.00    +0.000 OA
ATOM     10  H   UNL     1       1.801   6.412  21.420  0.00  0.00    +0.000 HD
BRANCH   7  16
ATOM     11  C   UNL     1       2.588   4.136  20.299  0.00  0.00    +0.000 A 
ATOM     12  C   UNL     1       3.301   3.075  19.714  0.00  0.00    +0.000 A 
ATOM     13  C   UNL     1       4.240   3.303  18.704  0.00  0.00    +0.000 A 
ATOM     14  C   UNL     1       4.514   4.595  18.288  0.00  0.00    +0.000 A 
ATOM     15  C   UNL     1       3.868   5.657  18.928  0.00  0.00    +0.000 A 
ATOM     16  C   UNL     1       2.884   5.459  19.914  0.00  0.00    +0.000 A 
BRANCH  14  17
ATOM     17  N   UNL     1       5.379   4.912  17.220  0.00  0.00    +0.000 N 
ATOM     18  C   UNL     1       6.749   4.751  17.189  0.00  0.00    +0.000 C 
ATOM     19  C   UNL     1       7.353   5.058  15.842  0.00  0.00    +0.000 C 
ATOM     20  O   UNL     1       7.469   4.430  18.129  0.00  0.00    +0.000 OA
ATOM     21  H   UNL     1       4.931   5.283  16.389  0.00  0.00    +0.000 HD
ENDBRANCH  14  17
BRANCH  11  23
ATOM     22  C   UNL     1       1.517   2.604  21.752  0.00  0.00    +0.000 C 
ATOM     23  O   UNL     1       1.584   3.933  21.219  0.00  0.00    +0.000 OA
ENDBRANCH  11  23
ENDBRANCH   7  16
ENDBRANCH   1   8
BRANCH   5  24
ATOM     24  C   UNL     1      -0.408  12.285  19.992  0.00  0.00    +0.000 C 
BRANCH  24  25
ATOM     25  C   UNL     1      -1.574  12.050  19.038  0.00  0.00    +0.000 A 
ATOM     26  N   UNL     1      -1.262  11.672  17.832  0.00  0.00    +0.000 NA
ATOM     27  N   UNL     1      -2.281  11.445  16.964  0.00  0.00    +0.000 N 
ATOM     28  C   UNL     1      -3.615  11.554  17.243  0.00  0.00    +0.000 A 
ATOM     29  O   UNL     1      -4.481  11.350  16.399  0.00  0.00    +0.000 OA
ATOM     30  C   UNL     1      -3.956  11.937  18.636  0.00  0.00    +0.000 A 
ATOM     31  C   UNL     1      -2.982  12.218  19.520  0.00  0.00    +0.000 A 
ATOM     32  C   UNL     1      -3.283  12.654  20.929  0.00  0.00    +0.000 C 
ATOM     33  C   UNL     1      -4.755  13.017  21.156  0.00  0.00    +0.000 C 
ATOM     34  C   UNL     1      -5.674  12.005  20.485  0.00  0.00    +0.000 C 
ATOM     35  C   UNL     1      -5.421  11.971  18.977  0.00  0.00    +0.000 C 
ATOM     36  H   UNL     1      -2.025  11.182  16.019  0.00  0.00    +0.000 HD
ENDBRANCH  24  25
ENDBRANCH   5  24
TORSDOF 6
ENDMDL
MODEL 3
REMARK VINA RESULT:      -9.3      2.082      3.336
REMARK  Name = 
REMARK  8 active torsions:
REMARK  status: ('A' for Active; 'I' for Inactive)
REMARK    1  A    between atoms: C_1  and  O_2
REMARK    2  A    between atoms: O_2  and  C_3
REMARK    3  A    between atoms: C_6  and  N_7
REMARK    4  A    between atoms: C_8  and  C_9
REMARK    5  A    between atoms: C_12  and  N_13
REMARK    6  A    between atoms: C_14  and  C_16
REMARK    7  A    between atoms: C_20  and  C_21
REMARK    8  A    between atoms: C_21  and  C_22
REMARK                            x       y       z     vdW  Elec       q    Type
REMARK                         _______ _______ _______ _____ _____    ______ ____
ROOT
ATOM      1  C   UNL     1       2.510   7.505  18.996  0.00  0.00    +0.000 A 
ATOM      2  C   UNL     1       1.930   7.176  20.233  0.00  0.00    +0.000 A 
ATOM      3  C   UNL     1       1.065   8.057  20.877  0.00  0.00    +0.000 A 
ATOM      4  C   UNL     1       0.748   9.269  20.276  0.00  0.00    +0.000 A 
ATOM      5  C   UNL     1       1.277   9.603  19.018  0.00  0.00    +0.000 A 
ATOM      6  C   UNL     1       2.178   8.718  18.383  0.00  0.00    +0.000 A 
ENDROOT
BRANCH   1   8
ATOM      7  N   UNL     1       4.454   6.810  17.611  0.00  0.00    +0.000 N 
ATOM      8  C   UNL     1       3.332   6.449  18.351  0.00  0.00    +0.000 C 
ATOM      9  O   UNL     1       2.970   5.297  18.570  0.00  0.00    +0.000 OA
ATOM     10  H   UNL     1       4.827   7.751  17.691  0.00  0.00    +0.000 HD
BRANCH   7  16
ATOM     11  C   UNL     1       6.476   5.390  17.453  0.00  0.00    +0.000 A 
ATOM     12  C   UNL     1       7.258   4.488  16.711  0.00  0.00    +0.000 A 
ATOM     13  C   UNL     1       6.830   4.005  15.472  0.00  0.00    +0.000 A 
ATOM     14  C   UNL     1       5.632   4.443  14.932  0.00  0.00    +0.000 A 
ATOM     15  C   UNL     1       4.894   5.404  15.628  0.00  0.00    +0.000 A 
ATOM     16  C   UNL     1       5.274   5.875  16.899  0.00  0.00    +0.000 A 
BRANCH  14  17
ATOM     17  N   UNL     1       5.080   3.947  13.732  0.00  0.00    +0.000 N 
ATOM     18  C   UNL     1       5.763   3.631  12.575  0.00  0.00    +0.000 C 
ATOM     19  C   UNL     1       4.890   2.991  11.526  0.00  0.00    +0.000 C 
ATOM     20  O   UNL     1       6.947   3.851  12.342  0.00  0.00    +0.000 OA
ATOM     21  H   UNL     1       4.077   3.797  13.740  0.00  0.00    +0.000 HD
ENDBRANCH  14  17
BRANCH  11  23
ATOM     22  C   UNL     1       8.010   6.600  18.789  0.00  0.00    +0.000 C 
ATOM     23  O   UNL     1       6.822   5.801  18.721  0.00  0.00    +0.000 OA
ENDBRANCH  11  23
ENDBRANCH   7  16
ENDBRANCH   1   8
BRANCH   5  24
ATOM     24  C   UNL     1       0.871  10.909  18.368  0.00  0.00    +0.000 C 
BRANCH  24  25
ATOM     25  C   UNL     1      -0.432  11.458  18.939  0.00  0.00    +0.000 A 
ATOM     26  N   UNL     1      -0.321  12.228  19.982  0.00  0.00    +0.000 NA
ATOM     27  N   UNL     1      -1.464  12.741  20.505  0.00  0.00    +0.000 N 
ATOM     28  C   UNL     1      -2.729  12.541  20.025  0.00  0.00    +0.000 A 
ATOM     29  O   UNL     1      -3.719  13.024  20.564  0.00  0.00    +0.000 OA
ATOM     30  C   UNL     1      -2.834  11.702  18.806  0.00  0.00    +0.000 A 
ATOM     31  C   UNL     1      -1.736  11.133  18.278  0.00  0.00    +0.000 A 
ATOM     32  C   UNL     1      -1.801  10.238  17.069  0.00  0.00    +0.000 C 
ATOM     33  C   UNL     1      -3.228   9.819  16.696  0.00  0.00    +0.000 C 
ATOM     34  C   UNL     1      -4.185  11.000  16.792  0.00  0.00    +0.000 C 
ATOM     35  C   UNL     1      -4.210  11.552  18.218  0.00  0.00    +0.000 C 
ATOM     36  H   UNL     1      -1.368  13.313  21.336  0.00  0.00    +0.000 HD
ENDBRANCH  24  25
ENDBRANCH   5  24
TORSDOF 6
ENDMDL
MODEL 4
REMARK VINA RESULT:      -9.1      2.343      3.652
REMARK  Name = 
REMARK  8 active torsions:
REMARK  status: ('A' for Active; 'I' for Inactive)
REMARK    1  A    between atoms: C_1  and  O_2
REMARK    2  A    between atoms: O_2  and  C_3
REMARK    3  A    between atoms: C_6  and  N_7
REMARK    4  A    between atoms: C_8  and  C_9
REMARK    5  A    between atoms: C_12  and  N_13
REMARK    6  A    between atoms: C_14  and  C_16
REMARK    7  A    between atoms: C_20  and  C_21
REMARK    8  A    between atoms: C_21  and  C_22
REMARK                            x       y       z     vdW  Elec       q    Type
REMARK                         _______ _______ _______ _____ _____    ______ ____
ROOT
ATOM      1  C   UNL     1       2.340   7.583  19.030  0.00  0.00    +0.000 A 
ATOM      2  C   UNL     1       1.871   7.307  20.326  0.00  0.00    +0.000 A 
ATOM      3  C   UNL     1       1.019   8.188  20.984  0.00  0.00    +0.000 A 
ATOM      4  C   UNL     1       0.603   9.349  20.341  0.00  0.00    +0.000 A 
ATOM      5  C   UNL     1       1.019   9.627  19.029  0.00  0.00    +0.000 A 
ATOM      6  C   UNL     1       1.908   8.742  18.376  0.00  0.00    +0.000 A 
ENDROOT
BRANCH   1   8
ATOM      7  N   UNL     1       4.406   6.846  17.858  0.00  0.00    +0.000 N 
ATOM      8  C   UNL     1       3.158   6.524  18.384  0.00  0.00    +0.000 C 
ATOM      9  O   UNL     1       2.671   5.398  18.410  0.00  0.00    +0.000 OA
ATOM     10  H   UNL     1       4.840   7.731  18.103  0.00  0.00    +0.000 HD
BRANCH   7  16
ATOM     11  C   UNL     1       6.415   5.405  17.751  0.00  0.00    +0.000 A 
ATOM     12  C   UNL     1       7.215   4.507  17.023  0.00  0.00    +0.000 A 
ATOM     13  C   UNL     1       6.829   4.052  15.760  0.00  0.00    +0.000 A 
ATOM     14  C   UNL     1       5.658   4.514  15.182  0.00  0.00    +0.000 A 
ATOM     15  C   UNL     1       4.905   5.471  15.868  0.00  0.00    +0.000 A 
ATOM     16  C   UNL     1       5.242   5.914  17.161  0.00  0.00    +0.000 A 
BRANCH  14  17
ATOM     17  N   UNL     1       5.147   4.046  13.954  0.00  0.00    +0.000 N 
ATOM     18  C   UNL     1       5.863   3.797  12.800  0.00  0.00    +0.000 C 
ATOM     19  C   UNL     1       5.033   3.170  11.710  0.00  0.00    +0.000 C 
ATOM     20  O   UNL     1       7.043   4.065  12.601  0.00  0.00    +0.000 OA
ATOM     21  H   UNL     1       4.150   3.864  13.935  0.00  0.00    +0.000 HD
ENDBRANCH  14  17
BRANCH  11  23
ATOM     22  C   UNL     1       8.117   5.810  19.345  0.00  0.00    +0.000 C 
ATOM     23  O   UNL     1       6.717   5.789  19.039  0.00  0.00    +0.000 OA
ENDBRANCH  11  23
ENDBRANCH   7  16
ENDBRANCH   1   8
BRANCH   5  24
ATOM     24  C   UNL     1       0.506  10.873  18.338  0.00  0.00    +0.000 C 
BRANCH  24  25
ATOM     25  C   UNL     1      -1.013  10.877  18.208  0.00  0.00    +0.000 A 
ATOM     26  N   UNL     1      -1.519  10.025  17.366  0.00  0.00    +0.000 NA
ATOM     27  N   UNL     1      -2.871   9.999  17.237  0.00  0.00    +0.000 N 
ATOM     28  C   UNL     1      -3.759  10.773  17.930  0.00  0.00    +0.000 A 
ATOM     29  O   UNL     1      -4.970  10.706  17.746  0.00  0.00    +0.000 OA
ATOM     30  C   UNL     1      -3.170  11.704  18.924  0.00  0.00    +0.000 A 
ATOM     31  C   UNL     1      -1.835  11.801  19.054  0.00  0.00    +0.000 A 
ATOM     32  C   UNL     1      -1.192  12.764  20.016  0.00  0.00    +0.000 C 
ATOM     33  C   UNL     1      -2.171  13.793  20.594  0.00  0.00    +0.000 C 
ATOM     34  C   UNL     1      -3.489  13.135  20.980  0.00  0.00    +0.000 C 
ATOM     35  C   UNL     1      -4.143  12.495  19.755  0.00  0.00    +0.000 C 
ATOM     36  H   UNL     1      -3.251   9.353  16.555  0.00  0.00    +0.000 HD
ENDBRANCH  24  25
ENDBRANCH   5  24
TORSDOF 6
ENDMDL
MODEL 5
REMARK VINA RESULT:      -8.9      1.553      1.634
REMARK  Name = 
REMARK  8 active torsions:
REMARK  status: ('A' for Active; 'I' for Inactive)
REMARK    1  A    between atoms: C_1  and  O_2
REMARK    2  A    between atoms: O_2  and  C_3
REMARK    3  A    between atoms: C_6  and  N_7
REMARK    4  A    between atoms: C_8  and  C_9
REMARK    5  A    between atoms: C_12  and  N_13
REMARK    6  A    between atoms: C_14  and  C_16
REMARK    7  A    between atoms: C_20  and  C_21
REMARK    8  A    between atoms: C_21  and  C_22
REMARK                            x       y       z     vdW  Elec       q    Type
REMARK                         _______ _______ _______ _____ _____    ______ ____
ROOT
ATOM      1  C   UNL     1       1.456   8.081  20.210  0.00  0.00    +0.000 A 
ATOM      2  C   UNL     1       0.829   7.950  21.461  0.00  0.00    +0.000 A 
ATOM      3  C   UNL     1      -0.005   8.950  21.953  0.00  0.00    +0.000 A 
ATOM      4  C   UNL     1      -0.244  10.083  21.185  0.00  0.00    +0.000 A 
ATOM      5  C   UNL     1       0.333  10.219  19.912  0.00  0.00    +0.000 A 
ATOM      6  C   UNL     1       1.202   9.214  19.429  0.00  0.00    +0.000 A 
ENDROOT
BRANCH   1   8
ATOM      7  N   UNL     1       2.218   6.569  18.388  0.00  0.00    +0.000 N 
ATOM      8  C   UNL     1       2.238   6.909  19.739  0.00  0.00    +0.000 C 
ATOM      9  O   UNL     1       2.902   6.342  20.601  0.00  0.00    +0.000 OA
ATOM     10  H   UNL     1       1.857   7.232  17.710  0.00  0.00    +0.000 HD
BRANCH   7  16
ATOM     11  C   UNL     1       2.317   4.137  17.937  0.00  0.00    +0.000 A 
ATOM     12  C   UNL     1       3.015   3.039  17.407  0.00  0.00    +0.000 A 
ATOM     13  C   UNL     1       4.221   3.208  16.723  0.00  0.00    +0.000 A 
ATOM     14  C   UNL     1       4.774   4.471  16.591  0.00  0.00    +0.000 A 
ATOM     15  C   UNL     1       4.125   5.553  17.191  0.00  0.00    +0.000 A 
ATOM     16  C   UNL     1       2.885   5.423  17.845  0.00  0.00    +0.000 A 
BRANCH  14  17
ATOM     17  N   UNL     1       5.940   4.747  15.846  0.00  0.00    +0.000 N 
ATOM     18  C   UNL     1       6.121   4.557  14.491  0.00  0.00    +0.000 C 
ATOM     19  C   UNL     1       7.439   5.087  13.988  0.00  0.00    +0.000 C 
ATOM     20  O   UNL     1       5.349   3.992  13.723  0.00  0.00    +0.000 OA
ATOM     21  H   UNL     1       6.713   5.140  16.372  0.00  0.00    +0.000 HD
ENDBRANCH  14  17
BRANCH  11  23
ATOM     22  C   UNL     1       1.077   3.358  19.797  0.00  0.00    +0.000 C 
ATOM     23  O   UNL     1       1.076   4.013  18.522  0.00  0.00    +0.000 OA
ENDBRANCH  11  23
ENDBRANCH   7  16
ENDBRANCH   1   8
BRANCH   5  24
ATOM     24  C   UNL     1       0.011  11.442  19.080  0.00  0.00    +0.000 C 
BRANCH  24  25
ATOM     25  C   UNL     1      -1.483  11.747  19.055  0.00  0.00    +0.000 A 
ATOM     26  N   UNL     1      -1.924  12.533  19.994  0.00  0.00    +0.000 NA
ATOM     27  N   UNL     1      -3.249  12.830  19.990  0.00  0.00    +0.000 N 
ATOM     28  C   UNL     1      -4.168  12.398  19.074  0.00  0.00    +0.000 A 
ATOM     29  O   UNL     1      -5.355  12.695  19.147  0.00  0.00    +0.000 OA
ATOM     30  C   UNL     1      -3.640  11.544  17.981  0.00  0.00    +0.000 A 
ATOM     31  C   UNL     1      -2.345  11.183  17.968  0.00  0.00    +0.000 A 
ATOM     32  C   UNL     1      -1.777  10.282  16.904  0.00  0.00    +0.000 C 
ATOM     33  C   UNL     1      -2.849   9.605  16.041  0.00  0.00    +0.000 C 
ATOM     34  C   UNL     1      -3.946  10.590  15.663  0.00  0.00    +0.000 C 
ATOM     35  C   UNL     1      -4.626  11.139  16.919  0.00  0.00    +0.000 C 
ATOM     36  H   UNL     1      -3.586  13.417  20.745  0.00  0.00    +0.000 HD
ENDBRANCH  24  25
ENDBRANCH   5  24
TORSDOF 6
ENDMDL
MODEL 6
REMARK VINA RESULT:      -8.9      3.039      4.193
REMARK  Name = 
REMARK  8 active torsions:
REMARK  status: ('A' for Active; 'I' for Inactive)
REMARK    1  A    between atoms: C_1  and  O_2
REMARK    2  A    between atoms: O_2  and  C_3
REMARK    3  A    between atoms: C_6  and  N_7
REMARK    4  A    between atoms: C_8  and  C_9
REMARK    5  A    between atoms: C_12  and  N_13
REMARK    6  A    between atoms: C_14  and  C_16
REMARK    7  A    between atoms: C_20  and  C_21
REMARK    8  A    between atoms: C_21  and  C_22
REMARK                            x       y       z     vdW  Elec       q    Type
REMARK                         _______ _______ _______ _____ _____    ______ ____
ROOT
ATOM      1  C   UNL     1       1.564   8.590  19.974  0.00  0.00    +0.000 A 
ATOM      2  C   UNL     1       1.270   8.622  21.348  0.00  0.00    +0.000 A 
ATOM      3  C   UNL     1       0.626   9.715  21.918  0.00  0.00    +0.000 A 
ATOM      4  C   UNL     1       0.243  10.782  21.114  0.00  0.00    +0.000 A 
ATOM      5  C   UNL     1       0.484  10.756  19.731  0.00  0.00    +0.000 A 
ATOM      6  C   UNL     1       1.164   9.657  19.161  0.00  0.00    +0.000 A 
ENDROOT
BRANCH   1   8
ATOM      7  N   UNL     1       2.538   6.333  20.350  0.00  0.00    +0.000 N 
ATOM      8  C   UNL     1       2.158   7.330  19.455  0.00  0.00    +0.000 C 
ATOM      9  O   UNL     1       2.223   7.247  18.233  0.00  0.00    +0.000 OA
ATOM     10  H   UNL     1       2.219   6.373  21.312  0.00  0.00    +0.000 HD
BRANCH   7  16
ATOM     11  C   UNL     1       2.653   3.860  20.337  0.00  0.00    +0.000 A 
ATOM     12  C   UNL     1       3.322   2.688  19.945  0.00  0.00    +0.000 A 
ATOM     13  C   UNL     1       4.449   2.738  19.122  0.00  0.00    +0.000 A 
ATOM     14  C   UNL     1       4.954   3.960  18.708  0.00  0.00    +0.000 A 
ATOM     15  C   UNL     1       4.341   5.129  19.166  0.00  0.00    +0.000 A 
ATOM     16  C   UNL     1       3.177   5.112  19.956  0.00  0.00    +0.000 A 
BRANCH  14  17
ATOM     17  N   UNL     1       6.033   4.103  17.809  0.00  0.00    +0.000 N 
ATOM     18  C   UNL     1       5.954   4.338  16.452  0.00  0.00    +0.000 C 
ATOM     19  C   UNL     1       7.297   4.579  15.812  0.00  0.00    +0.000 C 
ATOM     20  O   UNL     1       4.936   4.331  15.767  0.00  0.00    +0.000 OA
ATOM     21  H   UNL     1       6.957   4.039  18.221  0.00  0.00    +0.000 HD
ENDBRANCH  14  17
BRANCH  11  23
ATOM     22  C   UNL     1       1.304   2.674  21.879  0.00  0.00    +0.000 C 
ATOM     23  O   UNL     1       1.480   3.837  21.059  0.00  0.00    +0.000 OA
ENDBRANCH  11  23
ENDBRANCH   7  16
ENDBRANCH   1   8
BRANCH   5  24
ATOM     24  C   UNL     1       0.008  11.912  18.875  0.00  0.00    +0.000 C 
BRANCH  24  25
ATOM     25  C   UNL     1       1.105  12.944  18.637  0.00  0.00    +0.000 A 
ATOM     26  N   UNL     1       2.236  12.485  18.186  0.00  0.00    +0.000 NA
ATOM     27  N   UNL     1       3.227  13.383  17.953  0.00  0.00    +0.000 N 
ATOM     28  C   UNL     1       3.144  14.736  18.128  0.00  0.00    +0.000 A 
ATOM     29  O   UNL     1       4.092  15.484  17.914  0.00  0.00    +0.000 OA
ATOM     30  C   UNL     1       1.832  15.249  18.594  0.00  0.00    +0.000 A 
ATOM     31  C   UNL     1       0.834  14.396  18.883  0.00  0.00    +0.000 A 
ATOM     32  C   UNL     1      -0.498  14.869  19.401  0.00  0.00    +0.000 C 
ATOM     33  C   UNL     1      -0.498  16.341  19.831  0.00  0.00    +0.000 C 
ATOM     34  C   UNL     1       0.248  17.203  18.822  0.00  0.00    +0.000 C 
ATOM     35  C   UNL     1       1.703  16.744  18.701  0.00  0.00    +0.000 C 
ATOM     36  H   UNL     1       4.114  13.010  17.633  0.00  0.00    +0.000 HD
ENDBRANCH  24  25
ENDBRANCH   5  24
TORSDOF 6
ENDMDL
MODEL 7
REMARK VINA RESULT:      -8.8      2.061      9.435
REMARK  Name = 
REMARK  8 active torsions:
REMARK  status: ('A' for Active; 'I' for Inactive)
REMARK    1  A    between atoms: C_1  and  O_2
REMARK    2  A    between atoms: O_2  and  C_3
REMARK    3  A    between atoms: C_6  and  N_7
REMARK    4  A    between atoms: C_8  and  C_9
REMARK    5  A    between atoms: C_12  and  N_13
REMARK    6  A    between atoms: C_14  and  C_16
REMARK    7  A    between atoms: C_20  and  C_21
REMARK    8  A    between atoms: C_21  and  C_22
REMARK                            x       y       z     vdW  Elec       q    Type
REMARK                         _______ _______ _______ _____ _____    ______ ____
ROOT
ATOM      1  C   UNL     1       2.178   5.987  19.946  0.00  0.00    +0.000 A 
ATOM      2  C   UNL     1       1.459   5.303  20.940  0.00  0.00    +0.000 A 
ATOM      3  C   UNL     1       1.802   4.006  21.310  0.00  0.00    +0.000 A 
ATOM      4  C   UNL     1       2.890   3.386  20.706  0.00  0.00    +0.000 A 
ATOM      5  C   UNL     1       3.655   4.064  19.743  0.00  0.00    +0.000 A 
ATOM      6  C   UNL     1       3.284   5.370  19.351  0.00  0.00    +0.000 A 
ENDROOT
BRANCH   1   8
ATOM      7  N   UNL     1       0.800   7.983  20.496  0.00  0.00    +0.000 N 
ATOM      8  C   UNL     1       1.791   7.402  19.708  0.00  0.00    +0.000 C 
ATOM      9  O   UNL     1       2.431   7.980  18.836  0.00  0.00    +0.000 OA
ATOM     10  H   UNL     1       0.506   7.524  21.352  0.00  0.00    +0.000 HD
BRANCH   7  16
ATOM     11  C   UNL     1       0.503  10.311  21.285  0.00  0.00    +0.000 A 
ATOM     12  C   UNL     1      -0.011  11.600  21.064  0.00  0.00    +0.000 A 
ATOM     13  C   UNL     1      -0.637  11.935  19.861  0.00  0.00    +0.000 A 
ATOM     14  C   UNL     1      -0.799  10.979  18.872  0.00  0.00    +0.000 A 
ATOM     15  C   UNL     1      -0.365   9.674  19.123  0.00  0.00    +0.000 A 
ATOM     16  C   UNL     1       0.311   9.317  20.305  0.00  0.00    +0.000 A 
BRANCH  14  17
ATOM     17  N   UNL     1      -1.339  11.247  17.597  0.00  0.00    +0.000 N 
ATOM     18  C   UNL     1      -2.435  10.641  17.017  0.00  0.00    +0.000 C 
ATOM     19  C   UNL     1      -2.832  11.262  15.703  0.00  0.00    +0.000 C 
ATOM     20  O   UNL     1      -3.048   9.671  17.452  0.00  0.00    +0.000 OA
ATOM     21  H   UNL     1      -0.873  11.976  17.068  0.00  0.00    +0.000 HD
ENDBRANCH  14  17
BRANCH  11  23
ATOM     22  C   UNL     1       0.427   9.460  23.493  0.00  0.00    +0.000 C 
ATOM     23  O   UNL     1       1.216   9.982  22.416  0.00  0.00    +0.000 OA
ENDBRANCH  11  23
ENDBRANCH   7  16
ENDBRANCH   1   8
BRANCH   5  24
ATOM     24  C   UNL     1       4.865   3.380  19.143  0.00  0.00    +0.000 C 
BRANCH  24  25
ATOM     25  C   UNL     1       5.333   4.056  17.859  0.00  0.00    +0.000 A 
ATOM     26  N   UNL     1       4.780   3.639  16.757  0.00  0.00    +0.000 NA
ATOM     27  N   UNL     1       5.169   4.231  15.598  0.00  0.00    +0.000 N 
ATOM     28  C   UNL     1       6.078   5.246  15.480  0.00  0.00    +0.000 A 
ATOM     29  O   UNL     1       6.394   5.719  14.394  0.00  0.00    +0.000 OA
ATOM     30  C   UNL     1       6.662   5.744  16.750  0.00  0.00    +0.000 A 
ATOM     31  C   UNL     1       6.344   5.159  17.918  0.00  0.00    +0.000 A 
ATOM     32  C   UNL     1       6.947   5.602  19.224  0.00  0.00    +0.000 C 
ATOM     33  C   UNL     1       8.138   6.552  19.057  0.00  0.00    +0.000 C 
ATOM     34  C   UNL     1       7.854   7.596  17.985  0.00  0.00    +0.000 C 
ATOM     35  C   UNL     1       7.594   6.920  16.637  0.00  0.00    +0.000 C 
ATOM     36  H   UNL     1       4.756   3.877  14.744  0.00  0.00    +0.000 HD
ENDBRANCH  24  25
ENDBRANCH   5  24
TORSDOF 6
ENDMDL
MODEL 8
REMARK VINA RESULT:      -8.7      7.224     10.120
REMARK  Name = 
REMARK  8 active torsions:
REMARK  status: ('A' for Active; 'I' for Inactive)
REMARK    1  A    between atoms: C_1  and  O_2
REMARK    2  A    between atoms: O_2  and  C_3
REMARK    3  A    between atoms: C_6  and  N_7
REMARK    4  A    between atoms: C_8  and  C_9
REMARK    5  A    between atoms: C_12  and  N_13
REMARK    6  A    between atoms: C_14  and  C_16
REMARK    7  A    between atoms: C_20  and  C_21
REMARK    8  A    between atoms: C_21  and  C_22
REMARK                            x       y       z     vdW  Elec       q    Type
REMARK                         _______ _______ _______ _____ _____    ______ ____
ROOT
ATOM      1  C   UNL     1       8.249   9.231  18.188  0.00  0.00    +0.000 A 
ATOM      2  C   UNL     1       7.655  10.197  17.358  0.00  0.00    +0.000 A 
ATOM      3  C   UNL     1       8.116  11.510  17.340  0.00  0.00    +0.000 A 
ATOM      4  C   UNL     1       9.198  11.867  18.135  0.00  0.00    +0.000 A 
ATOM      5  C   UNL     1       9.841  10.911  18.939  0.00  0.00    +0.000 A 
ATOM      6  C   UNL     1       9.350   9.587  18.976  0.00  0.00    +0.000 A 
ENDROOT
BRANCH   1   8
ATOM      7  N   UNL     1       6.748   7.564  17.116  0.00  0.00    +0.000 N 
ATOM      8  C   UNL     1       7.745   7.840  18.048  0.00  0.00    +0.000 C 
ATOM      9  O   UNL     1       8.302   7.008  18.756  0.00  0.00    +0.000 OA
ATOM     10  H   UNL     1       6.526   8.248  16.400  0.00  0.00    +0.000 HD
BRANCH   7  16
ATOM     11  C   UNL     1       6.580   5.397  15.931  0.00  0.00    +0.000 A 
ATOM     12  C   UNL     1       5.953   4.147  15.790  0.00  0.00    +0.000 A 
ATOM     13  C   UNL     1       4.969   3.725  16.688  0.00  0.00    +0.000 A 
ATOM     14  C   UNL     1       4.564   4.558  17.718  0.00  0.00    +0.000 A 
ATOM     15  C   UNL     1       5.125   5.835  17.808  0.00  0.00    +0.000 A 
ATOM     16  C   UNL     1       6.151   6.272  16.949  0.00  0.00    +0.000 A 
BRANCH  14  17
ATOM     17  N   UNL     1       3.643   4.183  18.718  0.00  0.00    +0.000 N 
ATOM     18  C   UNL     1       3.866   3.313  19.766  0.00  0.00    +0.000 C 
ATOM     19  C   UNL     1       2.715   3.242  20.736  0.00  0.00    +0.000 C 
ATOM     20  O   UNL     1       4.859   2.612  19.934  0.00  0.00    +0.000 OA
ATOM     21  H   UNL     1       2.729   4.619  18.657  0.00  0.00    +0.000 HD
ENDBRANCH  14  17
BRANCH  11  23
ATOM     22  C   UNL     1       7.637   5.201  13.822  0.00  0.00    +0.000 C 
ATOM     23  O   UNL     1       7.624   5.796  15.126  0.00  0.00    +0.000 OA
ENDBRANCH  11  23
ENDBRANCH   7  16
ENDBRANCH   1   8
BRANCH   5  24
ATOM     24  C   UNL     1      11.049  11.322  19.754  0.00  0.00    +0.000 C 
BRANCH  24  25
ATOM     25  C   UNL     1      10.975  12.776  20.206  0.00  0.00    +0.000 A 
ATOM     26  N   UNL     1      11.729  13.617  19.559  0.00  0.00    +0.000 NA
ATOM     27  N   UNL     1      11.675  14.921  19.933  0.00  0.00    +0.000 N 
ATOM     28  C   UNL     1      10.882  15.444  20.916  0.00  0.00    +0.000 A 
ATOM     29  O   UNL     1      10.901  16.634  21.210  0.00  0.00    +0.000 OA
ATOM     30  C   UNL     1       9.990  14.481  21.609  0.00  0.00    +0.000 A 
ATOM     31  C   UNL     1      10.041  13.172  21.308  0.00  0.00    +0.000 A 
ATOM     32  C   UNL     1       9.188  12.154  22.017  0.00  0.00    +0.000 C 
ATOM     33  C   UNL     1       8.500  12.702  23.272  0.00  0.00    +0.000 C 
ATOM     34  C   UNL     1       7.932  14.092  23.019  0.00  0.00    +0.000 C 
ATOM     35  C   UNL     1       9.049  15.062  22.629  0.00  0.00    +0.000 C 
ATOM     36  H   UNL     1      12.291  15.561  19.444  0.00  0.00    +0.000 HD
ENDBRANCH  24  25
ENDBRANCH   5  24
TORSDOF 6
ENDMDL
MODEL 9
REMARK VINA RESULT:      -8.7      3.120     10.423
REMARK  Name = 
REMARK  8 active torsions:
REMARK  status: ('A' for Active; 'I' for Inactive)
REMARK    1  A    between atoms: C_1  and  O_2
REMARK    2  A    between atoms: O_2  and  C_3
REMARK    3  A    between atoms: C_6  and  N_7
REMARK    4  A    between atoms: C_8  and  C_9
REMARK    5  A    between atoms: C_12  and  N_13
REMARK    6  A    between atoms: C_14  and  C_16
REMARK    7  A    between atoms: C_20  and  C_21
REMARK    8  A    between atoms: C_21  and  C_22
REMARK                            x       y       z     vdW  Elec       q    Type
REMARK                         _______ _______ _______ _____ _____    ______ ____
ROOT
ATOM      1  C   UNL     1       0.367  10.269  19.934  0.00  0.00    +0.000 A 
ATOM      2  C   UNL     1       0.615  10.501  18.570  0.00  0.00    +0.000 A 
ATOM      3  C   UNL     1       1.381   9.615  17.819  0.00  0.00    +0.000 A 
ATOM      4  C   UNL     1       1.887   8.468  18.418  0.00  0.00    +0.000 A 
ATOM      5  C   UNL     1       1.616   8.187  19.767  0.00  0.00    +0.000 A 
ATOM      6  C   UNL     1       0.862   9.105  20.533  0.00  0.00    +0.000 A 
ENDROOT
BRANCH   1   8
ATOM      7  N   UNL     1      -0.325  11.562  21.942  0.00  0.00    +0.000 N 
ATOM      8  C   UNL     1      -0.549  11.223  20.610  0.00  0.00    +0.000 C 
ATOM      9  O   UNL     1      -1.435  11.691  19.901  0.00  0.00    +0.000 OA
ATOM     10  H   UNL     1       0.565  11.335  22.374  0.00  0.00    +0.000 HD
BRANCH   7  16
ATOM     11  C   UNL     1      -0.773  13.714  23.081  0.00  0.00    +0.000 A 
ATOM     12  C   UNL     1      -1.641  14.515  23.842  0.00  0.00    +0.000 A 
ATOM     13  C   UNL     1      -2.931  14.085  24.161  0.00  0.00    +0.000 A 
ATOM     14  C   UNL     1      -3.365  12.832  23.762  0.00  0.00    +0.000 A 
ATOM     15  C   UNL     1      -2.474  12.000  23.079  0.00  0.00    +0.000 A 
ATOM     16  C   UNL     1      -1.185  12.421  22.701  0.00  0.00    +0.000 A 
BRANCH  14  17
ATOM     17  N   UNL     1      -4.675  12.350  23.964  0.00  0.00    +0.000 N 
ATOM     18  C   UNL     1      -5.853  12.988  23.631  0.00  0.00    +0.000 C 
ATOM     19  C   UNL     1      -7.075  12.134  23.855  0.00  0.00    +0.000 C 
ATOM     20  O   UNL     1      -5.970  14.139  23.225  0.00  0.00    +0.000 OA
ATOM     21  H   UNL     1      -4.743  11.430  24.386  0.00  0.00    +0.000 HD
ENDBRANCH  14  17
BRANCH  11  23
ATOM     22  C   UNL     1       0.493  15.509  22.196  0.00  0.00    +0.000 C 
ATOM     23  O   UNL     1       0.464  14.153  22.662  0.00  0.00    +0.000 OA
ENDBRANCH  11  23
ENDBRANCH   7  16
ENDBRANCH   1   8
BRANCH   5  24
ATOM     24  C   UNL     1       2.139   6.903  20.375  0.00  0.00    +0.000 C 
BRANCH  24  25
ATOM     25  C   UNL     1       2.807   6.004  19.341  0.00  0.00    +0.000 A 
ATOM     26  N   UNL     1       3.842   6.503  18.729  0.00  0.00    +0.000 NA
ATOM     27  N   UNL     1       4.464   5.720  17.810  0.00  0.00    +0.000 N 
ATOM     28  C   UNL     1       4.117   4.440  17.478  0.00  0.00    +0.000 A 
ATOM     29  O   UNL     1       4.717   3.800  16.621  0.00  0.00    +0.000 OA
ATOM     30  C   UNL     1       2.966   3.867  18.220  0.00  0.00    +0.000 A 
ATOM     31  C   UNL     1       2.289   4.619  19.106  0.00  0.00    +0.000 A 
ATOM     32  C   UNL     1       1.089   4.094  19.847  0.00  0.00    +0.000 C 
ATOM     33  C   UNL     1       0.559   2.767  19.290  0.00  0.00    +0.000 C 
ATOM     34  C   UNL     1       1.704   1.814  18.973  0.00  0.00    +0.000 C 
ATOM     35  C   UNL     1       2.635   2.429  17.927  0.00  0.00    +0.000 C 
ATOM     36  H   UNL     1       5.249   6.131  17.318  0.00  0.00    +0.000 HD
ENDBRANCH  24  25
ENDBRANCH   5  24
TORSDOF 6
ENDMDL
