MODEL 1
REMARK VINA RESULT:      -9.0      0.000      0.000
REMARK  Name = 
REMARK  4 active torsions:
REMARK  status: ('A' for Active; 'I' for Inactive)
REMARK    1  A    between atoms: C_1  and  N_2
REMARK    2  A    between atoms: C_3  and  C_4
REMARK    3  A    between atoms: N_11  and  C_12
REMARK    4  A    between atoms: C_12  and  C_13
REMARK                            x       y       z     vdW  Elec       q    Type
REMARK                         _______ _______ _______ _____ _____    ______ ____
ROOT
ATOM      1  C   UNL     1       1.747   7.875  19.865  0.00  0.00    +0.000 A 
ATOM      2  C   UNL     1       2.509   8.004  18.676  0.00  0.00    +0.000 A 
ATOM      3  C   UNL     1       3.225   6.826  18.566  0.00  0.00    +0.000 A 
ATOM      4  N   UNL     1       2.855   6.091  19.638  0.00  0.00    +0.000 N 
ATOM      5  N   UNL     1       1.965   6.686  20.442  0.00  0.00    +0.000 NA
ATOM      6  C   UNL     1       3.343   4.782  19.969  0.00  0.00    +0.000 C 
ATOM      7  C   UNL     1       4.219   4.168  18.880  0.00  0.00    +0.000 C 
ATOM      8  N   UNL     1       4.622   4.945  17.704  0.00  0.00    +0.000 NA
ATOM      9  C   UNL     1       4.227   6.347  17.588  0.00  0.00    +0.000 C 
ENDROOT
BRANCH   1  12
ATOM     10  C   UNL     1       0.087  10.117  18.308  0.00  0.00    +0.000 C 
ATOM     11  N   UNL     1       0.125   9.878  19.733  0.00  0.00    +0.000 N 
ATOM     12  C   UNL     1       0.804   8.901  20.428  0.00  0.00    +0.000 A 
ATOM     13  N   UNL     1       0.520   8.979  21.721  0.00  0.00    +0.000 NA
ATOM     14  C   UNL     1      -0.311  10.055  21.864  0.00  0.00    +0.000 A 
ATOM     15  C   UNL     1      -0.891  10.599  23.023  0.00  0.00    +0.000 A 
ATOM     16  C   UNL     1      -1.708  11.734  22.907  0.00  0.00    +0.000 A 
ATOM     17  C   UNL     1      -1.948  12.313  21.662  0.00  0.00    +0.000 A 
ATOM     18  C   UNL     1      -1.386  11.782  20.496  0.00  0.00    +0.000 A 
ATOM     19  C   UNL     1      -0.572  10.651  20.636  0.00  0.00    +0.000 A 
ENDBRANCH   1  12
BRANCH   8  20
ATOM     20  C   UNL     1       4.505   4.199  16.441  0.00  0.00    +0.000 C 
BRANCH  20  21
ATOM     21  C   UNL     1       5.622   4.574  15.524  0.00  0.00    +0.000 A 
ATOM     22  C   UNL     1       6.808   5.261  15.857  0.00  0.00    +0.000 A 
ATOM     23  N   UNL     1       7.647   5.396  14.829  0.00  0.00    +0.000 NA
ATOM     24  N   UNL     1       7.040   4.729  13.819  0.00  0.00    +0.000 N 
ATOM     25  C   UNL     1       7.574   4.403  12.577  0.00  0.00    +0.000 A 
ATOM     26  C   UNL     1       6.856   3.692  11.698  0.00  0.00    +0.000 A 
ATOM     27  C   UNL     1       5.465   3.378  12.130  0.00  0.00    +0.000 A 
ATOM     28  N   UNL     1       4.937   3.651  13.286  0.00  0.00    +0.000 NA
ATOM     29  C   UNL     1       5.756   4.298  14.176  0.00  0.00    +0.000 A 
ENDBRANCH  20  21
ENDBRANCH   8  20
TORSDOF 3
ENDMDL
MODEL 2
REMARK VINA RESULT:      -8.8      0.662      1.497
REMARK  Name = 
REMARK  4 active torsions:
REMARK  status: ('A' for Active; 'I' for Inactive)
REMARK    1  A    between atoms: C_1  and  N_2
REMARK    2  A    between atoms: C_3  and  C_4
REMARK    3  A    between atoms: N_11  and  C_12
REMARK    4  A    between atoms: C_12  and  C_13
REMARK                            x       y       z     vdW  Elec       q    Type
REMARK                         _______ _______ _______ _____ _____    ______ ____
ROOT
ATOM      1  C   UNL     1       1.798   8.173  19.365  0.00  0.00    +0.000 A 
ATOM      2  C   UNL     1       2.659   8.171  18.237  0.00  0.00    +0.000 A 
ATOM      3  C   UNL     1       3.335   6.966  18.290  0.00  0.00    +0.000 A 
ATOM      4  N   UNL     1       2.852   6.341  19.387  0.00  0.00    +0.000 N 
ATOM      5  N   UNL     1       1.924   7.034  20.059  0.00  0.00    +0.000 NA
ATOM      6  C   UNL     1       3.261   5.053  19.870  0.00  0.00    +0.000 C 
ATOM      7  C   UNL     1       4.198   4.317  18.917  0.00  0.00    +0.000 C 
ATOM      8  N   UNL     1       4.724   4.972  17.715  0.00  0.00    +0.000 NA
ATOM      9  C   UNL     1       4.394   6.370  17.445  0.00  0.00    +0.000 C 
ENDROOT
BRANCH   1  12
ATOM     10  C   UNL     1       1.107   9.257  22.289  0.00  0.00    +0.000 C 
ATOM     11  N   UNL     1       0.552   9.699  21.031  0.00  0.00    +0.000 N 
ATOM     12  C   UNL     1       0.854   9.274  19.755  0.00  0.00    +0.000 A 
ATOM     13  N   UNL     1       0.173   9.982  18.865  0.00  0.00    +0.000 NA
ATOM     14  C   UNL     1      -0.617  10.837  19.581  0.00  0.00    +0.000 A 
ATOM     15  C   UNL     1      -1.551  11.789  19.137  0.00  0.00    +0.000 A 
ATOM     16  C   UNL     1      -2.257  12.544  20.086  0.00  0.00    +0.000 A 
ATOM     17  C   UNL     1      -2.035  12.360  21.450  0.00  0.00    +0.000 A 
ATOM     18  C   UNL     1      -1.105  11.423  21.911  0.00  0.00    +0.000 A 
ATOM     19  C   UNL     1      -0.413  10.679  20.947  0.00  0.00    +0.000 A 
ENDBRANCH   1  12
BRANCH   8  20
ATOM     20  C   UNL     1       4.681   4.120  16.516  0.00  0.00    +0.000 C 
BRANCH  20  21
ATOM     21  C   UNL     1       5.745   4.538  15.557  0.00  0.00    +0.000 A 
ATOM     22  C   UNL     1       6.926   5.253  15.848  0.00  0.00    +0.000 A 
ATOM     23  N   UNL     1       7.715   5.425  14.786  0.00  0.00    +0.000 NA
ATOM     24  N   UNL     1       7.083   4.754  13.794  0.00  0.00    +0.000 N 
ATOM     25  C   UNL     1       7.571   4.459  12.526  0.00  0.00    +0.000 A 
ATOM     26  C   UNL     1       6.835   3.739  11.670  0.00  0.00    +0.000 A 
ATOM     27  C   UNL     1       5.474   3.381  12.157  0.00  0.00    +0.000 A 
ATOM     28  N   UNL     1       4.989   3.624  13.338  0.00  0.00    +0.000 NA
ATOM     29  C   UNL     1       5.829   4.283  14.201  0.00  0.00    +0.000 A 
ENDBRANCH  20  21
ENDBRANCH   8  20
TORSDOF 3
ENDMDL
MODEL 3
REMARK VINA RESULT:      -8.6      2.744     11.260
REMARK  Name = 
REMARK  4 active torsions:
REMARK  status: ('A' for Active; 'I' for Inactive)
REMARK    1  A    between atoms: C_1  and  N_2
REMARK    2  A    between atoms: C_3  and  C_4
REMARK    3  A    between atoms: N_11  and  C_12
REMARK    4  A    between atoms: C_12  and  C_13
REMARK                            x       y       z     vdW  Elec       q    Type
REMARK                         _______ _______ _______ _____ _____    ______ ____
ROOT
ATOM      1  C   UNL     1       2.043   7.962  19.117  0.00  0.00    +0.000 A 
ATOM      2  C   UNL     1       1.315   9.094  18.668  0.00  0.00    +0.000 A 
ATOM      3  C   UNL     1       0.676   9.590  19.789  0.00  0.00    +0.000 A 
ATOM      4  N   UNL     1       1.052   8.773  20.798  0.00  0.00    +0.000 N 
ATOM      5  N   UNL     1       1.877   7.783  20.434  0.00  0.00    +0.000 NA
ATOM      6  C   UNL     1       0.633   8.878  22.166  0.00  0.00    +0.000 C 
ATOM      7  C   UNL     1      -0.167  10.144  22.461  0.00  0.00    +0.000 C 
ATOM      8  N   UNL     1      -0.576  11.050  21.383  0.00  0.00    +0.000 NA
ATOM      9  C   UNL     1      -0.262  10.717  19.994  0.00  0.00    +0.000 C 
ENDROOT
BRANCH   1  12
ATOM     10  C   UNL     1       1.982   4.776  18.887  0.00  0.00    +0.000 C 
ATOM     11  N   UNL     1       2.874   5.692  18.213  0.00  0.00    +0.000 N 
ATOM     12  C   UNL     1       2.902   7.069  18.267  0.00  0.00    +0.000 A 
ATOM     13  N   UNL     1       3.830   7.539  17.445  0.00  0.00    +0.000 NA
ATOM     14  C   UNL     1       4.441   6.448  16.895  0.00  0.00    +0.000 A 
ATOM     15  C   UNL     1       5.505   6.374  15.980  0.00  0.00    +0.000 A 
ATOM     16  C   UNL     1       5.969   5.113  15.575  0.00  0.00    +0.000 A 
ATOM     17  C   UNL     1       5.383   3.948  16.066  0.00  0.00    +0.000 A 
ATOM     18  C   UNL     1       4.318   4.000  16.972  0.00  0.00    +0.000 A 
ATOM     19  C   UNL     1       3.873   5.268  17.364  0.00  0.00    +0.000 A 
ENDBRANCH   1  12
BRANCH   8  20
ATOM     20  C   UNL     1      -0.371  12.472  21.702  0.00  0.00    +0.000 C 
BRANCH  20  21
ATOM     21  C   UNL     1      -1.587  13.023  22.368  0.00  0.00    +0.000 A 
ATOM     22  C   UNL     1      -2.928  12.637  22.157  0.00  0.00    +0.000 A 
ATOM     23  N   UNL     1      -3.792  13.273  22.949  0.00  0.00    +0.000 NA
ATOM     24  N   UNL     1      -3.008  14.038  23.746  0.00  0.00    +0.000 N 
ATOM     25  C   UNL     1      -3.390  14.756  24.873  0.00  0.00    +0.000 A 
ATOM     26  C   UNL     1      -2.478  15.429  25.586  0.00  0.00    +0.000 A 
ATOM     27  C   UNL     1      -1.098  15.404  25.027  0.00  0.00    +0.000 A 
ATOM     28  N   UNL     1      -0.700  14.731  23.988  0.00  0.00    +0.000 NA
ATOM     29  C   UNL     1      -1.664  13.987  23.356  0.00  0.00    +0.000 A 
ENDBRANCH  20  21
ENDBRANCH   8  20
TORSDOF 3
ENDMDL
MODEL 4
REMARK VINA RESULT:      -8.5      2.286     10.700
REMARK  Name = 
REMARK  4 active torsions:
REMARK  status: ('A' for Active; 'I' for Inactive)
REMARK    1  A    between atoms: C_1  and  N_2
REMARK    2  A    between atoms: C_3  and  C_4
REMARK    3  A    between atoms: N_11  and  C_12
REMARK    4  A    between atoms: C_12  and  C_13
REMARK                            x       y       z     vdW  Elec       q    Type
REMARK                         _______ _______ _______ _____ _____    ______ ____
ROOT
ATOM      1  C   UNL     1       2.519   7.683  18.623  0.00  0.00    +0.000 A 
ATOM      2  C   UNL     1       1.845   8.817  18.101  0.00  0.00    +0.000 A 
ATOM      3  C   UNL     1       1.100   9.320  19.152  0.00  0.00    +0.000 A 
ATOM      4  N   UNL     1       1.370   8.504  20.195  0.00  0.00    +0.000 N 
ATOM      5  N   UNL     1       2.221   7.509  19.918  0.00  0.00    +0.000 NA
ATOM      6  C   UNL     1       0.818   8.616  21.515  0.00  0.00    +0.000 C 
ATOM      7  C   UNL     1      -0.001   9.887  21.725  0.00  0.00    +0.000 C 
ATOM      8  N   UNL     1      -0.295  10.792  20.610  0.00  0.00    +0.000 NA
ATOM      9  C   UNL     1       0.153  10.453  19.260  0.00  0.00    +0.000 C 
ENDROOT
BRANCH   1  12
ATOM     10  C   UNL     1       2.145   4.598  17.884  0.00  0.00    +0.000 C 
ATOM     11  N   UNL     1       3.278   5.444  17.589  0.00  0.00    +0.000 N 
ATOM     12  C   UNL     1       3.453   6.782  17.866  0.00  0.00    +0.000 A 
ATOM     13  N   UNL     1       4.606   7.205  17.367  0.00  0.00    +0.000 NA
ATOM     14  C   UNL     1       5.204   6.111  16.808  0.00  0.00    +0.000 A 
ATOM     15  C   UNL     1       6.448   5.991  16.165  0.00  0.00    +0.000 A 
ATOM     16  C   UNL     1       6.848   4.735  15.684  0.00  0.00    +0.000 A 
ATOM     17  C   UNL     1       6.025   3.620  15.834  0.00  0.00    +0.000 A 
ATOM     18  C   UNL     1       4.780   3.720  16.465  0.00  0.00    +0.000 A 
ATOM     19  C   UNL     1       4.402   4.983  16.939  0.00  0.00    +0.000 A 
ENDBRANCH   1  12
BRANCH   8  20
ATOM     20  C   UNL     1      -0.116  12.213  20.944  0.00  0.00    +0.000 C 
BRANCH  20  21
ATOM     21  C   UNL     1      -1.255  12.685  21.785  0.00  0.00    +0.000 A 
ATOM     22  C   UNL     1      -1.201  13.150  23.116  0.00  0.00    +0.000 A 
ATOM     23  N   UNL     1      -2.381  13.561  23.580  0.00  0.00    +0.000 NA
ATOM     24  N   UNL     1      -3.215  13.434  22.521  0.00  0.00    +0.000 N 
ATOM     25  C   UNL     1      -4.520  13.900  22.408  0.00  0.00    +0.000 A 
ATOM     26  C   UNL     1      -5.200  13.734  21.266  0.00  0.00    +0.000 A 
ATOM     27  C   UNL     1      -4.484  12.961  20.214  0.00  0.00    +0.000 A 
ATOM     28  N   UNL     1      -3.261  12.526  20.276  0.00  0.00    +0.000 NA
ATOM     29  C   UNL     1      -2.587  12.809  21.436  0.00  0.00    +0.000 A 
ENDBRANCH  20  21
ENDBRANCH   8  20
TORSDOF 3
ENDMDL
MODEL 5
REMARK VINA RESULT:      -8.4      2.457     10.951
REMARK  Name = 
REMARK  4 active torsions:
REMARK  status: ('A' for Active; 'I' for Inactive)
REMARK    1  A    between atoms: C_1  and  N_2
REMARK    2  A    between atoms: C_3  and  C_4
REMARK    3  A    between atoms: N_11  and  C_12
REMARK    4  A    between atoms: C_12  and  C_13
REMARK                            x       y       z     vdW  Elec       q    Type
REMARK                         _______ _______ _______ _____ _____    ______ ____
ROOT
ATOM      1  C   UNL     1       2.072   7.951  19.071  0.00  0.00    +0.000 A 
ATOM      2  C   UNL     1       1.392   9.106  18.606  0.00  0.00    +0.000 A 
ATOM      3  C   UNL     1       0.737   9.618  19.711  0.00  0.00    +0.000 A 
ATOM      4  N   UNL     1       1.059   8.787  20.726  0.00  0.00    +0.000 N 
ATOM      5  N   UNL     1       1.863   7.773  20.382  0.00  0.00    +0.000 NA
ATOM      6  C   UNL     1       0.606   8.901  22.083  0.00  0.00    +0.000 C 
ATOM      7  C   UNL     1      -0.163  10.190  22.360  0.00  0.00    +0.000 C 
ATOM      8  N   UNL     1      -0.514  11.111  21.275  0.00  0.00    +0.000 NA
ATOM      9  C   UNL     1      -0.171  10.773  19.894  0.00  0.00    +0.000 C 
ENDROOT
BRANCH   1  12
ATOM     10  C   UNL     1       1.968   4.764  18.883  0.00  0.00    +0.000 C 
ATOM     11  N   UNL     1       2.879   5.658  18.206  0.00  0.00    +0.000 N 
ATOM     12  C   UNL     1       2.927   7.034  18.242  0.00  0.00    +0.000 A 
ATOM     13  N   UNL     1       3.869   7.481  17.424  0.00  0.00    +0.000 NA
ATOM     14  C   UNL     1       4.470   6.373  16.894  0.00  0.00    +0.000 A 
ATOM     15  C   UNL     1       5.543   6.273  15.991  0.00  0.00    +0.000 A 
ATOM     16  C   UNL     1       5.992   5.000  15.607  0.00  0.00    +0.000 A 
ATOM     17  C   UNL     1       5.385   3.850  16.108  0.00  0.00    +0.000 A 
ATOM     18  C   UNL     1       4.311   3.929  17.002  0.00  0.00    +0.000 A 
ATOM     19  C   UNL     1       3.880   5.209  17.373  0.00  0.00    +0.000 A 
ENDBRANCH   1  12
BRANCH   8  20
ATOM     20  C   UNL     1      -0.274  12.525  21.606  0.00  0.00    +0.000 C 
BRANCH  20  21
ATOM     21  C   UNL     1      -1.567  13.270  21.615  0.00  0.00    +0.000 A 
ATOM     22  C   UNL     1      -2.023  14.206  20.662  0.00  0.00    +0.000 A 
ATOM     23  N   UNL     1      -3.252  14.659  20.913  0.00  0.00    +0.000 NA
ATOM     24  N   UNL     1      -3.644  13.962  22.005  0.00  0.00    +0.000 N 
ATOM     25  C   UNL     1      -4.914  13.914  22.569  0.00  0.00    +0.000 A 
ATOM     26  C   UNL     1      -5.153  13.133  23.630  0.00  0.00    +0.000 A 
ATOM     27  C   UNL     1      -3.960  12.424  24.172  0.00  0.00    +0.000 A 
ATOM     28  N   UNL     1      -2.764  12.431  23.663  0.00  0.00    +0.000 NA
ATOM     29  C   UNL     1      -2.607  13.177  22.522  0.00  0.00    +0.000 A 
ENDBRANCH  20  21
ENDBRANCH   8  20
TORSDOF 3
ENDMDL
MODEL 6
REMARK VINA RESULT:      -8.3      1.975      3.651
REMARK  Name = 
REMARK  4 active torsions:
REMARK  status: ('A' for Active; 'I' for Inactive)
REMARK    1  A    between atoms: C_1  and  N_2
REMARK    2  A    between atoms: C_3  and  C_4
REMARK    3  A    between atoms: N_11  and  C_12
REMARK    4  A    between atoms: C_12  and  C_13
REMARK                            x       y       z     vdW  Elec       q    Type
REMARK                         _______ _______ _______ _____ _____    ______ ____
ROOT
ATOM      1  C   UNL     1       0.542  10.173  20.912  0.00  0.00    +0.000 A 
ATOM      2  C   UNL     1       0.790   8.921  21.531  0.00  0.00    +0.000 A 
ATOM      3  C   UNL     1       1.365   8.133  20.551  0.00  0.00    +0.000 A 
ATOM      4  N   UNL     1       1.436   8.926  19.459  0.00  0.00    +0.000 N 
ATOM      5  N   UNL     1       0.954  10.162  19.637  0.00  0.00    +0.000 NA
ATOM      6  C   UNL     1       1.953   8.547  18.175  0.00  0.00    +0.000 C 
ATOM      7  C   UNL     1       2.615   7.172  18.170  0.00  0.00    +0.000 C 
ATOM      8  N   UNL     1       2.560   6.299  19.347  0.00  0.00    +0.000 NA
ATOM      9  C   UNL     1       1.816   6.723  20.532  0.00  0.00    +0.000 C 
ENDROOT
BRANCH   1  12
ATOM     10  C   UNL     1       1.491  13.221  20.792  0.00  0.00    +0.000 C 
ATOM     11  N   UNL     1       0.369  12.675  21.520  0.00  0.00    +0.000 N 
ATOM     12  C   UNL     1      -0.083  11.374  21.564  0.00  0.00    +0.000 A 
ATOM     13  N   UNL     1      -1.187  11.298  22.294  0.00  0.00    +0.000 NA
ATOM     14  C   UNL     1      -1.418  12.559  22.768  0.00  0.00    +0.000 A 
ATOM     15  C   UNL     1      -2.439  13.035  23.609  0.00  0.00    +0.000 A 
ATOM     16  C   UNL     1      -2.448  14.391  23.969  0.00  0.00    +0.000 A 
ATOM     17  C   UNL     1      -1.463  15.259  23.499  0.00  0.00    +0.000 A 
ATOM     18  C   UNL     1      -0.443  14.806  22.656  0.00  0.00    +0.000 A 
ATOM     19  C   UNL     1      -0.453  13.449  22.310  0.00  0.00    +0.000 A 
ENDBRANCH   1  12
BRANCH   8  20
ATOM     20  C   UNL     1       3.846   5.659  19.664  0.00  0.00    +0.000 C 
BRANCH  20  21
ATOM     21  C   UNL     1       4.247   4.747  18.553  0.00  0.00    +0.000 A 
ATOM     22  C   UNL     1       3.587   3.576  18.127  0.00  0.00    +0.000 A 
ATOM     23  N   UNL     1       4.156   3.006  17.064  0.00  0.00    +0.000 NA
ATOM     24  N   UNL     1       5.164   3.849  16.737  0.00  0.00    +0.000 N 
ATOM     25  C   UNL     1       5.954   3.823  15.593  0.00  0.00    +0.000 A 
ATOM     26  C   UNL     1       6.885   4.764  15.393  0.00  0.00    +0.000 A 
ATOM     27  C   UNL     1       7.041   5.741  16.507  0.00  0.00    +0.000 A 
ATOM     28  N   UNL     1       6.312   5.807  17.581  0.00  0.00    +0.000 NA
ATOM     29  C   UNL     1       5.314   4.871  17.681  0.00  0.00    +0.000 A 
ENDBRANCH  20  21
ENDBRANCH   8  20
TORSDOF 3
ENDMDL
MODEL 7
REMARK VINA RESULT:      -8.2      5.654      8.588
REMARK  Name = 
REMARK  4 active torsions:
REMARK  status: ('A' for Active; 'I' for Inactive)
REMARK    1  A    between atoms: C_1  and  N_2
REMARK    2  A    between atoms: C_3  and  C_4
REMARK    3  A    between atoms: N_11  and  C_12
REMARK    4  A    between atoms: C_12  and  C_13
REMARK                            x       y       z     vdW  Elec       q    Type
REMARK                         _______ _______ _______ _____ _____    ______ ____
ROOT
ATOM      1  C   UNL     1       8.670   9.182  18.359  0.00  0.00    +0.000 A 
ATOM      2  C   UNL     1       7.683   9.073  17.346  0.00  0.00    +0.000 A 
ATOM      3  C   UNL     1       7.139   7.811  17.495  0.00  0.00    +0.000 A 
ATOM      4  N   UNL     1       7.792   7.269  18.548  0.00  0.00    +0.000 N 
ATOM      5  N   UNL     1       8.718   8.064  19.097  0.00  0.00    +0.000 NA
ATOM      6  C   UNL     1       7.582   5.954  19.082  0.00  0.00    +0.000 C 
ATOM      7  C   UNL     1       6.387   5.232  18.465  0.00  0.00    +0.000 C 
ATOM      8  N   UNL     1       5.658   5.806  17.330  0.00  0.00    +0.000 NA
ATOM      9  C   UNL     1       6.107   7.066  16.739  0.00  0.00    +0.000 C 
ENDROOT
BRANCH   1  12
ATOM     10  C   UNL     1       9.033  10.853  21.058  0.00  0.00    +0.000 C 
ATOM     11  N   UNL     1       9.664  11.093  19.780  0.00  0.00    +0.000 N 
ATOM     12  C   UNL     1       9.552  10.372  18.611  0.00  0.00    +0.000 A 
ATOM     13  N   UNL     1      10.350  10.881  17.683  0.00  0.00    +0.000 NA
ATOM     14  C   UNL     1      10.942  11.976  18.247  0.00  0.00    +0.000 A 
ATOM     15  C   UNL     1      11.855  12.892  17.697  0.00  0.00    +0.000 A 
ATOM     16  C   UNL     1      12.310  13.958  18.489  0.00  0.00    +0.000 A 
ATOM     17  C   UNL     1      11.871  14.106  19.804  0.00  0.00    +0.000 A 
ATOM     18  C   UNL     1      10.968  13.200  20.371  0.00  0.00    +0.000 A 
ATOM     19  C   UNL     1      10.525  12.146  19.562  0.00  0.00    +0.000 A 
ENDBRANCH   1  12
BRANCH   8  20
ATOM     20  C   UNL     1       4.195   5.714  17.465  0.00  0.00    +0.000 C 
BRANCH  20  21
ATOM     21  C   UNL     1       3.823   4.401  18.068  0.00  0.00    +0.000 A 
ATOM     22  C   UNL     1       4.152   3.115  17.590  0.00  0.00    +0.000 A 
ATOM     23  N   UNL     1       3.726   2.131  18.383  0.00  0.00    +0.000 NA
ATOM     24  N   UNL     1       3.171   2.775  19.438  0.00  0.00    +0.000 N 
ATOM     25  C   UNL     1       2.743   2.221  20.639  0.00  0.00    +0.000 A 
ATOM     26  C   UNL     1       2.256   3.005  21.609  0.00  0.00    +0.000 A 
ATOM     27  C   UNL     1       2.143   4.447  21.255  0.00  0.00    +0.000 A 
ATOM     28  N   UNL     1       2.547   5.004  20.151  0.00  0.00    +0.000 NA
ATOM     29  C   UNL     1       3.122   4.159  19.235  0.00  0.00    +0.000 A 
ENDBRANCH  20  21
ENDBRANCH   8  20
TORSDOF 3
ENDMDL
MODEL 8
REMARK VINA RESULT:      -8.2      5.340      8.037
REMARK  Name = 
REMARK  4 active torsions:
REMARK  status: ('A' for Active; 'I' for Inactive)
REMARK    1  A    between atoms: C_1  and  N_2
REMARK    2  A    between atoms: C_3  and  C_4
REMARK    3  A    between atoms: N_11  and  C_12
REMARK    4  A    between atoms: C_12  and  C_13
REMARK                            x       y       z     vdW  Elec       q    Type
REMARK                         _______ _______ _______ _____ _____    ______ ____
ROOT
ATOM      1  C   UNL     1       8.376   8.883  18.290  0.00  0.00    +0.000 A 
ATOM      2  C   UNL     1       7.578   8.613  17.148  0.00  0.00    +0.000 A 
ATOM      3  C   UNL     1       7.246   7.274  17.238  0.00  0.00    +0.000 A 
ATOM      4  N   UNL     1       7.825   6.845  18.381  0.00  0.00    +0.000 N 
ATOM      5  N   UNL     1       8.511   7.783  19.044  0.00  0.00    +0.000 NA
ATOM      6  C   UNL     1       7.772   5.508  18.900  0.00  0.00    +0.000 C 
ATOM      7  C   UNL     1       6.822   4.594  18.131  0.00  0.00    +0.000 C 
ATOM      8  N   UNL     1       6.175   5.044  16.894  0.00  0.00    +0.000 NA
ATOM      9  C   UNL     1       6.478   6.368  16.354  0.00  0.00    +0.000 C 
ENDROOT
BRANCH   1  12
ATOM     10  C   UNL     1       7.624  11.787  17.193  0.00  0.00    +0.000 C 
ATOM     11  N   UNL     1       8.666  11.442  18.131  0.00  0.00    +0.000 N 
ATOM     12  C   UNL     1       8.992  10.206  18.646  0.00  0.00    +0.000 A 
ATOM     13  N   UNL     1       9.969  10.324  19.535  0.00  0.00    +0.000 NA
ATOM     14  C   UNL     1      10.311  11.647  19.552  0.00  0.00    +0.000 A 
ATOM     15  C   UNL     1      11.301  12.314  20.293  0.00  0.00    +0.000 A 
ATOM     16  C   UNL     1      11.468  13.696  20.118  0.00  0.00    +0.000 A 
ATOM     17  C   UNL     1      10.663  14.402  19.225  0.00  0.00    +0.000 A 
ATOM     18  C   UNL     1       9.668  13.758  18.483  0.00  0.00    +0.000 A 
ATOM     19  C   UNL     1       9.520  12.378  18.673  0.00  0.00    +0.000 A 
ENDBRANCH   1  12
BRANCH   8  20
ATOM     20  C   UNL     1       4.746   4.697  16.821  0.00  0.00    +0.000 C 
BRANCH  20  21
ATOM     21  C   UNL     1       4.047   5.159  18.055  0.00  0.00    +0.000 A 
ATOM     22  C   UNL     1       3.589   6.463  18.342  0.00  0.00    +0.000 A 
ATOM     23  N   UNL     1       2.945   6.552  19.506  0.00  0.00    +0.000 NA
ATOM     24  N   UNL     1       2.912   5.278  19.964  0.00  0.00    +0.000 N 
ATOM     25  C   UNL     1       2.194   4.784  21.048  0.00  0.00    +0.000 A 
ATOM     26  C   UNL     1       2.231   3.479  21.344  0.00  0.00    +0.000 A 
ATOM     27  C   UNL     1       3.142   2.665  20.492  0.00  0.00    +0.000 A 
ATOM     28  N   UNL     1       3.814   3.086  19.462  0.00  0.00    +0.000 NA
ATOM     29  C   UNL     1       3.661   4.415  19.154  0.00  0.00    +0.000 A 
ENDBRANCH  20  21
ENDBRANCH   8  20
TORSDOF 3
ENDMDL
MODEL 9
REMARK VINA RESULT:      -8.1      2.895     11.411
REMARK  Name = 
REMARK  4 active torsions:
REMARK  status: ('A' for Active; 'I' for Inactive)
REMARK    1  A    between atoms: C_1  and  N_2
REMARK    2  A    between atoms: C_3  and  C_4
REMARK    3  A    between atoms: N_11  and  C_12
REMARK    4  A    between atoms: C_12  and  C_13
REMARK                            x       y       z     vdW  Elec       q    Type
REMARK                         _______ _______ _______ _____ _____    ______ ____
ROOT
ATOM      1  C   UNL     1       1.792   8.098  19.843  0.00  0.00    +0.000 A 
ATOM      2  C   UNL     1       1.468   8.114  21.223  0.00  0.00    +0.000 A 
ATOM      3  C   UNL     1       0.872   9.341  21.449  0.00  0.00    +0.000 A 
ATOM      4  N   UNL     1       0.863   9.953  20.244  0.00  0.00    +0.000 N 
ATOM      5  N   UNL     1       1.405   9.236  19.251  0.00  0.00    +0.000 NA
ATOM      6  C   UNL     1       0.351  11.266  19.971  0.00  0.00    +0.000 C 
ATOM      7  C   UNL     1      -0.382  11.890  21.155  0.00  0.00    +0.000 C 
ATOM      8  N   UNL     1      -0.393  11.238  22.468  0.00  0.00    +0.000 NA
ATOM      9  C   UNL     1       0.349   9.995  22.670  0.00  0.00    +0.000 C 
ENDROOT
BRANCH   1  12
ATOM     10  C   UNL     1       1.598   4.957  20.391  0.00  0.00    +0.000 C 
ATOM     11  N   UNL     1       2.388   5.629  19.385  0.00  0.00    +0.000 N 
ATOM     12  C   UNL     1       2.466   6.976  19.105  0.00  0.00    +0.000 A 
ATOM     13  N   UNL     1       3.253   7.180  18.057  0.00  0.00    +0.000 NA
ATOM     14  C   UNL     1       3.728   5.951  17.692  0.00  0.00    +0.000 A 
ATOM     15  C   UNL     1       4.617   5.596  16.663  0.00  0.00    +0.000 A 
ATOM     16  C   UNL     1       4.966   4.246  16.501  0.00  0.00    +0.000 A 
ATOM     17  C   UNL     1       4.438   3.268  17.342  0.00  0.00    +0.000 A 
ATOM     18  C   UNL     1       3.546   3.601  18.368  0.00  0.00    +0.000 A 
ATOM     19  C   UNL     1       3.213   4.953  18.513  0.00  0.00    +0.000 A 
ENDBRANCH   1  12
BRANCH   8  20
ATOM     20  C   UNL     1      -1.717  11.237  23.111  0.00  0.00    +0.000 C 
BRANCH  20  21
ATOM     21  C   UNL     1      -2.140  12.638  23.405  0.00  0.00    +0.000 A 
ATOM     22  C   UNL     1      -1.321  13.786  23.455  0.00  0.00    +0.000 A 
ATOM     23  N   UNL     1      -2.002  14.910  23.682  0.00  0.00    +0.000 NA
ATOM     24  N   UNL     1      -3.296  14.512  23.713  0.00  0.00    +0.000 N 
ATOM     25  C   UNL     1      -4.430  15.316  23.733  0.00  0.00    +0.000 A 
ATOM     26  C   UNL     1      -5.650  14.764  23.713  0.00  0.00    +0.000 A 
ATOM     27  C   UNL     1      -5.668  13.275  23.755  0.00  0.00    +0.000 A 
ATOM     28  N   UNL     1      -4.631  12.491  23.720  0.00  0.00    +0.000 NA
ATOM     29  C   UNL     1      -3.413  13.118  23.646  0.00  0.00    +0.000 A 
ENDBRANCH  20  21
ENDBRANCH   8  20
TORSDOF 3
ENDMDL
