MODEL 1
REMARK VINA RESULT:      -7.0      0.000      0.000
REMARK  Name = 
REMARK  16 active torsions:
REMARK  status: ('A' for Active; 'I' for Inactive)
REMARK    1  A    between atoms: C_1  and  C_2
REMARK    2  A    between atoms: C_2  and  C_3
REMARK    3  A    between atoms: C_3  and  C_4
REMARK    4  A    between atoms: C_4  and  C_5
REMARK    5  A    between atoms: C_5  and  C_6
REMARK    6  A    between atoms: C_6  and  C_7
REMARK    7  A    between atoms: C_7  and  C_8
REMARK    8  A    between atoms: C_8  and  O_9
REMARK    9  A    between atoms: O_9  and  C_10
REMARK   10  A    between atoms: C_13  and  O_14
REMARK   11  A    between atoms: O_14  and  C_15
REMARK   12  A    between atoms: C_15  and  C_16
REMARK   13  A    between atoms: C_18  and  O_19
REMARK   14  A    between atoms: C_20  and  O_21
REMARK   15  A    between atoms: C_22  and  O_23
REMARK   16  A    between atoms: C_24  and  O_25
REMARK                            x       y       z     vdW  Elec       q    Type
REMARK                         _______ _______ _______ _____ _____    ______ ____
ROOT
ATOM      1  O   UNL     1       5.713   3.992  16.515  0.00  0.00    +0.000 OA
ENDROOT
BRANCH   1   5
ATOM      2  C   UNL     1       7.891   7.112  18.270  0.00  0.00    +0.000 A 
ATOM      3  C   UNL     1       7.962   5.803  18.733  0.00  0.00    +0.000 A 
ATOM      4  C   UNL     1       7.275   4.808  18.148  0.00  0.00    +0.000 A 
ATOM      5  C   UNL     1       6.422   5.029  17.075  0.00  0.00    +0.000 A 
ATOM      6  C   UNL     1       6.315   6.343  16.571  0.00  0.00    +0.000 A 
ATOM      7  C   UNL     1       7.057   7.386  17.171  0.00  0.00    +0.000 A 
BRANCH   2   8
ATOM      8  O   UNL     1       8.634   8.100  18.868  0.00  0.00    +0.000 OA
BRANCH   8   9
ATOM      9  C   UNL     1       8.456   9.395  18.242  0.00  0.00    +0.000 C 
BRANCH   9  10
ATOM     10  C   UNL     1       9.343  10.403  18.930  0.00  0.00    +0.000 C 
BRANCH  10  11
ATOM     11  C   UNL     1      10.120  11.232  17.916  0.00  0.00    +0.000 C 
BRANCH  11  12
ATOM     12  C   UNL     1      11.249  11.996  18.593  0.00  0.00    +0.000 C 
BRANCH  12  13
ATOM     13  C   UNL     1      10.993  12.125  20.091  0.00  0.00    +0.000 C 
BRANCH  13  14
ATOM     14  C   UNL     1      10.902  13.593  20.497  0.00  0.00    +0.000 C 
BRANCH  14  16
ATOM     15  C   UNL     1       8.453  13.973  20.124  0.00  0.00    +0.000 C 
ATOM     16  C   UNL     1       9.856  14.329  19.665  0.00  0.00    +0.000 C 
ENDBRANCH  14  16
ENDBRANCH  13  14
ENDBRANCH  12  13
ENDBRANCH  11  12
ENDBRANCH  10  11
ENDBRANCH   9  10
ENDBRANCH   8   9
ENDBRANCH   2   8
ENDBRANCH   1   5
BRANCH   1  17
ATOM     17  C   UNL     1       4.272   4.145  16.659  0.00  0.00    +0.000 C 
BRANCH  17  18
ATOM     18  C   UNL     1       3.745   3.324  17.828  0.00  0.00    +0.000 C 
ATOM     19  O   UNL     1       3.862   4.094  19.040  0.00  0.00    +0.000 OA
ATOM     20  C   UNL     1       3.398   3.405  20.202  0.00  0.00    +0.000 C 
ATOM     21  C   UNL     1       1.909   3.021  20.071  0.00  0.00    +0.000 C 
ATOM     22  C   UNL     1       1.725   2.168  18.805  0.00  0.00    +0.000 C 
ATOM     23  C   UNL     1       2.283   2.906  17.582  0.00  0.00    +0.000 C 
BRANCH  20  24
ATOM     24  O   UNL     1       4.235   2.298  20.516  0.00  0.00    +0.000 OA
ATOM     25  H   UNL     1       4.927   2.204  19.840  0.00  0.00    +0.000 HD
ENDBRANCH  20  24
BRANCH  21  26
ATOM     26  O   UNL     1       1.437   2.350  21.236  0.00  0.00    +0.000 OA
ATOM     27  H   UNL     1       1.402   2.987  21.967  0.00  0.00    +0.000 HD
ENDBRANCH  21  26
BRANCH  22  28
ATOM     28  O   UNL     1       0.349   1.835  18.603  0.00  0.00    +0.000 OA
ATOM     29  H   UNL     1      -0.093   2.630  18.247  0.00  0.00    +0.000 HD
ENDBRANCH  22  28
BRANCH  23  30
ATOM     30  O   UNL     1       1.443   4.042  17.303  0.00  0.00    +0.000 OA
ATOM     31  H   UNL     1       1.682   4.771  17.902  0.00  0.00    +0.000 HD
ENDBRANCH  23  30
ENDBRANCH  17  18
ENDBRANCH   1  17
TORSDOF 15
ENDMDL
MODEL 2
REMARK VINA RESULT:      -6.7      1.157      2.264
REMARK  Name = 
REMARK  16 active torsions:
REMARK  status: ('A' for Active; 'I' for Inactive)
REMARK    1  A    between atoms: C_1  and  C_2
REMARK    2  A    between atoms: C_2  and  C_3
REMARK    3  A    between atoms: C_3  and  C_4
REMARK    4  A    between atoms: C_4  and  C_5
REMARK    5  A    between atoms: C_5  and  C_6
REMARK    6  A    between atoms: C_6  and  C_7
REMARK    7  A    between atoms: C_7  and  C_8
REMARK    8  A    between atoms: C_8  and  O_9
REMARK    9  A    between atoms: O_9  and  C_10
REMARK   10  A    between atoms: C_13  and  O_14
REMARK   11  A    between atoms: O_14  and  C_15
REMARK   12  A    between atoms: C_15  and  C_16
REMARK   13  A    between atoms: C_18  and  O_19
REMARK   14  A    between atoms: C_20  and  O_21
REMARK   15  A    between atoms: C_22  and  O_23
REMARK   16  A    between atoms: C_24  and  O_25
REMARK                            x       y       z     vdW  Elec       q    Type
REMARK                         _______ _______ _______ _____ _____    ______ ____
ROOT
ATOM      1  O   UNL     1       4.679   4.425  16.280  0.00  0.00    +0.000 OA
ENDROOT
BRANCH   1   5
ATOM      2  C   UNL     1       7.545   6.978  17.964  0.00  0.00    +0.000 A 
ATOM      3  C   UNL     1       6.439   7.455  17.271  0.00  0.00    +0.000 A 
ATOM      4  C   UNL     1       5.516   6.627  16.754  0.00  0.00    +0.000 A 
ATOM      5  C   UNL     1       5.629   5.246  16.843  0.00  0.00    +0.000 A 
ATOM      6  C   UNL     1       6.738   4.713  17.535  0.00  0.00    +0.000 A 
ATOM      7  C   UNL     1       7.696   5.586  18.101  0.00  0.00    +0.000 A 
BRANCH   2   8
ATOM      8  O   UNL     1       8.451   7.852  18.511  0.00  0.00    +0.000 OA
BRANCH   8   9
ATOM      9  C   UNL     1       8.256   9.217  18.067  0.00  0.00    +0.000 C 
BRANCH   9  10
ATOM     10  C   UNL     1       9.106  10.137  18.908  0.00  0.00    +0.000 C 
BRANCH  10  11
ATOM     11  C   UNL     1       9.857  11.137  18.038  0.00  0.00    +0.000 C 
BRANCH  11  12
ATOM     12  C   UNL     1       9.031  12.397  17.825  0.00  0.00    +0.000 C 
BRANCH  12  13
ATOM     13  C   UNL     1       9.846  13.641  18.161  0.00  0.00    +0.000 C 
BRANCH  13  14
ATOM     14  C   UNL     1      11.290  13.270  18.480  0.00  0.00    +0.000 C 
BRANCH  14  16
ATOM     15  C   UNL     1      10.813  15.059  20.167  0.00  0.00    +0.000 C 
ATOM     16  C   UNL     1      11.761  13.944  19.765  0.00  0.00    +0.000 C 
ENDBRANCH  14  16
ENDBRANCH  13  14
ENDBRANCH  12  13
ENDBRANCH  11  12
ENDBRANCH  10  11
ENDBRANCH   9  10
ENDBRANCH   8   9
ENDBRANCH   2   8
ENDBRANCH   1   5
BRANCH   1  17
ATOM     17  C   UNL     1       4.453   3.209  17.048  0.00  0.00    +0.000 C 
BRANCH  17  18
ATOM     18  C   UNL     1       3.208   3.331  17.919  0.00  0.00    +0.000 C 
ATOM     19  O   UNL     1       2.784   2.016  18.327  0.00  0.00    +0.000 OA
ATOM     20  C   UNL     1       1.613   2.023  19.146  0.00  0.00    +0.000 C 
ATOM     21  C   UNL     1       1.836   2.832  20.440  0.00  0.00    +0.000 C 
ATOM     22  C   UNL     1       2.265   4.260  20.067  0.00  0.00    +0.000 C 
ATOM     23  C   UNL     1       3.488   4.224  19.143  0.00  0.00    +0.000 C 
BRANCH  20  24
ATOM     24  O   UNL     1       0.471   2.448  18.412  0.00  0.00    +0.000 OA
ATOM     25  H   UNL     1      -0.338   2.112  18.833  0.00  0.00    +0.000 HD
ENDBRANCH  20  24
BRANCH  21  26
ATOM     26  O   UNL     1       0.677   2.825  21.269  0.00  0.00    +0.000 OA
ATOM     27  H   UNL     1       0.942   3.061  22.173  0.00  0.00    +0.000 HD
ENDBRANCH  21  26
BRANCH  22  28
ATOM     28  O   UNL     1       2.545   5.037  21.234  0.00  0.00    +0.000 OA
ATOM     29  H   UNL     1       3.376   4.697  21.617  0.00  0.00    +0.000 HD
ENDBRANCH  22  28
BRANCH  23  30
ATOM     30  O   UNL     1       4.623   3.757  19.894  0.00  0.00    +0.000 OA
ATOM     31  H   UNL     1       5.425   3.842  19.350  0.00  0.00    +0.000 HD
ENDBRANCH  23  30
ENDBRANCH  17  18
ENDBRANCH   1  17
TORSDOF 15
ENDMDL
MODEL 3
REMARK VINA RESULT:      -6.7      5.819      9.414
REMARK  Name = 
REMARK  16 active torsions:
REMARK  status: ('A' for Active; 'I' for Inactive)
REMARK    1  A    between atoms: C_1  and  C_2
REMARK    2  A    between atoms: C_2  and  C_3
REMARK    3  A    between atoms: C_3  and  C_4
REMARK    4  A    between atoms: C_4  and  C_5
REMARK    5  A    between atoms: C_5  and  C_6
REMARK    6  A    between atoms: C_6  and  C_7
REMARK    7  A    between atoms: C_7  and  C_8
REMARK    8  A    between atoms: C_8  and  O_9
REMARK    9  A    between atoms: O_9  and  C_10
REMARK   10  A    between atoms: C_13  and  O_14
REMARK   11  A    between atoms: O_14  and  C_15
REMARK   12  A    between atoms: C_15  and  C_16
REMARK   13  A    between atoms: C_18  and  O_19
REMARK   14  A    between atoms: C_20  and  O_21
REMARK   15  A    between atoms: C_22  and  O_23
REMARK   16  A    between atoms: C_24  and  O_25
REMARK                            x       y       z     vdW  Elec       q    Type
REMARK                         _______ _______ _______ _____ _____    ______ ____
ROOT
ATOM      1  O   UNL     1       1.925   9.050  17.536  0.00  0.00    +0.000 OA
ENDROOT
BRANCH   1   5
ATOM      2  C   UNL     1       4.309   5.827  18.756  0.00  0.00    +0.000 A 
ATOM      3  C   UNL     1       3.194   6.242  19.475  0.00  0.00    +0.000 A 
ATOM      4  C   UNL     1       2.425   7.263  19.062  0.00  0.00    +0.000 A 
ATOM      5  C   UNL     1       2.718   7.994  17.918  0.00  0.00    +0.000 A 
ATOM      6  C   UNL     1       3.843   7.612  17.156  0.00  0.00    +0.000 A 
ATOM      7  C   UNL     1       4.637   6.520  17.577  0.00  0.00    +0.000 A 
BRANCH   2   8
ATOM      8  O   UNL     1       5.053   4.757  19.187  0.00  0.00    +0.000 OA
BRANCH   8   9
ATOM      9  C   UNL     1       4.978   3.621  18.290  0.00  0.00    +0.000 C 
BRANCH   9  10
ATOM     10  C   UNL     1       4.160   2.531  18.939  0.00  0.00    +0.000 C 
BRANCH  10  11
ATOM     11  C   UNL     1       3.174   1.924  17.951  0.00  0.00    +0.000 C 
BRANCH  11  12
ATOM     12  C   UNL     1       1.765   1.918  18.526  0.00  0.00    +0.000 C 
BRANCH  12  13
ATOM     13  C   UNL     1       1.165   3.320  18.502  0.00  0.00    +0.000 C 
BRANCH  13  14
ATOM     14  C   UNL     1       0.727   3.742  19.900  0.00  0.00    +0.000 C 
BRANCH  14  16
ATOM     15  C   UNL     1       2.239   3.480  21.881  0.00  0.00    +0.000 C 
ATOM     16  C   UNL     1       1.258   2.779  20.957  0.00  0.00    +0.000 C 
ENDBRANCH  14  16
ENDBRANCH  13  14
ENDBRANCH  12  13
ENDBRANCH  11  12
ENDBRANCH  10  11
ENDBRANCH   9  10
ENDBRANCH   8   9
ENDBRANCH   2   8
ENDBRANCH   1   5
BRANCH   1  17
ATOM     17  C   UNL     1       0.996   9.468  18.577  0.00  0.00    +0.000 C 
BRANCH  17  18
ATOM     18  C   UNL     1      -0.101  10.361  18.010  0.00  0.00    +0.000 C 
ATOM     19  O   UNL     1      -1.273   9.565  17.750  0.00  0.00    +0.000 OA
ATOM     20  C   UNL     1      -2.363  10.313  17.207  0.00  0.00    +0.000 C 
ATOM     21  C   UNL     1      -2.803  11.441  18.163  0.00  0.00    +0.000 C 
ATOM     22  C   UNL     1      -1.594  12.345  18.455  0.00  0.00    +0.000 C 
ATOM     23  C   UNL     1      -0.421  11.511  18.983  0.00  0.00    +0.000 C 
BRANCH  20  24
ATOM     24  O   UNL     1      -2.068  10.776  15.894  0.00  0.00    +0.000 OA
ATOM     25  H   UNL     1      -2.838  10.646  15.316  0.00  0.00    +0.000 HD
ENDBRANCH  20  24
BRANCH  21  26
ATOM     26  O   UNL     1      -3.901  12.178  17.633  0.00  0.00    +0.000 OA
ATOM     27  H   UNL     1      -4.669  11.587  17.571  0.00  0.00    +0.000 HD
ENDBRANCH  21  26
BRANCH  22  28
ATOM     28  O   UNL     1      -1.934  13.375  19.387  0.00  0.00    +0.000 OA
ATOM     29  H   UNL     1      -2.908  13.450  19.394  0.00  0.00    +0.000 HD
ENDBRANCH  22  28
BRANCH  23  30
ATOM     30  O   UNL     1      -0.754  11.022  20.295  0.00  0.00    +0.000 OA
ATOM     31  H   UNL     1      -1.014  11.771  20.860  0.00  0.00    +0.000 HD
ENDBRANCH  23  30
ENDBRANCH  17  18
ENDBRANCH   1  17
TORSDOF 15
ENDMDL
MODEL 4
REMARK VINA RESULT:      -6.6      1.128      2.196
REMARK  Name = 
REMARK  16 active torsions:
REMARK  status: ('A' for Active; 'I' for Inactive)
REMARK    1  A    between atoms: C_1  and  C_2
REMARK    2  A    between atoms: C_2  and  C_3
REMARK    3  A    between atoms: C_3  and  C_4
REMARK    4  A    between atoms: C_4  and  C_5
REMARK    5  A    between atoms: C_5  and  C_6
REMARK    6  A    between atoms: C_6  and  C_7
REMARK    7  A    between atoms: C_7  and  C_8
REMARK    8  A    between atoms: C_8  and  O_9
REMARK    9  A    between atoms: O_9  and  C_10
REMARK   10  A    between atoms: C_13  and  O_14
REMARK   11  A    between atoms: O_14  and  C_15
REMARK   12  A    between atoms: C_15  and  C_16
REMARK   13  A    between atoms: C_18  and  O_19
REMARK   14  A    between atoms: C_20  and  O_21
REMARK   15  A    between atoms: C_22  and  O_23
REMARK   16  A    between atoms: C_24  and  O_25
REMARK                            x       y       z     vdW  Elec       q    Type
REMARK                         _______ _______ _______ _____ _____    ______ ____
ROOT
ATOM      1  O   UNL     1       5.321   4.369  16.202  0.00  0.00    +0.000 OA
ENDROOT
BRANCH   1   5
ATOM      2  C   UNL     1       7.812   7.122  18.146  0.00  0.00    +0.000 A 
ATOM      3  C   UNL     1       6.829   7.515  17.246  0.00  0.00    +0.000 A 
ATOM      4  C   UNL     1       6.022   6.624  16.645  0.00  0.00    +0.000 A 
ATOM      5  C   UNL     1       6.147   5.256  16.852  0.00  0.00    +0.000 A 
ATOM      6  C   UNL     1       7.134   4.808  17.756  0.00  0.00    +0.000 A 
ATOM      7  C   UNL     1       7.965   5.748  18.408  0.00  0.00    +0.000 A 
BRANCH   2   8
ATOM      8  O   UNL     1       8.596   8.060  18.770  0.00  0.00    +0.000 OA
BRANCH   8   9
ATOM      9  C   UNL     1       8.358   9.405  18.286  0.00  0.00    +0.000 C 
BRANCH   9  10
ATOM     10  C   UNL     1       9.536  10.276  18.647  0.00  0.00    +0.000 C 
BRANCH  10  11
ATOM     11  C   UNL     1       9.396  10.831  20.058  0.00  0.00    +0.000 C 
BRANCH  11  12
ATOM     12  C   UNL     1      10.577  11.725  20.408  0.00  0.00    +0.000 C 
BRANCH  12  13
ATOM     13  C   UNL     1      11.664  11.627  19.343  0.00  0.00    +0.000 C 
BRANCH  13  14
ATOM     14  C   UNL     1      11.765  12.928  18.555  0.00  0.00    +0.000 C 
BRANCH  14  16
ATOM     15  C   UNL     1      10.165  14.857  18.544  0.00  0.00    +0.000 C 
ATOM     16  C   UNL     1      11.202  14.100  19.354  0.00  0.00    +0.000 C 
ENDBRANCH  14  16
ENDBRANCH  13  14
ENDBRANCH  12  13
ENDBRANCH  11  12
ENDBRANCH  10  11
ENDBRANCH   9  10
ENDBRANCH   8   9
ENDBRANCH   2   8
ENDBRANCH   1   5
BRANCH   1  17
ATOM     17  C   UNL     1       4.976   3.213  17.016  0.00  0.00    +0.000 C 
BRANCH  17  18
ATOM     18  C   UNL     1       3.868   3.549  18.008  0.00  0.00    +0.000 C 
ATOM     19  O   UNL     1       2.605   3.105  17.476  0.00  0.00    +0.000 OA
ATOM     20  C   UNL     1       1.496   3.383  18.333  0.00  0.00    +0.000 C 
ATOM     21  C   UNL     1       1.659   2.695  19.704  0.00  0.00    +0.000 C 
ATOM     22  C   UNL     1       2.983   3.154  20.337  0.00  0.00    +0.000 C 
ATOM     23  C   UNL     1       4.149   2.898  19.375  0.00  0.00    +0.000 C 
BRANCH  20  24
ATOM     24  O   UNL     1       1.258   4.782  18.434  0.00  0.00    +0.000 OA
ATOM     25  H   UNL     1       0.580   5.050  17.792  0.00  0.00    +0.000 HD
ENDBRANCH  20  24
BRANCH  21  26
ATOM     26  O   UNL     1       0.546   2.953  20.556  0.00  0.00    +0.000 OA
ATOM     27  H   UNL     1       0.489   2.243  21.215  0.00  0.00    +0.000 HD
ENDBRANCH  21  26
BRANCH  22  28
ATOM     28  O   UNL     1       3.212   2.498  21.587  0.00  0.00    +0.000 OA
ATOM     29  H   UNL     1       2.554   1.780  21.663  0.00  0.00    +0.000 HD
ENDBRANCH  22  28
BRANCH  23  30
ATOM     30  O   UNL     1       4.349   1.477  19.258  0.00  0.00    +0.000 OA
ATOM     31  H   UNL     1       3.702   1.113  18.629  0.00  0.00    +0.000 HD
ENDBRANCH  23  30
ENDBRANCH  17  18
ENDBRANCH   1  17
TORSDOF 15
ENDMDL
MODEL 5
REMARK VINA RESULT:      -6.6      6.455      8.341
REMARK  Name = 
REMARK  16 active torsions:
REMARK  status: ('A' for Active; 'I' for Inactive)
REMARK    1  A    between atoms: C_1  and  C_2
REMARK    2  A    between atoms: C_2  and  C_3
REMARK    3  A    between atoms: C_3  and  C_4
REMARK    4  A    between atoms: C_4  and  C_5
REMARK    5  A    between atoms: C_5  and  C_6
REMARK    6  A    between atoms: C_6  and  C_7
REMARK    7  A    between atoms: C_7  and  C_8
REMARK    8  A    between atoms: C_8  and  O_9
REMARK    9  A    between atoms: O_9  and  C_10
REMARK   10  A    between atoms: C_13  and  O_14
REMARK   11  A    between atoms: O_14  and  C_15
REMARK   12  A    between atoms: C_15  and  C_16
REMARK   13  A    between atoms: C_18  and  O_19
REMARK   14  A    between atoms: C_20  and  O_21
REMARK   15  A    between atoms: C_22  and  O_23
REMARK   16  A    between atoms: C_24  and  O_25
REMARK                            x       y       z     vdW  Elec       q    Type
REMARK                         _______ _______ _______ _____ _____    ______ ____
ROOT
ATOM      1  O   UNL     1       2.141   6.756  19.765  0.00  0.00    +0.000 OA
ENDROOT
BRANCH   1   5
ATOM      2  C   UNL     1       0.776  10.696  20.187  0.00  0.00    +0.000 A 
ATOM      3  C   UNL     1       1.177  10.175  18.963  0.00  0.00    +0.000 A 
ATOM      4  C   UNL     1       1.592   8.903  18.836  0.00  0.00    +0.000 A 
ATOM      5  C   UNL     1       1.687   8.045  19.924  0.00  0.00    +0.000 A 
ATOM      6  C   UNL     1       1.294   8.530  21.190  0.00  0.00    +0.000 A 
ATOM      7  C   UNL     1       0.832   9.860  21.318  0.00  0.00    +0.000 A 
BRANCH   2   8
ATOM      8  O   UNL     1       0.322  11.988  20.276  0.00  0.00    +0.000 OA
BRANCH   8   9
ATOM      9  C   UNL     1      -0.333  12.270  21.537  0.00  0.00    +0.000 C 
BRANCH   9  10
ATOM     10  C   UNL     1      -1.817  12.412  21.304  0.00  0.00    +0.000 C 
BRANCH  10  11
ATOM     11  C   UNL     1      -2.105  12.910  19.894  0.00  0.00    +0.000 C 
BRANCH  11  12
ATOM     12  C   UNL     1      -2.996  11.930  19.146  0.00  0.00    +0.000 C 
BRANCH  12  13
ATOM     13  C   UNL     1      -2.253  11.318  17.963  0.00  0.00    +0.000 C 
BRANCH  13  14
ATOM     14  C   UNL     1      -3.197  11.108  16.784  0.00  0.00    +0.000 C 
BRANCH  14  16
ATOM     15  C   UNL     1      -3.011  10.102  14.497  0.00  0.00    +0.000 C 
ATOM     16  C   UNL     1      -2.811   9.868  15.984  0.00  0.00    +0.000 C 
ENDBRANCH  14  16
ENDBRANCH  13  14
ENDBRANCH  12  13
ENDBRANCH  11  12
ENDBRANCH  10  11
ENDBRANCH   9  10
ENDBRANCH   8   9
ENDBRANCH   2   8
ENDBRANCH   1   5
BRANCH   1  17
ATOM     17  C   UNL     1       2.596   6.478  18.410  0.00  0.00    +0.000 C 
BRANCH  17  18
ATOM     18  C   UNL     1       3.384   5.175  18.351  0.00  0.00    +0.000 C 
ATOM     19  O   UNL     1       4.291   5.118  19.469  0.00  0.00    +0.000 OA
ATOM     20  C   UNL     1       5.086   3.931  19.500  0.00  0.00    +0.000 C 
ATOM     21  C   UNL     1       4.205   2.667  19.587  0.00  0.00    +0.000 C 
ATOM     22  C   UNL     1       3.231   2.657  18.398  0.00  0.00    +0.000 C 
ATOM     23  C   UNL     1       2.431   3.964  18.354  0.00  0.00    +0.000 C 
BRANCH  20  24
ATOM     24  O   UNL     1       6.007   3.897  18.416  0.00  0.00    +0.000 OA
ATOM     25  H   UNL     1       5.737   3.219  17.773  0.00  0.00    +0.000 HD
ENDBRANCH  20  24
BRANCH  21  26
ATOM     26  O   UNL     1       4.994   1.482  19.637  0.00  0.00    +0.000 OA
ATOM     27  H   UNL     1       5.044   1.182  20.559  0.00  0.00    +0.000 HD
ENDBRANCH  21  26
BRANCH  22  28
ATOM     28  O   UNL     1       2.348   1.534  18.464  0.00  0.00    +0.000 OA
ATOM     29  H   UNL     1       1.508   1.847  18.850  0.00  0.00    +0.000 HD
ENDBRANCH  22  28
BRANCH  23  30
ATOM     30  O   UNL     1       1.533   3.996  19.478  0.00  0.00    +0.000 OA
ATOM     31  H   UNL     1       0.733   3.485  19.262  0.00  0.00    +0.000 HD
ENDBRANCH  23  30
ENDBRANCH  17  18
ENDBRANCH   1  17
TORSDOF 15
ENDMDL
MODEL 6
REMARK VINA RESULT:      -6.6      5.878      9.716
REMARK  Name = 
REMARK  16 active torsions:
REMARK  status: ('A' for Active; 'I' for Inactive)
REMARK    1  A    between atoms: C_1  and  C_2
REMARK    2  A    between atoms: C_2  and  C_3
REMARK    3  A    between atoms: C_3  and  C_4
REMARK    4  A    between atoms: C_4  and  C_5
REMARK    5  A    between atoms: C_5  and  C_6
REMARK    6  A    between atoms: C_6  and  C_7
REMARK    7  A    between atoms: C_7  and  C_8
REMARK    8  A    between atoms: C_8  and  O_9
REMARK    9  A    between atoms: O_9  and  C_10
REMARK   10  A    between atoms: C_13  and  O_14
REMARK   11  A    between atoms: O_14  and  C_15
REMARK   12  A    between atoms: C_15  and  C_16
REMARK   13  A    between atoms: C_18  and  O_19
REMARK   14  A    between atoms: C_20  and  O_21
REMARK   15  A    between atoms: C_22  and  O_23
REMARK   16  A    between atoms: C_24  and  O_25
REMARK                            x       y       z     vdW  Elec       q    Type
REMARK                         _______ _______ _______ _____ _____    ______ ____
ROOT
ATOM      1  O   UNL     1       1.884   9.106  17.792  0.00  0.00    +0.000 OA
ENDROOT
BRANCH   1   5
ATOM      2  C   UNL     1       4.289   5.805  18.729  0.00  0.00    +0.000 A 
ATOM      3  C   UNL     1       3.173   6.150  19.482  0.00  0.00    +0.000 A 
ATOM      4  C   UNL     1       2.397   7.198  19.159  0.00  0.00    +0.000 A 
ATOM      5  C   UNL     1       2.684   8.026  18.081  0.00  0.00    +0.000 A 
ATOM      6  C   UNL     1       3.810   7.717  17.288  0.00  0.00    +0.000 A 
ATOM      7  C   UNL     1       4.611   6.599  17.613  0.00  0.00    +0.000 A 
BRANCH   2   8
ATOM      8  O   UNL     1       5.041   4.707  19.065  0.00  0.00    +0.000 OA
BRANCH   8   9
ATOM      9  C   UNL     1       4.729   3.543  18.259  0.00  0.00    +0.000 C 
BRANCH   9  10
ATOM     10  C   UNL     1       4.300   2.415  19.164  0.00  0.00    +0.000 C 
BRANCH  10  11
ATOM     11  C   UNL     1       3.229   1.558  18.502  0.00  0.00    +0.000 C 
BRANCH  11  12
ATOM     12  C   UNL     1       2.161   2.430  17.857  0.00  0.00    +0.000 C 
BRANCH  12  13
ATOM     13  C   UNL     1       0.874   2.402  18.674  0.00  0.00    +0.000 C 
BRANCH  13  14
ATOM     14  C   UNL     1       0.907   3.465  19.767  0.00  0.00    +0.000 C 
BRANCH  14  16
ATOM     15  C   UNL     1       2.327   3.483  21.831  0.00  0.00    +0.000 C 
ATOM     16  C   UNL     1       1.141   2.838  21.138  0.00  0.00    +0.000 C 
ENDBRANCH  14  16
ENDBRANCH  13  14
ENDBRANCH  12  13
ENDBRANCH  11  12
ENDBRANCH  10  11
ENDBRANCH   9  10
ENDBRANCH   8   9
ENDBRANCH   2   8
ENDBRANCH   1   5
BRANCH   1  17
ATOM     17  C   UNL     1       1.126   9.576  18.944  0.00  0.00    +0.000 C 
BRANCH  17  18
ATOM     18  C   UNL     1       0.649  11.009  18.742  0.00  0.00    +0.000 C 
ATOM     19  O   UNL     1      -0.791  11.042  18.799  0.00  0.00    +0.000 OA
ATOM     20  C   UNL     1      -1.340  12.348  18.613  0.00  0.00    +0.000 C 
ATOM     21  C   UNL     1      -0.837  13.328  19.692  0.00  0.00    +0.000 C 
ATOM     22  C   UNL     1       0.700  13.358  19.661  0.00  0.00    +0.000 C 
ATOM     23  C   UNL     1       1.262  11.939  19.805  0.00  0.00    +0.000 C 
BRANCH  20  24
ATOM     24  O   UNL     1      -1.121  12.816  17.287  0.00  0.00    +0.000 OA
ATOM     25  H   UNL     1      -1.497  13.707  17.184  0.00  0.00    +0.000 HD
ENDBRANCH  20  24
BRANCH  21  26
ATOM     26  O   UNL     1      -1.397  14.627  19.522  0.00  0.00    +0.000 OA
ATOM     27  H   UNL     1      -2.342  14.588  19.738  0.00  0.00    +0.000 HD
ENDBRANCH  21  26
BRANCH  22  28
ATOM     28  O   UNL     1       1.220  14.209  20.686  0.00  0.00    +0.000 OA
ATOM     29  H   UNL     1       2.053  14.592  20.349  0.00  0.00    +0.000 HD
ENDBRANCH  22  28
BRANCH  23  30
ATOM     30  O   UNL     1       0.999  11.470  21.141  0.00  0.00    +0.000 OA
ATOM     31  H   UNL     1       0.566  12.178  21.649  0.00  0.00    +0.000 HD
ENDBRANCH  23  30
ENDBRANCH  17  18
ENDBRANCH   1  17
TORSDOF 15
ENDMDL
MODEL 7
REMARK VINA RESULT:      -6.6      2.651     10.357
REMARK  Name = 
REMARK  16 active torsions:
REMARK  status: ('A' for Active; 'I' for Inactive)
REMARK    1  A    between atoms: C_1  and  C_2
REMARK    2  A    between atoms: C_2  and  C_3
REMARK    3  A    between atoms: C_3  and  C_4
REMARK    4  A    between atoms: C_4  and  C_5
REMARK    5  A    between atoms: C_5  and  C_6
REMARK    6  A    between atoms: C_6  and  C_7
REMARK    7  A    between atoms: C_7  and  C_8
REMARK    8  A    between atoms: C_8  and  O_9
REMARK    9  A    between atoms: O_9  and  C_10
REMARK   10  A    between atoms: C_13  and  O_14
REMARK   11  A    between atoms: O_14  and  C_15
REMARK   12  A    between atoms: C_15  and  C_16
REMARK   13  A    between atoms: C_18  and  O_19
REMARK   14  A    between atoms: C_20  and  O_21
REMARK   15  A    between atoms: C_22  and  O_23
REMARK   16  A    between atoms: C_24  and  O_25
REMARK                            x       y       z     vdW  Elec       q    Type
REMARK                         _______ _______ _______ _____ _____    ______ ____
ROOT
ATOM      1  O   UNL     1       8.355   9.418  17.878  0.00  0.00    +0.000 OA
ENDROOT
BRANCH   1   5
ATOM      2  C   UNL     1       6.724   5.558  17.913  0.00  0.00    +0.000 A 
ATOM      3  C   UNL     1       7.767   5.933  18.751  0.00  0.00    +0.000 A 
ATOM      4  C   UNL     1       8.267   7.180  18.746  0.00  0.00    +0.000 A 
ATOM      5  C   UNL     1       7.804   8.158  17.876  0.00  0.00    +0.000 A 
ATOM      6  C   UNL     1       6.747   7.824  17.002  0.00  0.00    +0.000 A 
ATOM      7  C   UNL     1       6.204   6.519  17.026  0.00  0.00    +0.000 A 
BRANCH   2   8
ATOM      8  O   UNL     1       6.212   4.286  17.968  0.00  0.00    +0.000 OA
BRANCH   8   9
ATOM      9  C   UNL     1       5.117   4.078  17.042  0.00  0.00    +0.000 C 
BRANCH   9  10
ATOM     10  C   UNL     1       3.812   4.145  17.796  0.00  0.00    +0.000 C 
BRANCH  10  11
ATOM     11  C   UNL     1       2.755   3.266  17.141  0.00  0.00    +0.000 C 
BRANCH  11  12
ATOM     12  C   UNL     1       1.528   3.140  18.032  0.00  0.00    +0.000 C 
BRANCH  12  13
ATOM     13  C   UNL     1       1.770   2.131  19.149  0.00  0.00    +0.000 C 
BRANCH  13  14
ATOM     14  C   UNL     1       1.797   2.826  20.506  0.00  0.00    +0.000 C 
BRANCH  14  16
ATOM     15  C   UNL     1       1.869   5.312  20.806  0.00  0.00    +0.000 C 
ATOM     16  C   UNL     1       0.989   4.120  20.477  0.00  0.00    +0.000 C 
ENDBRANCH  14  16
ENDBRANCH  13  14
ENDBRANCH  12  13
ENDBRANCH  11  12
ENDBRANCH  10  11
ENDBRANCH   9  10
ENDBRANCH   8   9
ENDBRANCH   2   8
ENDBRANCH   1   5
BRANCH   1  17
ATOM     17  C   UNL     1       9.153   9.688  19.065  0.00  0.00    +0.000 C 
BRANCH  17  18
ATOM     18  C   UNL     1       9.332  11.185  19.281  0.00  0.00    +0.000 C 
ATOM     19  O   UNL     1      10.342  11.403  20.285  0.00  0.00    +0.000 OA
ATOM     20  C   UNL     1      10.580  12.783  20.566  0.00  0.00    +0.000 C 
ATOM     21  C   UNL     1      11.048  13.541  19.306  0.00  0.00    +0.000 C 
ATOM     22  C   UNL     1       9.992  13.369  18.202  0.00  0.00    +0.000 C 
ATOM     23  C   UNL     1       9.713  11.881  17.960  0.00  0.00    +0.000 C 
BRANCH  20  24
ATOM     24  O   UNL     1       9.454  13.385  21.194  0.00  0.00    +0.000 OA
ATOM     25  H   UNL     1       9.655  14.309  21.419  0.00  0.00    +0.000 HD
ENDBRANCH  20  24
BRANCH  21  26
ATOM     26  O   UNL     1      11.305  14.914  19.585  0.00  0.00    +0.000 OA
ATOM     27  H   UNL     1      11.517  15.365  18.752  0.00  0.00    +0.000 HD
ENDBRANCH  21  26
BRANCH  22  28
ATOM     28  O   UNL     1      10.405  14.003  16.989  0.00  0.00    +0.000 OA
ATOM     29  H   UNL     1      10.743  14.889  17.225  0.00  0.00    +0.000 HD
ENDBRANCH  22  28
BRANCH  23  30
ATOM     30  O   UNL     1      10.876  11.283  17.358  0.00  0.00    +0.000 OA
ATOM     31  H   UNL     1      11.546  11.972  17.204  0.00  0.00    +0.000 HD
ENDBRANCH  23  30
ENDBRANCH  17  18
ENDBRANCH   1  17
TORSDOF 15
ENDMDL
MODEL 8
REMARK VINA RESULT:      -6.6      1.388      1.707
REMARK  Name = 
REMARK  16 active torsions:
REMARK  status: ('A' for Active; 'I' for Inactive)
REMARK    1  A    between atoms: C_1  and  C_2
REMARK    2  A    between atoms: C_2  and  C_3
REMARK    3  A    between atoms: C_3  and  C_4
REMARK    4  A    between atoms: C_4  and  C_5
REMARK    5  A    between atoms: C_5  and  C_6
REMARK    6  A    between atoms: C_6  and  C_7
REMARK    7  A    between atoms: C_7  and  C_8
REMARK    8  A    between atoms: C_8  and  O_9
REMARK    9  A    between atoms: O_9  and  C_10
REMARK   10  A    between atoms: C_13  and  O_14
REMARK   11  A    between atoms: O_14  and  C_15
REMARK   12  A    between atoms: C_15  and  C_16
REMARK   13  A    between atoms: C_18  and  O_19
REMARK   14  A    between atoms: C_20  and  O_21
REMARK   15  A    between atoms: C_22  and  O_23
REMARK   16  A    between atoms: C_24  and  O_25
REMARK                            x       y       z     vdW  Elec       q    Type
REMARK                         _______ _______ _______ _____ _____    ______ ____
ROOT
ATOM      1  O   UNL     1       6.023   4.017  16.615  0.00  0.00    +0.000 OA
ENDROOT
BRANCH   1   5
ATOM      2  C   UNL     1       8.009   7.265  18.366  0.00  0.00    +0.000 A 
ATOM      3  C   UNL     1       8.049   5.987  18.911  0.00  0.00    +0.000 A 
ATOM      4  C   UNL     1       7.425   4.949  18.328  0.00  0.00    +0.000 A 
ATOM      5  C   UNL     1       6.670   5.095  17.172  0.00  0.00    +0.000 A 
ATOM      6  C   UNL     1       6.597   6.376  16.583  0.00  0.00    +0.000 A 
ATOM      7  C   UNL     1       7.275   7.462  17.183  0.00  0.00    +0.000 A 
BRANCH   2   8
ATOM      8  O   UNL     1       8.687   8.296  18.968  0.00  0.00    +0.000 OA
BRANCH   8   9
ATOM      9  C   UNL     1       8.549   9.551  18.257  0.00  0.00    +0.000 C 
BRANCH   9  10
ATOM     10  C   UNL     1       9.387  10.603  18.941  0.00  0.00    +0.000 C 
BRANCH  10  11
ATOM     11  C   UNL     1      10.184  11.413  17.927  0.00  0.00    +0.000 C 
BRANCH  11  12
ATOM     12  C   UNL     1      10.662  12.723  18.537  0.00  0.00    +0.000 C 
BRANCH  12  13
ATOM     13  C   UNL     1      11.911  13.228  17.823  0.00  0.00    +0.000 C 
BRANCH  13  14
ATOM     14  C   UNL     1      11.562  14.357  16.859  0.00  0.00    +0.000 C 
BRANCH  14  16
ATOM     15  C   UNL     1      11.530  16.360  18.363  0.00  0.00    +0.000 C 
ATOM     16  C   UNL     1      10.686  15.407  17.536  0.00  0.00    +0.000 C 
ENDBRANCH  14  16
ENDBRANCH  13  14
ENDBRANCH  12  13
ENDBRANCH  11  12
ENDBRANCH  10  11
ENDBRANCH   9  10
ENDBRANCH   8   9
ENDBRANCH   2   8
ENDBRANCH   1   5
BRANCH   1  17
ATOM     17  C   UNL     1       4.590   4.231  16.462  0.00  0.00    +0.000 C 
BRANCH  17  18
ATOM     18  C   UNL     1       3.869   4.098  17.798  0.00  0.00    +0.000 C 
ATOM     19  O   UNL     1       3.008   5.238  17.987  0.00  0.00    +0.000 OA
ATOM     20  C   UNL     1       2.288   5.211  19.221  0.00  0.00    +0.000 C 
ATOM     21  C   UNL     1       1.388   3.962  19.320  0.00  0.00    +0.000 C 
ATOM     22  C   UNL     1       2.259   2.706  19.154  0.00  0.00    +0.000 C 
ATOM     23  C   UNL     1       3.064   2.786  17.851  0.00  0.00    +0.000 C 
BRANCH  20  24
ATOM     24  O   UNL     1       3.163   5.359  20.333  0.00  0.00    +0.000 OA
ATOM     25  H   UNL     1       2.899   4.752  21.046  0.00  0.00    +0.000 HD
ENDBRANCH  20  24
BRANCH  21  26
ATOM     26  O   UNL     1       0.654   3.941  20.541  0.00  0.00    +0.000 OA
ATOM     27  H   UNL     1       0.804   4.779  21.007  0.00  0.00    +0.000 HD
ENDBRANCH  21  26
BRANCH  22  28
ATOM     28  O   UNL     1       1.463   1.519  19.177  0.00  0.00    +0.000 OA
ATOM     29  H   UNL     1       2.063   0.771  19.362  0.00  0.00    +0.000 HD
ENDBRANCH  22  28
BRANCH  23  30
ATOM     30  O   UNL     1       2.157   2.671  16.739  0.00  0.00    +0.000 OA
ATOM     31  H   UNL     1       1.777   3.545  16.544  0.00  0.00    +0.000 HD
ENDBRANCH  23  30
ENDBRANCH  17  18
ENDBRANCH   1  17
TORSDOF 15
ENDMDL
MODEL 9
REMARK VINA RESULT:      -6.6      1.256      2.448
REMARK  Name = 
REMARK  16 active torsions:
REMARK  status: ('A' for Active; 'I' for Inactive)
REMARK    1  A    between atoms: C_1  and  C_2
REMARK    2  A    between atoms: C_2  and  C_3
REMARK    3  A    between atoms: C_3  and  C_4
REMARK    4  A    between atoms: C_4  and  C_5
REMARK    5  A    between atoms: C_5  and  C_6
REMARK    6  A    between atoms: C_6  and  C_7
REMARK    7  A    between atoms: C_7  and  C_8
REMARK    8  A    between atoms: C_8  and  O_9
REMARK    9  A    between atoms: O_9  and  C_10
REMARK   10  A    between atoms: C_13  and  O_14
REMARK   11  A    between atoms: O_14  and  C_15
REMARK   12  A    between atoms: C_15  and  C_16
REMARK   13  A    between atoms: C_18  and  O_19
REMARK   14  A    between atoms: C_20  and  O_21
REMARK   15  A    between atoms: C_22  and  O_23
REMARK   16  A    between atoms: C_24  and  O_25
REMARK                            x       y       z     vdW  Elec       q    Type
REMARK                         _______ _______ _______ _____ _____    ______ ____
ROOT
ATOM      1  O   UNL     1       6.485   4.291  18.321  0.00  0.00    +0.000 OA
ENDROOT
BRANCH   1   5
ATOM      2  C   UNL     1       7.981   8.191  17.976  0.00  0.00    +0.000 A 
ATOM      3  C   UNL     1       7.019   7.684  17.110  0.00  0.00    +0.000 A 
ATOM      4  C   UNL     1       6.532   6.439  17.244  0.00  0.00    +0.000 A 
ATOM      5  C   UNL     1       6.987   5.569  18.226  0.00  0.00    +0.000 A 
ATOM      6  C   UNL     1       7.966   6.037  19.128  0.00  0.00    +0.000 A 
ATOM      7  C   UNL     1       8.460   7.357  19.002  0.00  0.00    +0.000 A 
BRANCH   2   8
ATOM      8  O   UNL     1       8.433   9.479  17.833  0.00  0.00    +0.000 OA
BRANCH   8   9
ATOM      9  C   UNL     1       9.070   9.989  19.030  0.00  0.00    +0.000 C 
BRANCH   9  10
ATOM     10  C   UNL     1      10.044  11.076  18.648  0.00  0.00    +0.000 C 
BRANCH  10  11
ATOM     11  C   UNL     1      10.866  11.522  19.850  0.00  0.00    +0.000 C 
BRANCH  11  12
ATOM     12  C   UNL     1      10.669  13.007  20.118  0.00  0.00    +0.000 C 
BRANCH  12  13
ATOM     13  C   UNL     1      10.080  13.705  18.897  0.00  0.00    +0.000 C 
BRANCH  13  14
ATOM     14  C   UNL     1       8.800  14.447  19.266  0.00  0.00    +0.000 C 
BRANCH  14  16
ATOM     15  C   UNL     1       7.511  13.364  17.410  0.00  0.00    +0.000 C 
ATOM     16  C   UNL     1       7.927  14.683  18.037  0.00  0.00    +0.000 C 
ENDBRANCH  14  16
ENDBRANCH  13  14
ENDBRANCH  12  13
ENDBRANCH  11  12
ENDBRANCH  10  11
ENDBRANCH   9  10
ENDBRANCH   8   9
ENDBRANCH   2   8
ENDBRANCH   1   5
BRANCH   1  17
ATOM     17  C   UNL     1       5.462   4.008  17.324  0.00  0.00    +0.000 C 
BRANCH  17  18
ATOM     18  C   UNL     1       4.071   4.018  17.945  0.00  0.00    +0.000 C 
ATOM     19  O   UNL     1       3.225   3.099  17.228  0.00  0.00    +0.000 OA
ATOM     20  C   UNL     1       1.889   3.040  17.731  0.00  0.00    +0.000 C 
ATOM     21  C   UNL     1       1.864   2.595  19.208  0.00  0.00    +0.000 C 
ATOM     22  C   UNL     1       2.731   3.561  20.034  0.00  0.00    +0.000 C 
ATOM     23  C   UNL     1       4.141   3.649  19.439  0.00  0.00    +0.000 C 
BRANCH  20  24
ATOM     24  O   UNL     1       1.196   4.262  17.504  0.00  0.00    +0.000 OA
ATOM     25  H   UNL     1       0.253   4.152  17.709  0.00  0.00    +0.000 HD
ENDBRANCH  20  24
BRANCH  21  26
ATOM     26  O   UNL     1       0.532   2.518  19.710  0.00  0.00    +0.000 OA
ATOM     27  H   UNL     1       0.252   1.588  19.702  0.00  0.00    +0.000 HD
ENDBRANCH  21  26
BRANCH  22  28
ATOM     28  O   UNL     1       2.791   3.157  21.404  0.00  0.00    +0.000 OA
ATOM     29  H   UNL     1       3.508   3.668  21.826  0.00  0.00    +0.000 HD
ENDBRANCH  22  28
BRANCH  23  30
ATOM     30  O   UNL     1       4.811   2.392  19.647  0.00  0.00    +0.000 OA
ATOM     31  H   UNL     1       4.391   1.710  19.095  0.00  0.00    +0.000 HD
ENDBRANCH  23  30
ENDBRANCH  17  18
ENDBRANCH   1  17
TORSDOF 15
ENDMDL
