MODEL 1
REMARK VINA RESULT:      -6.3      0.000      0.000
REMARK  Name = 
REMARK  2 active torsions:
REMARK  status: ('A' for Active; 'I' for Inactive)
REMARK    1  A    between atoms: C_2  and  C_4
REMARK    2  A    between atoms: C_8  and  C_9
REMARK                            x       y       z     vdW  Elec       q    Type
REMARK                         _______ _______ _______ _____ _____    ______ ____
ROOT
ATOM      1  C   UNL     1       3.725   3.490  19.643  0.00  0.00    +0.000 A 
ATOM      2  S   UNL     1       2.408   3.919  20.676  0.00  0.00    +0.000 S 
ATOM      3  C   UNL     1       2.452   5.511  20.063  0.00  0.00    +0.000 A 
ATOM      4  N   UNL     1       3.348   5.748  19.136  0.00  0.00    +0.000 NA
ATOM      5  C   UNL     1       4.074   4.588  18.865  0.00  0.00    +0.000 A 
ENDROOT
BRANCH   5   6
ATOM      6  C   UNL     1       5.077   4.615  17.799  0.00  0.00    +0.000 A 
ATOM      7  C   UNL     1       4.667   4.463  16.466  0.00  0.00    +0.000 A 
ATOM      8  C   UNL     1       5.603   4.433  15.428  0.00  0.00    +0.000 A 
ATOM      9  C   UNL     1       6.962   4.551  15.711  0.00  0.00    +0.000 A 
ATOM     10  C   UNL     1       7.385   4.691  17.030  0.00  0.00    +0.000 A 
ATOM     11  C   UNL     1       6.449   4.710  18.067  0.00  0.00    +0.000 A 
ENDBRANCH   5   6
BRANCH   1  13
ATOM     12  N   UNL     1       3.995   1.309  18.696  0.00  0.00    +0.000 N 
ATOM     13  C   UNL     1       4.304   2.165  19.720  0.00  0.00    +0.000 C 
ATOM     14  O   UNL     1       5.057   1.768  20.603  0.00  0.00    +0.000 OA
ATOM     15  H   UNL     1       4.419   0.392  18.708  0.00  0.00    +0.000 HD
ATOM     16  H   UNL     1       3.416   1.584  17.916  0.00  0.00    +0.000 HD
ENDBRANCH   1  13
TORSDOF 2
ENDMDL
MODEL 2
REMARK VINA RESULT:      -6.3      1.243      1.785
REMARK  Name = 
REMARK  2 active torsions:
REMARK  status: ('A' for Active; 'I' for Inactive)
REMARK    1  A    between atoms: C_2  and  C_4
REMARK    2  A    between atoms: C_8  and  C_9
REMARK                            x       y       z     vdW  Elec       q    Type
REMARK                         _______ _______ _______ _____ _____    ______ ____
ROOT
ATOM      1  C   UNL     1       3.492   3.603  19.823  0.00  0.00    +0.000 A 
ATOM      2  S   UNL     1       1.976   3.575  20.653  0.00  0.00    +0.000 S 
ATOM      3  C   UNL     1       1.884   5.275  20.536  0.00  0.00    +0.000 A 
ATOM      4  N   UNL     1       2.875   5.864  19.911  0.00  0.00    +0.000 NA
ATOM      5  C   UNL     1       3.797   4.913  19.472  0.00  0.00    +0.000 A 
ENDROOT
BRANCH   5   6
ATOM      6  C   UNL     1       4.944   5.356  18.679  0.00  0.00    +0.000 A 
ATOM      7  C   UNL     1       6.221   5.358  19.260  0.00  0.00    +0.000 A 
ATOM      8  C   UNL     1       7.331   5.822  18.548  0.00  0.00    +0.000 A 
ATOM      9  C   UNL     1       7.177   6.295  17.246  0.00  0.00    +0.000 A 
ATOM     10  C   UNL     1       5.914   6.310  16.660  0.00  0.00    +0.000 A 
ATOM     11  C   UNL     1       4.804   5.855  17.377  0.00  0.00    +0.000 A 
ENDBRANCH   5   6
BRANCH   1  13
ATOM     12  N   UNL     1       4.029   1.716  18.454  0.00  0.00    +0.000 N 
ATOM     13  C   UNL     1       4.238   2.377  19.635  0.00  0.00    +0.000 C 
ATOM     14  O   UNL     1       5.049   1.909  20.429  0.00  0.00    +0.000 OA
ATOM     15  H   UNL     1       4.567   0.878  18.285  0.00  0.00    +0.000 HD
ATOM     16  H   UNL     1       3.408   2.067  17.740  0.00  0.00    +0.000 HD
ENDBRANCH   1  13
TORSDOF 2
ENDMDL
MODEL 3
REMARK VINA RESULT:      -6.2      1.464      1.485
REMARK  Name = 
REMARK  2 active torsions:
REMARK  status: ('A' for Active; 'I' for Inactive)
REMARK    1  A    between atoms: C_2  and  C_4
REMARK    2  A    between atoms: C_8  and  C_9
REMARK                            x       y       z     vdW  Elec       q    Type
REMARK                         _______ _______ _______ _____ _____    ______ ____
ROOT
ATOM      1  C   UNL     1       3.254   3.469  19.650  0.00  0.00    +0.000 A 
ATOM      2  S   UNL     1       1.767   3.406  20.527  0.00  0.00    +0.000 S 
ATOM      3  C   UNL     1       1.748   5.111  20.611  0.00  0.00    +0.000 A 
ATOM      4  N   UNL     1       2.743   5.728  20.020  0.00  0.00    +0.000 NA
ATOM      5  C   UNL     1       3.606   4.798  19.440  0.00  0.00    +0.000 A 
ENDROOT
BRANCH   5   6
ATOM      6  C   UNL     1       4.745   5.283  18.660  0.00  0.00    +0.000 A 
ATOM      7  C   UNL     1       4.549   5.674  17.327  0.00  0.00    +0.000 A 
ATOM      8  C   UNL     1       5.623   6.093  16.538  0.00  0.00    +0.000 A 
ATOM      9  C   UNL     1       6.910   6.123  17.071  0.00  0.00    +0.000 A 
ATOM     10  C   UNL     1       7.123   5.727  18.388  0.00  0.00    +0.000 A 
ATOM     11  C   UNL     1       6.049   5.298  19.172  0.00  0.00    +0.000 A 
ENDBRANCH   5   6
BRANCH   1  13
ATOM     12  N   UNL     1       5.011   1.901  20.072  0.00  0.00    +0.000 N 
ATOM     13  C   UNL     1       3.938   2.243  19.294  0.00  0.00    +0.000 C 
ATOM     14  O   UNL     1       3.615   1.489  18.381  0.00  0.00    +0.000 OA
ATOM     15  H   UNL     1       5.479   1.030  19.867  0.00  0.00    +0.000 HD
ATOM     16  H   UNL     1       5.304   2.453  20.865  0.00  0.00    +0.000 HD
ENDBRANCH   1  13
TORSDOF 2
ENDMDL
MODEL 4
REMARK VINA RESULT:      -6.2      2.766      4.757
REMARK  Name = 
REMARK  2 active torsions:
REMARK  status: ('A' for Active; 'I' for Inactive)
REMARK    1  A    between atoms: C_2  and  C_4
REMARK    2  A    between atoms: C_8  and  C_9
REMARK                            x       y       z     vdW  Elec       q    Type
REMARK                         _______ _______ _______ _____ _____    ______ ____
ROOT
ATOM      1  C   UNL     1       4.236   5.456  17.759  0.00  0.00    +0.000 A 
ATOM      2  S   UNL     1       4.729   6.934  17.011  0.00  0.00    +0.000 S 
ATOM      3  C   UNL     1       3.326   7.700  17.608  0.00  0.00    +0.000 A 
ATOM      4  N   UNL     1       2.530   6.957  18.339  0.00  0.00    +0.000 NA
ATOM      5  C   UNL     1       3.052   5.668  18.456  0.00  0.00    +0.000 A 
ENDROOT
BRANCH   5   6
ATOM      6  C   UNL     1       2.354   4.698  19.301  0.00  0.00    +0.000 A 
ATOM      7  C   UNL     1       2.661   4.631  20.668  0.00  0.00    +0.000 A 
ATOM      8  C   UNL     1       2.051   3.682  21.493  0.00  0.00    +0.000 A 
ATOM      9  C   UNL     1       1.128   2.784  20.960  0.00  0.00    +0.000 A 
ATOM     10  C   UNL     1       0.822   2.831  19.603  0.00  0.00    +0.000 A 
ATOM     11  C   UNL     1       1.441   3.773  18.778  0.00  0.00    +0.000 A 
ENDBRANCH   5   6
BRANCH   1  13
ATOM     12  N   UNL     1       5.821   3.876  18.604  0.00  0.00    +0.000 N 
ATOM     13  C   UNL     1       5.014   4.251  17.564  0.00  0.00    +0.000 C 
ATOM     14  O   UNL     1       4.983   3.538  16.565  0.00  0.00    +0.000 OA
ATOM     15  H   UNL     1       6.344   3.017  18.506  0.00  0.00    +0.000 HD
ATOM     16  H   UNL     1       5.863   4.392  19.471  0.00  0.00    +0.000 HD
ENDBRANCH   1  13
TORSDOF 2
ENDMDL
MODEL 5
REMARK VINA RESULT:      -6.2      1.501      1.730
REMARK  Name = 
REMARK  2 active torsions:
REMARK  status: ('A' for Active; 'I' for Inactive)
REMARK    1  A    between atoms: C_2  and  C_4
REMARK    2  A    between atoms: C_8  and  C_9
REMARK                            x       y       z     vdW  Elec       q    Type
REMARK                         _______ _______ _______ _____ _____    ______ ____
ROOT
ATOM      1  C   UNL     1       3.179   3.425  19.601  0.00  0.00    +0.000 A 
ATOM      2  S   UNL     1       2.032   3.527  20.890  0.00  0.00    +0.000 S 
ATOM      3  C   UNL     1       1.808   5.185  20.555  0.00  0.00    +0.000 A 
ATOM      4  N   UNL     1       2.496   5.668  19.548  0.00  0.00    +0.000 NA
ATOM      5  C   UNL     1       3.272   4.662  18.972  0.00  0.00    +0.000 A 
ENDROOT
BRANCH   5   6
ATOM      6  C   UNL     1       4.060   4.973  17.779  0.00  0.00    +0.000 A 
ATOM      7  C   UNL     1       4.436   6.302  17.532  0.00  0.00    +0.000 A 
ATOM      8  C   UNL     1       5.145   6.642  16.376  0.00  0.00    +0.000 A 
ATOM      9  C   UNL     1       5.484   5.658  15.450  0.00  0.00    +0.000 A 
ATOM     10  C   UNL     1       5.108   4.337  15.676  0.00  0.00    +0.000 A 
ATOM     11  C   UNL     1       4.390   4.000  16.827  0.00  0.00    +0.000 A 
ENDBRANCH   5   6
BRANCH   1  13
ATOM     12  N   UNL     1       5.065   2.021  20.040  0.00  0.00    +0.000 N 
ATOM     13  C   UNL     1       3.889   2.187  19.360  0.00  0.00    +0.000 C 
ATOM     14  O   UNL     1       3.507   1.280  18.625  0.00  0.00    +0.000 OA
ATOM     15  H   UNL     1       5.558   1.147  19.917  0.00  0.00    +0.000 HD
ATOM     16  H   UNL     1       5.416   2.707  20.692  0.00  0.00    +0.000 HD
ENDBRANCH   1  13
TORSDOF 2
ENDMDL
MODEL 6
REMARK VINA RESULT:      -6.1      2.775      4.598
REMARK  Name = 
REMARK  2 active torsions:
REMARK  status: ('A' for Active; 'I' for Inactive)
REMARK    1  A    between atoms: C_2  and  C_4
REMARK    2  A    between atoms: C_8  and  C_9
REMARK                            x       y       z     vdW  Elec       q    Type
REMARK                         _______ _______ _______ _____ _____    ______ ____
ROOT
ATOM      1  C   UNL     1       4.273   5.461  17.745  0.00  0.00    +0.000 A 
ATOM      2  S   UNL     1       4.705   6.953  16.988  0.00  0.00    +0.000 S 
ATOM      3  C   UNL     1       3.298   7.679  17.625  0.00  0.00    +0.000 A 
ATOM      4  N   UNL     1       2.543   6.913  18.375  0.00  0.00    +0.000 NA
ATOM      5  C   UNL     1       3.103   5.640  18.475  0.00  0.00    +0.000 A 
ENDROOT
BRANCH   5   6
ATOM      6  C   UNL     1       2.455   4.649  19.335  0.00  0.00    +0.000 A 
ATOM      7  C   UNL     1       1.487   3.792  18.788  0.00  0.00    +0.000 A 
ATOM      8  C   UNL     1       0.812   2.868  19.591  0.00  0.00    +0.000 A 
ATOM      9  C   UNL     1       1.093   2.793  20.954  0.00  0.00    +0.000 A 
ATOM     10  C   UNL     1       2.042   3.644  21.513  0.00  0.00    +0.000 A 
ATOM     11  C   UNL     1       2.708   4.574  20.711  0.00  0.00    +0.000 A 
ENDBRANCH   5   6
BRANCH   1  13
ATOM     12  N   UNL     1       5.928   3.927  18.541  0.00  0.00    +0.000 N 
ATOM     13  C   UNL     1       5.078   4.278  17.526  0.00  0.00    +0.000 C 
ATOM     14  O   UNL     1       5.036   3.564  16.529  0.00  0.00    +0.000 OA
ATOM     15  H   UNL     1       6.471   3.083  18.426  0.00  0.00    +0.000 HD
ATOM     16  H   UNL     1       5.982   4.445  19.406  0.00  0.00    +0.000 HD
ENDBRANCH   1  13
TORSDOF 2
ENDMDL
MODEL 7
REMARK VINA RESULT:      -6.1      1.426      1.692
REMARK  Name = 
REMARK  2 active torsions:
REMARK  status: ('A' for Active; 'I' for Inactive)
REMARK    1  A    between atoms: C_2  and  C_4
REMARK    2  A    between atoms: C_8  and  C_9
REMARK                            x       y       z     vdW  Elec       q    Type
REMARK                         _______ _______ _______ _____ _____    ______ ____
ROOT
ATOM      1  C   UNL     1       3.297   2.884  18.650  0.00  0.00    +0.000 A 
ATOM      2  S   UNL     1       1.591   2.678  18.469  0.00  0.00    +0.000 S 
ATOM      3  C   UNL     1       1.462   4.279  17.894  0.00  0.00    +0.000 A 
ATOM      4  N   UNL     1       2.584   4.951  17.801  0.00  0.00    +0.000 NA
ATOM      5  C   UNL     1       3.654   4.154  18.209  0.00  0.00    +0.000 A 
ENDROOT
BRANCH   5   6
ATOM      6  C   UNL     1       5.012   4.689  18.108  0.00  0.00    +0.000 A 
ATOM      7  C   UNL     1       5.697   4.599  16.886  0.00  0.00    +0.000 A 
ATOM      8  C   UNL     1       7.013   5.054  16.768  0.00  0.00    +0.000 A 
ATOM      9  C   UNL     1       7.664   5.601  17.872  0.00  0.00    +0.000 A 
ATOM     10  C   UNL     1       7.002   5.686  19.093  0.00  0.00    +0.000 A 
ATOM     11  C   UNL     1       5.690   5.221  19.212  0.00  0.00    +0.000 A 
ENDBRANCH   5   6
BRANCH   1  13
ATOM     12  N   UNL     1       4.116   0.638  18.545  0.00  0.00    +0.000 N 
ATOM     13  C   UNL     1       4.097   1.825  19.228  0.00  0.00    +0.000 C 
ATOM     14  O   UNL     1       4.770   1.920  20.250  0.00  0.00    +0.000 OA
ATOM     15  H   UNL     1       4.699  -0.102  18.909  0.00  0.00    +0.000 HD
ATOM     16  H   UNL     1       3.620   0.506  17.676  0.00  0.00    +0.000 HD
ENDBRANCH   1  13
TORSDOF 2
ENDMDL
MODEL 8
REMARK VINA RESULT:      -6.1      1.063      1.634
REMARK  Name = 
REMARK  2 active torsions:
REMARK  status: ('A' for Active; 'I' for Inactive)
REMARK    1  A    between atoms: C_2  and  C_4
REMARK    2  A    between atoms: C_8  and  C_9
REMARK                            x       y       z     vdW  Elec       q    Type
REMARK                         _______ _______ _______ _____ _____    ______ ____
ROOT
ATOM      1  C   UNL     1       3.317   2.979  18.772  0.00  0.00    +0.000 A 
ATOM      2  S   UNL     1       1.673   3.134  19.281  0.00  0.00    +0.000 S 
ATOM      3  C   UNL     1       1.551   4.606  18.428  0.00  0.00    +0.000 A 
ATOM      4  N   UNL     1       2.623   4.984  17.773  0.00  0.00    +0.000 NA
ATOM      5  C   UNL     1       3.642   4.045  17.941  0.00  0.00    +0.000 A 
ENDROOT
BRANCH   5   6
ATOM      6  C   UNL     1       4.904   4.238  17.226  0.00  0.00    +0.000 A 
ATOM      7  C   UNL     1       6.054   4.594  17.947  0.00  0.00    +0.000 A 
ATOM      8  C   UNL     1       7.264   4.835  17.290  0.00  0.00    +0.000 A 
ATOM      9  C   UNL     1       7.339   4.727  15.903  0.00  0.00    +0.000 A 
ATOM     10  C   UNL     1       6.204   4.386  15.173  0.00  0.00    +0.000 A 
ATOM     11  C   UNL     1       4.992   4.155  15.830  0.00  0.00    +0.000 A 
ENDBRANCH   5   6
BRANCH   1  13
ATOM     12  N   UNL     1       4.079   0.725  18.516  0.00  0.00    +0.000 N 
ATOM     13  C   UNL     1       4.124   1.878  19.254  0.00  0.00    +0.000 C 
ATOM     14  O   UNL     1       4.854   1.909  20.241  0.00  0.00    +0.000 OA
ATOM     15  H   UNL     1       4.664  -0.043  18.812  0.00  0.00    +0.000 HD
ATOM     16  H   UNL     1       3.534   0.645  17.670  0.00  0.00    +0.000 HD
ENDBRANCH   1  13
TORSDOF 2
ENDMDL
MODEL 9
REMARK VINA RESULT:      -6.1      3.059      4.663
REMARK  Name = 
REMARK  2 active torsions:
REMARK  status: ('A' for Active; 'I' for Inactive)
REMARK    1  A    between atoms: C_2  and  C_4
REMARK    2  A    between atoms: C_8  and  C_9
REMARK                            x       y       z     vdW  Elec       q    Type
REMARK                         _______ _______ _______ _____ _____    ______ ____
ROOT
ATOM      1  C   UNL     1       5.894   5.353  17.232  0.00  0.00    +0.000 A 
ATOM      2  S   UNL     1       7.401   6.013  17.761  0.00  0.00    +0.000 S 
ATOM      3  C   UNL     1       7.024   5.577  19.367  0.00  0.00    +0.000 A 
ATOM      4  N   UNL     1       5.881   4.959  19.544  0.00  0.00    +0.000 NA
ATOM      5  C   UNL     1       5.229   4.800  18.321  0.00  0.00    +0.000 A 
ENDROOT
BRANCH   5   6
ATOM      6  C   UNL     1       3.966   4.062  18.285  0.00  0.00    +0.000 A 
ATOM      7  C   UNL     1       2.765   4.763  18.095  0.00  0.00    +0.000 A 
ATOM      8  C   UNL     1       1.537   4.095  18.106  0.00  0.00    +0.000 A 
ATOM      9  C   UNL     1       1.493   2.718  18.312  0.00  0.00    +0.000 A 
ATOM     10  C   UNL     1       2.675   2.011  18.513  0.00  0.00    +0.000 A 
ATOM     11  C   UNL     1       3.901   2.681  18.513  0.00  0.00    +0.000 A 
ENDBRANCH   5   6
BRANCH   1  13
ATOM     12  N   UNL     1       5.239   6.738  15.394  0.00  0.00    +0.000 N 
ATOM     13  C   UNL     1       5.498   5.471  15.844  0.00  0.00    +0.000 C 
ATOM     14  O   UNL     1       5.406   4.541  15.049  0.00  0.00    +0.000 OA
ATOM     15  H   UNL     1       5.000   6.849  14.419  0.00  0.00    +0.000 HD
ATOM     16  H   UNL     1       5.337   7.553  15.983  0.00  0.00    +0.000 HD
ENDBRANCH   1  13
TORSDOF 2
ENDMDL
