MODEL 1
REMARK VINA RESULT:      -6.1      0.000      0.000
REMARK  Name = 
REMARK  8 active torsions:
REMARK  status: ('A' for Active; 'I' for Inactive)
REMARK    1  A    between atoms: N_4  and  C_5
REMARK    2  A    between atoms: C_5  and  C_6
REMARK    3  A    between atoms: C_5  and  C_7
REMARK    4  A    between atoms: C_5  and  C_8
REMARK    5  A    between atoms: C_18  and  C_19
REMARK    6  A    between atoms: C_18  and  C_23
REMARK    7  A    between atoms: C_19  and  O_21
REMARK    8  A    between atoms: O_21  and  C_22
REMARK                            x       y       z     vdW  Elec       q    Type
REMARK                         _______ _______ _______ _____ _____    ______ ____
ROOT
ATOM      1  C   UNL     1      -0.533  10.059  22.079  0.00  0.00    +0.000 C 
ATOM      2  C   UNL     1      -0.901  11.347  21.969  0.00  0.00    +0.000 C 
ATOM      3  C   UNL     1      -1.522  12.069  23.118  0.00  0.00    +0.000 C 
ATOM      4  N   UNL     1      -2.353  13.048  22.477  0.00  0.00    +0.000 N 
ATOM      5  C   UNL     1      -1.880  13.343  21.199  0.00  0.00    +0.000 C 
ATOM      6  O   UNL     1      -2.233  14.300  20.518  0.00  0.00    +0.000 OA
ATOM      7  C   UNL     1      -0.881  12.262  20.729  0.00  0.00    +0.000 C 
ENDROOT
BRANCH   7   8
ATOM      8  C   UNL     1      -1.369  11.539  19.454  0.00  0.00    +0.000 A 
ATOM      9  C   UNL     1      -2.671  11.698  18.937  0.00  0.00    +0.000 A 
ATOM     10  C   UNL     1      -3.095  11.001  17.803  0.00  0.00    +0.000 A 
ATOM     11  C   UNL     1      -2.238  10.113  17.164  0.00  0.00    +0.000 A 
ATOM     12  C   UNL     1      -0.944   9.943  17.648  0.00  0.00    +0.000 A 
ATOM     13  C   UNL     1      -0.518  10.664  18.763  0.00  0.00    +0.000 A 
ATOM     14  F   UNL     1       0.744  10.486  19.178  0.00  0.00    +0.000 F 
ENDBRANCH   7   8
BRANCH   4  15
ATOM     15  C   UNL     1      -3.598  13.576  23.127  0.00  0.00    +0.000 C 
ATOM     16  C   UNL     1      -3.971  12.687  24.342  0.00  0.00    +0.000 C 
ATOM     17  C   UNL     1      -3.378  15.004  23.685  0.00  0.00    +0.000 C 
BRANCH  15  18
ATOM     18  C   UNL     1      -4.795  13.600  22.136  0.00  0.00    +0.000 A 
ATOM     19  C   UNL     1      -5.269  12.450  21.479  0.00  0.00    +0.000 A 
ATOM     20  C   UNL     1      -6.346  12.506  20.583  0.00  0.00    +0.000 A 
ATOM     21 CL   UNL     1      -6.878  11.065  19.806  0.00  0.00    +0.000 Cl
ATOM     22  C   UNL     1      -6.991  13.704  20.316  0.00  0.00    +0.000 A 
ATOM     23  C   UNL     1      -6.551  14.853  20.958  0.00  0.00    +0.000 A 
ATOM     24 CL   UNL     1      -7.341  16.352  20.651  0.00  0.00    +0.000 Cl
ATOM     25  C   UNL     1      -5.475  14.810  21.852  0.00  0.00    +0.000 A 
ENDBRANCH  15  18
ENDBRANCH   4  15
BRANCH   7  26
ATOM     26  C   UNL     1       0.493  12.943  20.585  0.00  0.00    +0.000 C 
ATOM     27  O   UNL     1       1.382  12.896  21.432  0.00  0.00    +0.000 OA
BRANCH  26  28
ATOM     28  O   UNL     1       0.590  13.672  19.433  0.00  0.00    +0.000 OA
ATOM     29  C   UNL     1       1.201  14.954  19.591  0.00  0.00    +0.000 C 
ENDBRANCH  26  28
ENDBRANCH   7  26
TORSDOF 5
ENDMDL
MODEL 2
REMARK VINA RESULT:      -6.1      3.044      5.508
REMARK  Name = 
REMARK  8 active torsions:
REMARK  status: ('A' for Active; 'I' for Inactive)
REMARK    1  A    between atoms: N_4  and  C_5
REMARK    2  A    between atoms: C_5  and  C_6
REMARK    3  A    between atoms: C_5  and  C_7
REMARK    4  A    between atoms: C_5  and  C_8
REMARK    5  A    between atoms: C_18  and  C_19
REMARK    6  A    between atoms: C_18  and  C_23
REMARK    7  A    between atoms: C_19  and  O_21
REMARK    8  A    between atoms: O_21  and  C_22
REMARK                            x       y       z     vdW  Elec       q    Type
REMARK                         _______ _______ _______ _____ _____    ______ ____
ROOT
ATOM      1  C   UNL     1      -0.159  15.331  19.056  0.00  0.00    +0.000 C 
ATOM      2  C   UNL     1       0.391  14.155  19.408  0.00  0.00    +0.000 C 
ATOM      3  C   UNL     1       0.346  12.981  18.489  0.00  0.00    +0.000 C 
ATOM      4  N   UNL     1       0.358  11.862  19.388  0.00  0.00    +0.000 N 
ATOM      5  C   UNL     1       0.948  12.208  20.604  0.00  0.00    +0.000 C 
ATOM      6  O   UNL     1       1.313  11.413  21.463  0.00  0.00    +0.000 OA
ATOM      7  C   UNL     1       1.031  13.744  20.748  0.00  0.00    +0.000 C 
ENDROOT
BRANCH   7   8
ATOM      8  C   UNL     1       0.230  14.254  21.966  0.00  0.00    +0.000 A 
ATOM      9  C   UNL     1      -0.730  13.466  22.634  0.00  0.00    +0.000 A 
ATOM     10  C   UNL     1      -1.466  13.969  23.710  0.00  0.00    +0.000 A 
ATOM     11  C   UNL     1      -1.277  15.278  24.138  0.00  0.00    +0.000 A 
ATOM     12  C   UNL     1      -0.330  16.076  23.503  0.00  0.00    +0.000 A 
ATOM     13  C   UNL     1       0.421  15.558  22.449  0.00  0.00    +0.000 A 
ATOM     14  F   UNL     1       1.339  16.354  21.883  0.00  0.00    +0.000 F 
ENDBRANCH   7   8
BRANCH   4  15
ATOM     15  C   UNL     1      -0.274  10.550  19.028  0.00  0.00    +0.000 C 
ATOM     16  C   UNL     1       0.713   9.713  18.172  0.00  0.00    +0.000 C 
ATOM     17  C   UNL     1      -0.576   9.706  20.291  0.00  0.00    +0.000 C 
BRANCH  15  18
ATOM     18  C   UNL     1      -1.590  10.749  18.226  0.00  0.00    +0.000 A 
ATOM     19  C   UNL     1      -1.752  10.315  16.898  0.00  0.00    +0.000 A 
ATOM     20  C   UNL     1      -2.950  10.518  16.199  0.00  0.00    +0.000 A 
ATOM     21 CL   UNL     1      -3.086   9.969  14.573  0.00  0.00    +0.000 Cl
ATOM     22  C   UNL     1      -4.027  11.153  16.798  0.00  0.00    +0.000 A 
ATOM     23  C   UNL     1      -3.899  11.583  18.111  0.00  0.00    +0.000 A 
ATOM     24 CL   UNL     1      -5.226  12.365  18.882  0.00  0.00    +0.000 Cl
ATOM     25  C   UNL     1      -2.707  11.389  18.818  0.00  0.00    +0.000 A 
ENDBRANCH  15  18
ENDBRANCH   4  15
BRANCH   7  26
ATOM     26  C   UNL     1       2.524  14.119  20.769  0.00  0.00    +0.000 C 
ATOM     27  O   UNL     1       3.278  13.908  21.716  0.00  0.00    +0.000 OA
BRANCH  26  28
ATOM     28  O   UNL     1       2.906  14.783  19.637  0.00  0.00    +0.000 OA
ATOM     29  C   UNL     1       3.918  15.771  19.841  0.00  0.00    +0.000 C 
ENDBRANCH  26  28
ENDBRANCH   7  26
TORSDOF 5
ENDMDL
MODEL 3
REMARK VINA RESULT:      -6.1      3.050      5.670
REMARK  Name = 
REMARK  8 active torsions:
REMARK  status: ('A' for Active; 'I' for Inactive)
REMARK    1  A    between atoms: N_4  and  C_5
REMARK    2  A    between atoms: C_5  and  C_6
REMARK    3  A    between atoms: C_5  and  C_7
REMARK    4  A    between atoms: C_5  and  C_8
REMARK    5  A    between atoms: C_18  and  C_19
REMARK    6  A    between atoms: C_18  and  C_23
REMARK    7  A    between atoms: C_19  and  O_21
REMARK    8  A    between atoms: O_21  and  C_22
REMARK                            x       y       z     vdW  Elec       q    Type
REMARK                         _______ _______ _______ _____ _____    ______ ____
ROOT
ATOM      1  C   UNL     1      -0.058  15.346  19.017  0.00  0.00    +0.000 C 
ATOM      2  C   UNL     1       0.469  14.164  19.381  0.00  0.00    +0.000 C 
ATOM      3  C   UNL     1       0.411  12.984  18.470  0.00  0.00    +0.000 C 
ATOM      4  N   UNL     1       0.397  11.872  19.376  0.00  0.00    +0.000 N 
ATOM      5  C   UNL     1       0.983  12.215  20.595  0.00  0.00    +0.000 C 
ATOM      6  O   UNL     1       1.328  11.420  21.462  0.00  0.00    +0.000 OA
ATOM      7  C   UNL     1       1.091  13.751  20.729  0.00  0.00    +0.000 C 
ENDROOT
BRANCH   7   8
ATOM      8  C   UNL     1       0.290  14.283  21.937  0.00  0.00    +0.000 A 
ATOM      9  C   UNL     1      -0.691  13.518  22.600  0.00  0.00    +0.000 A 
ATOM     10  C   UNL     1      -1.426  14.041  23.667  0.00  0.00    +0.000 A 
ATOM     11  C   UNL     1      -1.214  15.348  24.090  0.00  0.00    +0.000 A 
ATOM     12  C   UNL     1      -0.246  16.124  23.460  0.00  0.00    +0.000 A 
ATOM     13  C   UNL     1       0.504  15.585  22.415  0.00  0.00    +0.000 A 
ATOM     14  F   UNL     1       1.443  16.360  21.853  0.00  0.00    +0.000 F 
ENDBRANCH   7   8
BRANCH   4  15
ATOM     15  C   UNL     1      -0.255  10.568  19.021  0.00  0.00    +0.000 C 
ATOM     16  C   UNL     1       0.699   9.735  18.124  0.00  0.00    +0.000 C 
ATOM     17  C   UNL     1      -0.524   9.711  20.282  0.00  0.00    +0.000 C 
BRANCH  15  18
ATOM     18  C   UNL     1      -1.594  10.785  18.263  0.00  0.00    +0.000 A 
ATOM     19  C   UNL     1      -2.706  11.424  18.840  0.00  0.00    +0.000 A 
ATOM     20  C   UNL     1      -3.904  11.596  18.132  0.00  0.00    +0.000 A 
ATOM     21 CL   UNL     1      -5.234  12.382  18.893  0.00  0.00    +0.000 Cl
ATOM     22  C   UNL     1      -4.034  11.146  16.827  0.00  0.00    +0.000 A 
ATOM     23  C   UNL     1      -2.949  10.522  16.229  0.00  0.00    +0.000 A 
ATOM     24 CL   UNL     1      -3.080   9.962  14.606  0.00  0.00    +0.000 Cl
ATOM     25  C   UNL     1      -1.749  10.341  16.926  0.00  0.00    +0.000 A 
ENDBRANCH  15  18
ENDBRANCH   4  15
BRANCH   7  26
ATOM     26  C   UNL     1       2.591  14.100  20.758  0.00  0.00    +0.000 C 
ATOM     27  O   UNL     1       3.355  13.798  21.672  0.00  0.00    +0.000 OA
BRANCH  26  28
ATOM     28  O   UNL     1       2.968  14.852  19.681  0.00  0.00    +0.000 OA
ATOM     29  C   UNL     1       4.318  15.317  19.724  0.00  0.00    +0.000 C 
ENDBRANCH  26  28
ENDBRANCH   7  26
TORSDOF 5
ENDMDL
MODEL 4
REMARK VINA RESULT:      -6.0      1.284      2.204
REMARK  Name = 
REMARK  8 active torsions:
REMARK  status: ('A' for Active; 'I' for Inactive)
REMARK    1  A    between atoms: N_4  and  C_5
REMARK    2  A    between atoms: C_5  and  C_6
REMARK    3  A    between atoms: C_5  and  C_7
REMARK    4  A    between atoms: C_5  and  C_8
REMARK    5  A    between atoms: C_18  and  C_19
REMARK    6  A    between atoms: C_18  and  C_23
REMARK    7  A    between atoms: C_19  and  O_21
REMARK    8  A    between atoms: O_21  and  C_22
REMARK                            x       y       z     vdW  Elec       q    Type
REMARK                         _______ _______ _______ _____ _____    ______ ____
ROOT
ATOM      1  C   UNL     1      -1.336  10.828  23.067  0.00  0.00    +0.000 C 
ATOM      2  C   UNL     1      -1.867  12.005  22.693  0.00  0.00    +0.000 C 
ATOM      3  C   UNL     1      -2.944  12.652  23.498  0.00  0.00    +0.000 C 
ATOM      4  N   UNL     1      -3.678  13.401  22.519  0.00  0.00    +0.000 N 
ATOM      5  C   UNL     1      -2.872  13.710  21.422  0.00  0.00    +0.000 C 
ATOM      6  O   UNL     1      -3.145  14.533  20.555  0.00  0.00    +0.000 OA
ATOM      7  C   UNL     1      -1.603  12.829  21.418  0.00  0.00    +0.000 C 
ENDROOT
BRANCH   7   8
ATOM      8  C   UNL     1      -1.516  11.948  20.153  0.00  0.00    +0.000 A 
ATOM      9  C   UNL     1      -2.585  11.806  19.246  0.00  0.00    +0.000 A 
ATOM     10  C   UNL     1      -2.488  10.971  18.129  0.00  0.00    +0.000 A 
ATOM     11  C   UNL     1      -1.328  10.242  17.898  0.00  0.00    +0.000 A 
ATOM     12  C   UNL     1      -0.254  10.369  18.772  0.00  0.00    +0.000 A 
ATOM     13  C   UNL     1      -0.347  11.226  19.868  0.00  0.00    +0.000 A 
ATOM     14  F   UNL     1       0.722  11.337  20.669  0.00  0.00    +0.000 F 
ENDBRANCH   7   8
BRANCH   4  15
ATOM     15  C   UNL     1      -5.138  13.702  22.684  0.00  0.00    +0.000 C 
ATOM     16  C   UNL     1      -5.686  12.964  23.933  0.00  0.00    +0.000 C 
ATOM     17  C   UNL     1      -5.376  15.212  22.933  0.00  0.00    +0.000 C 
BRANCH  15  18
ATOM     18  C   UNL     1      -5.958  13.260  21.440  0.00  0.00    +0.000 A 
ATOM     19  C   UNL     1      -6.512  14.172  20.523  0.00  0.00    +0.000 A 
ATOM     20  C   UNL     1      -7.256  13.741  19.416  0.00  0.00    +0.000 A 
ATOM     21 CL   UNL     1      -7.913  14.905  18.331  0.00  0.00    +0.000 Cl
ATOM     22  C   UNL     1      -7.467  12.391  19.179  0.00  0.00    +0.000 A 
ATOM     23  C   UNL     1      -6.923  11.469  20.061  0.00  0.00    +0.000 A 
ATOM     24 CL   UNL     1      -7.163   9.786  19.784  0.00  0.00    +0.000 Cl
ATOM     25  C   UNL     1      -6.182  11.887  21.172  0.00  0.00    +0.000 A 
ENDBRANCH  15  18
ENDBRANCH   4  15
BRANCH   7  26
ATOM     26  C   UNL     1      -0.398  13.767  21.623  0.00  0.00    +0.000 C 
ATOM     27  O   UNL     1       0.167  13.944  22.699  0.00  0.00    +0.000 OA
BRANCH  26  28
ATOM     28  O   UNL     1      -0.068  14.441  20.480  0.00  0.00    +0.000 OA
ATOM     29  C   UNL     1       0.361  15.788  20.689  0.00  0.00    +0.000 C 
ENDBRANCH  26  28
ENDBRANCH   7  26
TORSDOF 5
ENDMDL
MODEL 5
REMARK VINA RESULT:      -6.0      0.570      1.710
REMARK  Name = 
REMARK  8 active torsions:
REMARK  status: ('A' for Active; 'I' for Inactive)
REMARK    1  A    between atoms: N_4  and  C_5
REMARK    2  A    between atoms: C_5  and  C_6
REMARK    3  A    between atoms: C_5  and  C_7
REMARK    4  A    between atoms: C_5  and  C_8
REMARK    5  A    between atoms: C_18  and  C_19
REMARK    6  A    between atoms: C_18  and  C_23
REMARK    7  A    between atoms: C_19  and  O_21
REMARK    8  A    between atoms: O_21  and  C_22
REMARK                            x       y       z     vdW  Elec       q    Type
REMARK                         _______ _______ _______ _____ _____    ______ ____
ROOT
ATOM      1  C   UNL     1      -0.561  10.449  22.349  0.00  0.00    +0.000 C 
ATOM      2  C   UNL     1      -0.891  11.728  22.097  0.00  0.00    +0.000 C 
ATOM      3  C   UNL     1      -1.570  12.564  23.129  0.00  0.00    +0.000 C 
ATOM      4  N   UNL     1      -2.334  13.493  22.346  0.00  0.00    +0.000 N 
ATOM      5  C   UNL     1      -1.769  13.659  21.081  0.00  0.00    +0.000 C 
ATOM      6  O   UNL     1      -2.053  14.555  20.293  0.00  0.00    +0.000 OA
ATOM      7  C   UNL     1      -0.767  12.522  20.782  0.00  0.00    +0.000 C 
ENDROOT
BRANCH   7   8
ATOM      8  C   UNL     1      -1.185  11.692  19.549  0.00  0.00    +0.000 A 
ATOM      9  C   UNL     1      -2.467  11.780  18.969  0.00  0.00    +0.000 A 
ATOM     10  C   UNL     1      -2.828  10.988  17.875  0.00  0.00    +0.000 A 
ATOM     11  C   UNL     1      -1.926  10.075  17.342  0.00  0.00    +0.000 A 
ATOM     12  C   UNL     1      -0.651   9.974  17.890  0.00  0.00    +0.000 A 
ATOM     13  C   UNL     1      -0.288  10.788  18.962  0.00  0.00    +0.000 A 
ATOM     14  F   UNL     1       0.959  10.673  19.441  0.00  0.00    +0.000 F 
ENDBRANCH   7   8
BRANCH   4  15
ATOM     15  C   UNL     1      -3.607  14.100  22.857  0.00  0.00    +0.000 C 
ATOM     16  C   UNL     1      -3.997  13.438  24.205  0.00  0.00    +0.000 C 
ATOM     17  C   UNL     1      -3.430  15.611  23.151  0.00  0.00    +0.000 C 
BRANCH  15  18
ATOM     18  C   UNL     1      -4.775  13.915  21.850  0.00  0.00    +0.000 A 
ATOM     19  C   UNL     1      -5.345  14.982  21.132  0.00  0.00    +0.000 A 
ATOM     20  C   UNL     1      -6.405  14.783  20.237  0.00  0.00    +0.000 A 
ATOM     21 CL   UNL     1      -7.065  16.129  19.390  0.00  0.00    +0.000 Cl
ATOM     22  C   UNL     1      -6.929  13.517  20.020  0.00  0.00    +0.000 A 
ATOM     23  C   UNL     1      -6.379  12.444  20.707  0.00  0.00    +0.000 A 
ATOM     24 CL   UNL     1      -7.004  10.860  20.449  0.00  0.00    +0.000 Cl
ATOM     25  C   UNL     1      -5.322  12.631  21.606  0.00  0.00    +0.000 A 
ENDBRANCH  15  18
ENDBRANCH   4  15
BRANCH   7  26
ATOM     26  C   UNL     1       0.629  13.164  20.671  0.00  0.00    +0.000 C 
ATOM     27  O   UNL     1       1.463  13.169  21.574  0.00  0.00    +0.000 OA
BRANCH  26  28
ATOM     28  O   UNL     1       0.814  13.794  19.473  0.00  0.00    +0.000 OA
ATOM     29  C   UNL     1       2.180  14.055  19.144  0.00  0.00    +0.000 C 
ENDBRANCH  26  28
ENDBRANCH   7  26
TORSDOF 5
ENDMDL
MODEL 6
REMARK VINA RESULT:      -5.9      1.308      1.490
REMARK  Name = 
REMARK  8 active torsions:
REMARK  status: ('A' for Active; 'I' for Inactive)
REMARK    1  A    between atoms: N_4  and  C_5
REMARK    2  A    between atoms: C_5  and  C_6
REMARK    3  A    between atoms: C_5  and  C_7
REMARK    4  A    between atoms: C_5  and  C_8
REMARK    5  A    between atoms: C_18  and  C_19
REMARK    6  A    between atoms: C_18  and  C_23
REMARK    7  A    between atoms: C_19  and  O_21
REMARK    8  A    between atoms: O_21  and  C_22
REMARK                            x       y       z     vdW  Elec       q    Type
REMARK                         _______ _______ _______ _____ _____    ______ ____
ROOT
ATOM      1  C   UNL     1      -0.492  10.396  22.268  0.00  0.00    +0.000 C 
ATOM      2  C   UNL     1      -0.651  11.698  21.973  0.00  0.00    +0.000 C 
ATOM      3  C   UNL     1      -1.222  12.649  22.971  0.00  0.00    +0.000 C 
ATOM      4  N   UNL     1      -1.852  13.643  22.151  0.00  0.00    +0.000 N 
ATOM      5  C   UNL     1      -1.263  13.694  20.888  0.00  0.00    +0.000 C 
ATOM      6  O   UNL     1      -1.423  14.592  20.069  0.00  0.00    +0.000 OA
ATOM      7  C   UNL     1      -0.416  12.427  20.635  0.00  0.00    +0.000 C 
ENDROOT
BRANCH   7   8
ATOM      8  C   UNL     1      -0.931  11.619  19.424  0.00  0.00    +0.000 A 
ATOM      9  C   UNL     1      -2.198  11.836  18.844  0.00  0.00    +0.000 A 
ATOM     10  C   UNL     1      -2.652  11.064  17.772  0.00  0.00    +0.000 A 
ATOM     11  C   UNL     1      -1.861  10.041  17.261  0.00  0.00    +0.000 A 
ATOM     12  C   UNL     1      -0.603   9.809  17.809  0.00  0.00    +0.000 A 
ATOM     13  C   UNL     1      -0.145  10.604  18.859  0.00  0.00    +0.000 A 
ATOM     14  F   UNL     1       1.083  10.361  19.338  0.00  0.00    +0.000 F 
ENDBRANCH   7   8
BRANCH   4  15
ATOM     15  C   UNL     1      -3.038  14.428  22.630  0.00  0.00    +0.000 C 
ATOM     16  C   UNL     1      -3.072  14.429  24.181  0.00  0.00    +0.000 C 
ATOM     17  C   UNL     1      -2.942  15.912  22.197  0.00  0.00    +0.000 C 
BRANCH  15  18
ATOM     18  C   UNL     1      -4.371  13.831  22.099  0.00  0.00    +0.000 A 
ATOM     19  C   UNL     1      -5.353  13.278  22.942  0.00  0.00    +0.000 A 
ATOM     20  C   UNL     1      -6.542  12.739  22.431  0.00  0.00    +0.000 A 
ATOM     21 CL   UNL     1      -7.703  12.072  23.511  0.00  0.00    +0.000 Cl
ATOM     22  C   UNL     1      -6.797  12.738  21.068  0.00  0.00    +0.000 A 
ATOM     23  C   UNL     1      -5.852  13.287  20.214  0.00  0.00    +0.000 A 
ATOM     24 CL   UNL     1      -6.149  13.307  18.518  0.00  0.00    +0.000 Cl
ATOM     25  C   UNL     1      -4.659  13.825  20.712  0.00  0.00    +0.000 A 
ENDBRANCH  15  18
ENDBRANCH   4  15
BRANCH   7  26
ATOM     26  C   UNL     1       1.053  12.877  20.518  0.00  0.00    +0.000 C 
ATOM     27  O   UNL     1       1.906  12.687  21.382  0.00  0.00    +0.000 OA
BRANCH  26  28
ATOM     28  O   UNL     1       1.288  13.580  19.370  0.00  0.00    +0.000 OA
ATOM     29  C   UNL     1       2.566  13.340  18.778  0.00  0.00    +0.000 C 
ENDBRANCH  26  28
ENDBRANCH   7  26
TORSDOF 5
ENDMDL
MODEL 7
REMARK VINA RESULT:      -5.9      4.135      6.137
REMARK  Name = 
REMARK  8 active torsions:
REMARK  status: ('A' for Active; 'I' for Inactive)
REMARK    1  A    between atoms: N_4  and  C_5
REMARK    2  A    between atoms: C_5  and  C_6
REMARK    3  A    between atoms: C_5  and  C_7
REMARK    4  A    between atoms: C_5  and  C_8
REMARK    5  A    between atoms: C_18  and  C_19
REMARK    6  A    between atoms: C_18  and  C_23
REMARK    7  A    between atoms: C_19  and  O_21
REMARK    8  A    between atoms: O_21  and  C_22
REMARK                            x       y       z     vdW  Elec       q    Type
REMARK                         _______ _______ _______ _____ _____    ______ ____
ROOT
ATOM      1  C   UNL     1      -0.626  10.166  21.453  0.00  0.00    +0.000 C 
ATOM      2  C   UNL     1       0.063  11.014  20.669  0.00  0.00    +0.000 C 
ATOM      3  C   UNL     1       0.812  12.164  21.254  0.00  0.00    +0.000 C 
ATOM      4  N   UNL     1       0.792  13.137  20.199  0.00  0.00    +0.000 N 
ATOM      5  C   UNL     1       0.638  12.521  18.957  0.00  0.00    +0.000 C 
ATOM      6  O   UNL     1       0.825  13.062  17.873  0.00  0.00    +0.000 OA
ATOM      7  C   UNL     1       0.143  11.068  19.131  0.00  0.00    +0.000 C 
ENDROOT
BRANCH   7   8
ATOM      8  C   UNL     1      -1.230  10.841  18.460  0.00  0.00    +0.000 A 
ATOM      9  C   UNL     1      -1.436   9.877  17.453  0.00  0.00    +0.000 A 
ATOM     10  C   UNL     1      -2.682   9.720  16.838  0.00  0.00    +0.000 A 
ATOM     11  C   UNL     1      -3.749  10.533  17.199  0.00  0.00    +0.000 A 
ATOM     12  C   UNL     1      -3.575  11.488  18.196  0.00  0.00    +0.000 A 
ATOM     13  C   UNL     1      -2.338  11.619  18.826  0.00  0.00    +0.000 A 
ATOM     14  F   UNL     1      -2.224  12.534  19.799  0.00  0.00    +0.000 F 
ENDBRANCH   7   8
BRANCH   4  15
ATOM     15  C   UNL     1       0.849  14.610  20.480  0.00  0.00    +0.000 C 
ATOM     16  C   UNL     1      -0.580  15.209  20.420  0.00  0.00    +0.000 C 
ATOM     17  C   UNL     1       1.377  14.890  21.909  0.00  0.00    +0.000 C 
BRANCH  15  18
ATOM     18  C   UNL     1       1.749  15.353  19.454  0.00  0.00    +0.000 A 
ATOM     19  C   UNL     1       3.114  15.064  19.280  0.00  0.00    +0.000 A 
ATOM     20  C   UNL     1       3.902  15.760  18.353  0.00  0.00    +0.000 A 
ATOM     21 CL   UNL     1       5.569  15.364  18.189  0.00  0.00    +0.000 Cl
ATOM     22  C   UNL     1       3.357  16.761  17.562  0.00  0.00    +0.000 A 
ATOM     23  C   UNL     1       2.010  17.060  17.705  0.00  0.00    +0.000 A 
ATOM     24 CL   UNL     1       1.306  18.292  16.729  0.00  0.00    +0.000 Cl
ATOM     25  C   UNL     1       1.214  16.375  18.630  0.00  0.00    +0.000 A 
ENDBRANCH  15  18
ENDBRANCH   4  15
BRANCH   7  26
ATOM     26  C   UNL     1       1.261  10.142  18.618  0.00  0.00    +0.000 C 
ATOM     27  O   UNL     1       1.927  10.354  17.607  0.00  0.00    +0.000 OA
BRANCH  26  28
ATOM     28  O   UNL     1       1.387   9.013  19.377  0.00  0.00    +0.000 OA
ATOM     29  C   UNL     1       2.187   7.987  18.787  0.00  0.00    +0.000 C 
ENDBRANCH  26  28
ENDBRANCH   7  26
TORSDOF 5
ENDMDL
MODEL 8
REMARK VINA RESULT:      -5.9      2.802      5.578
REMARK  Name = 
REMARK  8 active torsions:
REMARK  status: ('A' for Active; 'I' for Inactive)
REMARK    1  A    between atoms: N_4  and  C_5
REMARK    2  A    between atoms: C_5  and  C_6
REMARK    3  A    between atoms: C_5  and  C_7
REMARK    4  A    between atoms: C_5  and  C_8
REMARK    5  A    between atoms: C_18  and  C_19
REMARK    6  A    between atoms: C_18  and  C_23
REMARK    7  A    between atoms: C_19  and  O_21
REMARK    8  A    between atoms: O_21  and  C_22
REMARK                            x       y       z     vdW  Elec       q    Type
REMARK                         _______ _______ _______ _____ _____    ______ ____
ROOT
ATOM      1  C   UNL     1      -0.202  15.430  18.976  0.00  0.00    +0.000 C 
ATOM      2  C   UNL     1       0.340  14.266  19.373  0.00  0.00    +0.000 C 
ATOM      3  C   UNL     1       0.329  13.070  18.482  0.00  0.00    +0.000 C 
ATOM      4  N   UNL     1       0.316  11.973  19.408  0.00  0.00    +0.000 N 
ATOM      5  C   UNL     1       0.865  12.351  20.634  0.00  0.00    +0.000 C 
ATOM      6  O   UNL     1       1.205  11.578  21.523  0.00  0.00    +0.000 OA
ATOM      7  C   UNL     1       0.938  13.890  20.743  0.00  0.00    +0.000 C 
ENDROOT
BRANCH   7   8
ATOM      8  C   UNL     1       0.096  14.426  21.922  0.00  0.00    +0.000 A 
ATOM      9  C   UNL     1       0.505  15.514  22.720  0.00  0.00    +0.000 A 
ATOM     10  C   UNL     1      -0.261  15.952  23.803  0.00  0.00    +0.000 A 
ATOM     11  C   UNL     1      -1.447  15.305  24.131  0.00  0.00    +0.000 A 
ATOM     12  C   UNL     1      -1.879  14.233  23.355  0.00  0.00    +0.000 A 
ATOM     13  C   UNL     1      -1.124  13.820  22.258  0.00  0.00    +0.000 A 
ATOM     14  F   UNL     1      -1.591  12.800  21.525  0.00  0.00    +0.000 F 
ENDBRANCH   7   8
BRANCH   4  15
ATOM     15  C   UNL     1      -0.299  10.650  19.059  0.00  0.00    +0.000 C 
ATOM     16  C   UNL     1       0.693   9.823  18.199  0.00  0.00    +0.000 C 
ATOM     17  C   UNL     1      -0.578   9.808  20.329  0.00  0.00    +0.000 C 
BRANCH  15  18
ATOM     18  C   UNL     1      -1.624  10.826  18.267  0.00  0.00    +0.000 A 
ATOM     19  C   UNL     1      -2.767  11.438  18.812  0.00  0.00    +0.000 A 
ATOM     20  C   UNL     1      -3.952  11.572  18.075  0.00  0.00    +0.000 A 
ATOM     21 CL   UNL     1      -5.320  12.326  18.797  0.00  0.00    +0.000 Cl
ATOM     22  C   UNL     1      -4.037  11.110  16.770  0.00  0.00    +0.000 A 
ATOM     23  C   UNL     1      -2.921  10.511  16.203  0.00  0.00    +0.000 A 
ATOM     24 CL   UNL     1      -2.997   9.937  14.581  0.00  0.00    +0.000 Cl
ATOM     25  C   UNL     1      -1.734  10.368  16.931  0.00  0.00    +0.000 A 
ENDBRANCH  15  18
ENDBRANCH   4  15
BRANCH   7  26
ATOM     26  C   UNL     1       2.429  14.272  20.803  0.00  0.00    +0.000 C 
ATOM     27  O   UNL     1       3.219  13.847  21.642  0.00  0.00    +0.000 OA
BRANCH  26  28
ATOM     28  O   UNL     1       2.763  15.198  19.855  0.00  0.00    +0.000 OA
ATOM     29  C   UNL     1       4.009  14.954  19.200  0.00  0.00    +0.000 C 
ENDBRANCH  26  28
ENDBRANCH   7  26
TORSDOF 5
ENDMDL
MODEL 9
REMARK VINA RESULT:      -5.9      1.245      1.449
REMARK  Name = 
REMARK  8 active torsions:
REMARK  status: ('A' for Active; 'I' for Inactive)
REMARK    1  A    between atoms: N_4  and  C_5
REMARK    2  A    between atoms: C_5  and  C_6
REMARK    3  A    between atoms: C_5  and  C_7
REMARK    4  A    between atoms: C_5  and  C_8
REMARK    5  A    between atoms: C_18  and  C_19
REMARK    6  A    between atoms: C_18  and  C_23
REMARK    7  A    between atoms: C_19  and  O_21
REMARK    8  A    between atoms: O_21  and  C_22
REMARK                            x       y       z     vdW  Elec       q    Type
REMARK                         _______ _______ _______ _____ _____    ______ ____
ROOT
ATOM      1  C   UNL     1      -0.502  10.205  22.196  0.00  0.00    +0.000 C 
ATOM      2  C   UNL     1      -0.682  11.513  21.937  0.00  0.00    +0.000 C 
ATOM      3  C   UNL     1      -1.258  12.427  22.965  0.00  0.00    +0.000 C 
ATOM      4  N   UNL     1      -1.911  13.434  22.177  0.00  0.00    +0.000 N 
ATOM      5  C   UNL     1      -1.333  13.527  20.911  0.00  0.00    +0.000 C 
ATOM      6  O   UNL     1      -1.514  14.444  20.118  0.00  0.00    +0.000 OA
ATOM      7  C   UNL     1      -0.470  12.279  20.617  0.00  0.00    +0.000 C 
ENDROOT
BRANCH   7   8
ATOM      8  C   UNL     1      -0.985  11.496  19.389  0.00  0.00    +0.000 A 
ATOM      9  C   UNL     1      -2.254  11.720  18.818  0.00  0.00    +0.000 A 
ATOM     10  C   UNL     1      -2.707  10.969  17.729  0.00  0.00    +0.000 A 
ATOM     11  C   UNL     1      -1.912   9.963  17.194  0.00  0.00    +0.000 A 
ATOM     12  C   UNL     1      -0.651   9.725  17.733  0.00  0.00    +0.000 A 
ATOM     13  C   UNL     1      -0.194  10.498  18.799  0.00  0.00    +0.000 A 
ATOM     14  F   UNL     1       1.036  10.251  19.270  0.00  0.00    +0.000 F 
ENDBRANCH   7   8
BRANCH   4  15
ATOM     15  C   UNL     1      -3.103  14.188  22.687  0.00  0.00    +0.000 C 
ATOM     16  C   UNL     1      -3.188  14.050  24.230  0.00  0.00    +0.000 C 
ATOM     17  C   UNL     1      -2.978  15.703  22.393  0.00  0.00    +0.000 C 
BRANCH  15  18
ATOM     18  C   UNL     1      -4.424  13.659  22.063  0.00  0.00    +0.000 A 
ATOM     19  C   UNL     1      -4.672  13.662  20.678  0.00  0.00    +0.000 A 
ATOM     20  C   UNL     1      -5.879  13.187  20.146  0.00  0.00    +0.000 A 
ATOM     21 CL   UNL     1      -6.127  13.220  18.443  0.00  0.00    +0.000 Cl
ATOM     22  C   UNL     1      -6.876  12.687  20.972  0.00  0.00    +0.000 A 
ATOM     23  C   UNL     1      -6.654  12.663  22.341  0.00  0.00    +0.000 A 
ATOM     24 CL   UNL     1      -7.871  12.039  23.387  0.00  0.00    +0.000 Cl
ATOM     25  C   UNL     1      -5.454  13.138  22.884  0.00  0.00    +0.000 A 
ENDBRANCH  15  18
ENDBRANCH   4  15
BRANCH   7  26
ATOM     26  C   UNL     1       0.991  12.755  20.500  0.00  0.00    +0.000 C 
ATOM     27  O   UNL     1       1.826  12.653  21.395  0.00  0.00    +0.000 OA
BRANCH  26  28
ATOM     28  O   UNL     1       1.239  13.371  19.305  0.00  0.00    +0.000 OA
ATOM     29  C   UNL     1       2.407  14.195  19.294  0.00  0.00    +0.000 C 
ENDBRANCH  26  28
ENDBRANCH   7  26
TORSDOF 5
ENDMDL
