MODEL 1
REMARK VINA RESULT:      -8.0      0.000      0.000
REMARK  Name = 
REMARK  9 active torsions:
REMARK  status: ('A' for Active; 'I' for Inactive)
REMARK    1  A    between atoms: C_2  and  O_3
REMARK    2  A    between atoms: C_2  and  C_4
REMARK    3  A    between atoms: C_4  and  C_5
REMARK    4  A    between atoms: C_5  and  C_6
REMARK    5  A    between atoms: C_12  and  C_13
REMARK    6  A    between atoms: C_13  and  C_14
REMARK    7  A    between atoms: C_14  and  C_15
REMARK    8  A    between atoms: N_22  and  C_23
REMARK    9  A    between atoms: C_26  and  O_27
REMARK                            x       y       z     vdW  Elec       q    Type
REMARK                         _______ _______ _______ _____ _____    ______ ____
ROOT
ATOM      1  C   UNL     1       4.164   6.466  17.435  0.00  0.00    +0.000 A 
ATOM      2  C   UNL     1       3.822   7.760  17.043  0.00  0.00    +0.000 A 
ATOM      3  C   UNL     1       2.901   8.519  17.771  0.00  0.00    +0.000 A 
ATOM      4  C   UNL     1       2.279   7.950  18.901  0.00  0.00    +0.000 A 
ATOM      5  C   UNL     1       2.626   6.663  19.331  0.00  0.00    +0.000 A 
ATOM      6  C   UNL     1       3.579   5.929  18.591  0.00  0.00    +0.000 A 
ATOM      7  C   UNL     1       1.891   6.375  20.521  0.00  0.00    +0.000 A 
ATOM      8  C   UNL     1       1.177   7.518  20.816  0.00  0.00    +0.000 A 
ATOM      9  N   UNL     1       1.354   8.458  19.815  0.00  0.00    +0.000 N 
ENDROOT
BRANCH   9  10
ATOM     10  C   UNL     1       0.676   9.713  19.770  0.00  0.00    +0.000 A 
ATOM     11  C   UNL     1      -0.129  10.034  18.664  0.00  0.00    +0.000 A 
ATOM     12  C   UNL     1      -0.779  11.270  18.601  0.00  0.00    +0.000 A 
ATOM     13  C   UNL     1      -0.610  12.186  19.634  0.00  0.00    +0.000 A 
ATOM     14  C   UNL     1       0.182  11.881  20.733  0.00  0.00    +0.000 A 
ATOM     15  C   UNL     1       0.831  10.648  20.801  0.00  0.00    +0.000 A 
BRANCH  13  16
ATOM     16  O   UNL     1      -1.200  13.414  19.599  0.00  0.00    +0.000 OA
ATOM     17  H   UNL     1      -0.741  13.996  20.227  0.00  0.00    +0.000 HD
ENDBRANCH  13  16
ENDBRANCH   9  10
BRANCH   1  18
ATOM     18  C   UNL     1       5.178   5.668  16.651  0.00  0.00    +0.000 C 
BRANCH  18  19
ATOM     19  C   UNL     1       5.674   4.452  17.429  0.00  0.00    +0.000 C 
BRANCH  19  21
ATOM     20  O   UNL     1       7.413   5.160  18.968  0.00  0.00    +0.000 OA
ATOM     21  C   UNL     1       7.090   4.645  17.911  0.00  0.00    +0.000 C 
BRANCH  21  22
ATOM     22  O   UNL     1       8.003   4.172  17.030  0.00  0.00    +0.000 OA
ATOM     23  H   UNL     1       8.782   3.758  17.454  0.00  0.00    +0.000 HD
ENDBRANCH  21  22
ENDBRANCH  19  21
ENDBRANCH  18  19
ENDBRANCH   1  18
BRANCH   7  24
ATOM     24  C   UNL     1       1.938   5.091  21.302  0.00  0.00    +0.000 C 
BRANCH  24  25
ATOM     25  C   UNL     1       1.143   3.944  20.670  0.00  0.00    +0.000 C 
BRANCH  25  26
ATOM     26  C   UNL     1       1.998   3.098  19.756  0.00  0.00    +0.000 A 
ATOM     27  C   UNL     1       3.213   2.576  20.221  0.00  0.00    +0.000 A 
ATOM     28  C   UNL     1       4.022   1.809  19.381  0.00  0.00    +0.000 A 
ATOM     29  C   UNL     1       3.627   1.562  18.069  0.00  0.00    +0.000 A 
ATOM     30  C   UNL     1       2.420   2.076  17.596  0.00  0.00    +0.000 A 
ATOM     31  C   UNL     1       1.609   2.843  18.435  0.00  0.00    +0.000 A 
ENDBRANCH  25  26
ENDBRANCH  24  25
ENDBRANCH   7  24
TORSDOF 9
ENDMDL
MODEL 2
REMARK VINA RESULT:      -7.9      0.242      1.291
REMARK  Name = 
REMARK  9 active torsions:
REMARK  status: ('A' for Active; 'I' for Inactive)
REMARK    1  A    between atoms: C_2  and  O_3
REMARK    2  A    between atoms: C_2  and  C_4
REMARK    3  A    between atoms: C_4  and  C_5
REMARK    4  A    between atoms: C_5  and  C_6
REMARK    5  A    between atoms: C_12  and  C_13
REMARK    6  A    between atoms: C_13  and  C_14
REMARK    7  A    between atoms: C_14  and  C_15
REMARK    8  A    between atoms: N_22  and  C_23
REMARK    9  A    between atoms: C_26  and  O_27
REMARK                            x       y       z     vdW  Elec       q    Type
REMARK                         _______ _______ _______ _____ _____    ______ ____
ROOT
ATOM      1  C   UNL     1       4.082   6.556  17.440  0.00  0.00    +0.000 A 
ATOM      2  C   UNL     1       3.729   7.858  17.084  0.00  0.00    +0.000 A 
ATOM      3  C   UNL     1       2.819   8.597  17.845  0.00  0.00    +0.000 A 
ATOM      4  C   UNL     1       2.217   8.000  18.972  0.00  0.00    +0.000 A 
ATOM      5  C   UNL     1       2.576   6.705  19.367  0.00  0.00    +0.000 A 
ATOM      6  C   UNL     1       3.519   5.991  18.594  0.00  0.00    +0.000 A 
ATOM      7  C   UNL     1       1.863   6.388  20.562  0.00  0.00    +0.000 A 
ATOM      8  C   UNL     1       1.150   7.522  20.895  0.00  0.00    +0.000 A 
ATOM      9  N   UNL     1       1.308   8.485  19.913  0.00  0.00    +0.000 N 
ENDROOT
BRANCH   9  10
ATOM     10  C   UNL     1       0.625   9.738  19.909  0.00  0.00    +0.000 A 
ATOM     11  C   UNL     1       0.838  10.654  20.951  0.00  0.00    +0.000 A 
ATOM     12  C   UNL     1       0.156  11.875  20.967  0.00  0.00    +0.000 A 
ATOM     13  C   UNL     1      -0.747  12.168  19.951  0.00  0.00    +0.000 A 
ATOM     14  C   UNL     1      -0.967  11.271  18.914  0.00  0.00    +0.000 A 
ATOM     15  C   UNL     1      -0.287  10.052  18.893  0.00  0.00    +0.000 A 
BRANCH  13  16
ATOM     16  O   UNL     1      -1.455  13.332  19.943  0.00  0.00    +0.000 OA
ATOM     17  H   UNL     1      -0.875  14.045  19.630  0.00  0.00    +0.000 HD
ENDBRANCH  13  16
ENDBRANCH   9  10
BRANCH   1  18
ATOM     18  C   UNL     1       5.085   5.780  16.622  0.00  0.00    +0.000 C 
BRANCH  18  19
ATOM     19  C   UNL     1       5.624   4.568  17.377  0.00  0.00    +0.000 C 
BRANCH  19  21
ATOM     20  O   UNL     1       7.668   4.829  18.660  0.00  0.00    +0.000 OA
ATOM     21  C   UNL     1       7.114   4.666  17.585  0.00  0.00    +0.000 C 
BRANCH  21  22
ATOM     22  O   UNL     1       7.805   4.550  16.428  0.00  0.00    +0.000 OA
ATOM     23  H   UNL     1       8.219   3.671  16.301  0.00  0.00    +0.000 HD
ENDBRANCH  21  22
ENDBRANCH  19  21
ENDBRANCH  18  19
ENDBRANCH   1  18
BRANCH   7  24
ATOM     24  C   UNL     1       1.927   5.087  21.313  0.00  0.00    +0.000 C 
BRANCH  24  25
ATOM     25  C   UNL     1       1.156   3.941  20.648  0.00  0.00    +0.000 C 
BRANCH  25  26
ATOM     26  C   UNL     1       2.038   3.116  19.742  0.00  0.00    +0.000 A 
ATOM     27  C   UNL     1       1.640   2.859  18.423  0.00  0.00    +0.000 A 
ATOM     28  C   UNL     1       2.436   2.081  17.581  0.00  0.00    +0.000 A 
ATOM     29  C   UNL     1       3.634   1.549  18.051  0.00  0.00    +0.000 A 
ATOM     30  C   UNL     1       4.040   1.799  19.361  0.00  0.00    +0.000 A 
ATOM     31  C   UNL     1       3.245   2.578  20.205  0.00  0.00    +0.000 A 
ENDBRANCH  25  26
ENDBRANCH  24  25
ENDBRANCH   7  24
TORSDOF 9
ENDMDL
MODEL 3
REMARK VINA RESULT:      -7.9      0.065      1.076
REMARK  Name = 
REMARK  9 active torsions:
REMARK  status: ('A' for Active; 'I' for Inactive)
REMARK    1  A    between atoms: C_2  and  O_3
REMARK    2  A    between atoms: C_2  and  C_4
REMARK    3  A    between atoms: C_4  and  C_5
REMARK    4  A    between atoms: C_5  and  C_6
REMARK    5  A    between atoms: C_12  and  C_13
REMARK    6  A    between atoms: C_13  and  C_14
REMARK    7  A    between atoms: C_14  and  C_15
REMARK    8  A    between atoms: N_22  and  C_23
REMARK    9  A    between atoms: C_26  and  O_27
REMARK                            x       y       z     vdW  Elec       q    Type
REMARK                         _______ _______ _______ _____ _____    ______ ____
ROOT
ATOM      1  C   UNL     1       4.145   6.459  17.407  0.00  0.00    +0.000 A 
ATOM      2  C   UNL     1       3.809   7.754  17.014  0.00  0.00    +0.000 A 
ATOM      3  C   UNL     1       2.898   8.521  17.747  0.00  0.00    +0.000 A 
ATOM      4  C   UNL     1       2.279   7.959  18.882  0.00  0.00    +0.000 A 
ATOM      5  C   UNL     1       2.622   6.671  19.313  0.00  0.00    +0.000 A 
ATOM      6  C   UNL     1       3.565   5.929  18.569  0.00  0.00    +0.000 A 
ATOM      7  C   UNL     1       1.893   6.391  20.509  0.00  0.00    +0.000 A 
ATOM      8  C   UNL     1       1.188   7.540  20.806  0.00  0.00    +0.000 A 
ATOM      9  N   UNL     1       1.365   8.475  19.801  0.00  0.00    +0.000 N 
ENDROOT
BRANCH   9  10
ATOM     10  C   UNL     1       0.694   9.735  19.758  0.00  0.00    +0.000 A 
ATOM     11  C   UNL     1      -0.063  10.085  18.628  0.00  0.00    +0.000 A 
ATOM     12  C   UNL     1      -0.705  11.326  18.567  0.00  0.00    +0.000 A 
ATOM     13  C   UNL     1      -0.574  12.217  19.626  0.00  0.00    +0.000 A 
ATOM     14  C   UNL     1       0.171  11.884  20.749  0.00  0.00    +0.000 A 
ATOM     15  C   UNL     1       0.812  10.645  20.815  0.00  0.00    +0.000 A 
BRANCH  13  16
ATOM     16  O   UNL     1      -1.157  13.449  19.596  0.00  0.00    +0.000 OA
ATOM     17  H   UNL     1      -2.112  13.343  19.743  0.00  0.00    +0.000 HD
ENDBRANCH  13  16
ENDBRANCH   9  10
BRANCH   1  18
ATOM     18  C   UNL     1       5.149   5.653  16.619  0.00  0.00    +0.000 C 
BRANCH  18  19
ATOM     19  C   UNL     1       5.668   4.455  17.410  0.00  0.00    +0.000 C 
BRANCH  19  21
ATOM     20  O   UNL     1       8.041   4.277  16.929  0.00  0.00    +0.000 OA
ATOM     21  C   UNL     1       7.143   4.582  17.696  0.00  0.00    +0.000 C 
BRANCH  21  22
ATOM     22  O   UNL     1       7.388   5.088  18.928  0.00  0.00    +0.000 OA
ATOM     23  H   UNL     1       8.192   5.645  18.973  0.00  0.00    +0.000 HD
ENDBRANCH  21  22
ENDBRANCH  19  21
ENDBRANCH  18  19
ENDBRANCH   1  18
BRANCH   7  24
ATOM     24  C   UNL     1       1.937   5.109  21.293  0.00  0.00    +0.000 C 
BRANCH  24  25
ATOM     25  C   UNL     1       1.162   3.954  20.649  0.00  0.00    +0.000 C 
BRANCH  25  26
ATOM     26  C   UNL     1       2.037   3.119  19.746  0.00  0.00    +0.000 A 
ATOM     27  C   UNL     1       1.634   2.856  18.429  0.00  0.00    +0.000 A 
ATOM     28  C   UNL     1       2.424   2.069  17.590  0.00  0.00    +0.000 A 
ATOM     29  C   UNL     1       3.621   1.535  18.059  0.00  0.00    +0.000 A 
ATOM     30  C   UNL     1       4.033   1.790  19.367  0.00  0.00    +0.000 A 
ATOM     31  C   UNL     1       3.244   2.578  20.208  0.00  0.00    +0.000 A 
ENDBRANCH  25  26
ENDBRANCH  24  25
ENDBRANCH   7  24
TORSDOF 9
ENDMDL
MODEL 4
REMARK VINA RESULT:      -7.8      0.605      1.108
REMARK  Name = 
REMARK  9 active torsions:
REMARK  status: ('A' for Active; 'I' for Inactive)
REMARK    1  A    between atoms: C_2  and  O_3
REMARK    2  A    between atoms: C_2  and  C_4
REMARK    3  A    between atoms: C_4  and  C_5
REMARK    4  A    between atoms: C_5  and  C_6
REMARK    5  A    between atoms: C_12  and  C_13
REMARK    6  A    between atoms: C_13  and  C_14
REMARK    7  A    between atoms: C_14  and  C_15
REMARK    8  A    between atoms: N_22  and  C_23
REMARK    9  A    between atoms: C_26  and  O_27
REMARK                            x       y       z     vdW  Elec       q    Type
REMARK                         _______ _______ _______ _____ _____    ______ ____
ROOT
ATOM      1  C   UNL     1       3.896   6.435  17.402  0.00  0.00    +0.000 A 
ATOM      2  C   UNL     1       3.545   7.746  17.078  0.00  0.00    +0.000 A 
ATOM      3  C   UNL     1       2.699   8.495  17.902  0.00  0.00    +0.000 A 
ATOM      4  C   UNL     1       2.161   7.899  19.061  0.00  0.00    +0.000 A 
ATOM      5  C   UNL     1       2.521   6.595  19.423  0.00  0.00    +0.000 A 
ATOM      6  C   UNL     1       3.398   5.870  18.585  0.00  0.00    +0.000 A 
ATOM      7  C   UNL     1       1.880   6.280  20.659  0.00  0.00    +0.000 A 
ATOM      8  C   UNL     1       1.212   7.423  21.046  0.00  0.00    +0.000 A 
ATOM      9  N   UNL     1       1.323   8.391  20.063  0.00  0.00    +0.000 N 
ENDROOT
BRANCH   9  10
ATOM     10  C   UNL     1       0.664   9.657  20.111  0.00  0.00    +0.000 A 
ATOM     11  C   UNL     1       0.196  10.155  21.338  0.00  0.00    +0.000 A 
ATOM     12  C   UNL     1      -0.471  11.382  21.392  0.00  0.00    +0.000 A 
ATOM     13  C   UNL     1      -0.681  12.099  20.219  0.00  0.00    +0.000 A 
ATOM     14  C   UNL     1      -0.223  11.619  19.000  0.00  0.00    +0.000 A 
ATOM     15  C   UNL     1       0.444  10.395  18.941  0.00  0.00    +0.000 A 
BRANCH  13  16
ATOM     16  O   UNL     1      -1.353  13.285  20.222  0.00  0.00    +0.000 OA
ATOM     17  H   UNL     1      -1.155  13.751  21.051  0.00  0.00    +0.000 HD
ENDBRANCH  13  16
ENDBRANCH   9  10
BRANCH   1  18
ATOM     18  C   UNL     1       4.829   5.648  16.514  0.00  0.00    +0.000 C 
BRANCH  18  19
ATOM     19  C   UNL     1       5.833   4.830  17.322  0.00  0.00    +0.000 C 
BRANCH  19  21
ATOM     20  O   UNL     1       7.552   5.665  15.825  0.00  0.00    +0.000 OA
ATOM     21  C   UNL     1       7.222   4.935  16.745  0.00  0.00    +0.000 C 
BRANCH  21  22
ATOM     22  O   UNL     1       8.103   4.118  17.368  0.00  0.00    +0.000 OA
ATOM     23  H   UNL     1       9.039   4.375  17.240  0.00  0.00    +0.000 HD
ENDBRANCH  21  22
ENDBRANCH  19  21
ENDBRANCH  18  19
ENDBRANCH   1  18
BRANCH   7  24
ATOM     24  C   UNL     1       1.969   4.972  21.395  0.00  0.00    +0.000 C 
BRANCH  24  25
ATOM     25  C   UNL     1       1.186   3.829  20.738  0.00  0.00    +0.000 C 
BRANCH  25  26
ATOM     26  C   UNL     1       2.040   3.036  19.778  0.00  0.00    +0.000 A 
ATOM     27  C   UNL     1       3.313   2.600  20.171  0.00  0.00    +0.000 A 
ATOM     28  C   UNL     1       4.121   1.883  19.288  0.00  0.00    +0.000 A 
ATOM     29  C   UNL     1       3.667   1.600  18.002  0.00  0.00    +0.000 A 
ATOM     30  C   UNL     1       2.402   2.028  17.600  0.00  0.00    +0.000 A 
ATOM     31  C   UNL     1       1.592   2.745  18.484  0.00  0.00    +0.000 A 
ENDBRANCH  25  26
ENDBRANCH  24  25
ENDBRANCH   7  24
TORSDOF 9
ENDMDL
MODEL 5
REMARK VINA RESULT:      -7.8      1.110      1.816
REMARK  Name = 
REMARK  9 active torsions:
REMARK  status: ('A' for Active; 'I' for Inactive)
REMARK    1  A    between atoms: C_2  and  O_3
REMARK    2  A    between atoms: C_2  and  C_4
REMARK    3  A    between atoms: C_4  and  C_5
REMARK    4  A    between atoms: C_5  and  C_6
REMARK    5  A    between atoms: C_12  and  C_13
REMARK    6  A    between atoms: C_13  and  C_14
REMARK    7  A    between atoms: C_14  and  C_15
REMARK    8  A    between atoms: N_22  and  C_23
REMARK    9  A    between atoms: C_26  and  O_27
REMARK                            x       y       z     vdW  Elec       q    Type
REMARK                         _______ _______ _______ _____ _____    ______ ____
ROOT
ATOM      1  C   UNL     1       4.361   6.202  17.508  0.00  0.00    +0.000 A 
ATOM      2  C   UNL     1       4.052   7.466  17.007  0.00  0.00    +0.000 A 
ATOM      3  C   UNL     1       3.101   8.281  17.628  0.00  0.00    +0.000 A 
ATOM      4  C   UNL     1       2.414   7.798  18.761  0.00  0.00    +0.000 A 
ATOM      5  C   UNL     1       2.726   6.544  19.300  0.00  0.00    +0.000 A 
ATOM      6  C   UNL     1       3.710   5.753  18.667  0.00  0.00    +0.000 A 
ATOM      7  C   UNL     1       1.926   6.347  20.466  0.00  0.00    +0.000 A 
ATOM      8  C   UNL     1       1.208   7.512  20.639  0.00  0.00    +0.000 A 
ATOM      9  N   UNL     1       1.447   8.376  19.585  0.00  0.00    +0.000 N 
ENDROOT
BRANCH   9  10
ATOM     10  C   UNL     1       0.783   9.628  19.413  0.00  0.00    +0.000 A 
ATOM     11  C   UNL     1       0.955  10.646  20.365  0.00  0.00    +0.000 A 
ATOM     12  C   UNL     1       0.291  11.868  20.218  0.00  0.00    +0.000 A 
ATOM     13  C   UNL     1      -0.554  12.062  19.130  0.00  0.00    +0.000 A 
ATOM     14  C   UNL     1      -0.732  11.063  18.181  0.00  0.00    +0.000 A 
ATOM     15  C   UNL     1      -0.070   9.843  18.323  0.00  0.00    +0.000 A 
BRANCH  13  16
ATOM     16  O   UNL     1      -1.244  13.225  18.963  0.00  0.00    +0.000 OA
ATOM     17  H   UNL     1      -1.148  13.759  19.769  0.00  0.00    +0.000 HD
ENDBRANCH  13  16
ENDBRANCH   9  10
BRANCH   1  18
ATOM     18  C   UNL     1       5.408   5.344  16.840  0.00  0.00    +0.000 C 
BRANCH  18  19
ATOM     19  C   UNL     1       5.407   5.518  15.324  0.00  0.00    +0.000 C 
BRANCH  19  21
ATOM     20  O   UNL     1       7.701   5.384  14.538  0.00  0.00    +0.000 OA
ATOM     21  C   UNL     1       6.609   4.862  14.693  0.00  0.00    +0.000 C 
BRANCH  21  22
ATOM     22  O   UNL     1       6.357   3.590  14.303  0.00  0.00    +0.000 OA
ATOM     23  H   UNL     1       6.654   3.390  13.392  0.00  0.00    +0.000 HD
ENDBRANCH  21  22
ENDBRANCH  19  21
ENDBRANCH  18  19
ENDBRANCH   1  18
BRANCH   7  24
ATOM     24  C   UNL     1       1.919   5.122  21.339  0.00  0.00    +0.000 C 
BRANCH  24  25
ATOM     25  C   UNL     1       1.170   3.928  20.737  0.00  0.00    +0.000 C 
BRANCH  25  26
ATOM     26  C   UNL     1       2.042   3.129  19.798  0.00  0.00    +0.000 A 
ATOM     27  C   UNL     1       1.614   2.881  18.486  0.00  0.00    +0.000 A 
ATOM     28  C   UNL     1       2.400   2.127  17.614  0.00  0.00    +0.000 A 
ATOM     29  C   UNL     1       3.619   1.610  18.046  0.00  0.00    +0.000 A 
ATOM     30  C   UNL     1       4.055   1.850  19.348  0.00  0.00    +0.000 A 
ATOM     31  C   UNL     1       3.270   2.605  20.222  0.00  0.00    +0.000 A 
ENDBRANCH  25  26
ENDBRANCH  24  25
ENDBRANCH   7  24
TORSDOF 9
ENDMDL
MODEL 6
REMARK VINA RESULT:      -7.7      4.628      7.785
REMARK  Name = 
REMARK  9 active torsions:
REMARK  status: ('A' for Active; 'I' for Inactive)
REMARK    1  A    between atoms: C_2  and  O_3
REMARK    2  A    between atoms: C_2  and  C_4
REMARK    3  A    between atoms: C_4  and  C_5
REMARK    4  A    between atoms: C_5  and  C_6
REMARK    5  A    between atoms: C_12  and  C_13
REMARK    6  A    between atoms: C_13  and  C_14
REMARK    7  A    between atoms: C_14  and  C_15
REMARK    8  A    between atoms: N_22  and  C_23
REMARK    9  A    between atoms: C_26  and  O_27
REMARK                            x       y       z     vdW  Elec       q    Type
REMARK                         _______ _______ _______ _____ _____    ______ ____
ROOT
ATOM      1  C   UNL     1       6.266   4.422  14.676  0.00  0.00    +0.000 A 
ATOM      2  C   UNL     1       5.199   3.637  15.114  0.00  0.00    +0.000 A 
ATOM      3  C   UNL     1       4.719   3.731  16.424  0.00  0.00    +0.000 A 
ATOM      4  C   UNL     1       5.351   4.609  17.329  0.00  0.00    +0.000 A 
ATOM      5  C   UNL     1       6.405   5.429  16.905  0.00  0.00    +0.000 A 
ATOM      6  C   UNL     1       6.853   5.332  15.569  0.00  0.00    +0.000 A 
ATOM      7  C   UNL     1       6.804   6.249  18.004  0.00  0.00    +0.000 A 
ATOM      8  C   UNL     1       5.937   5.954  19.035  0.00  0.00    +0.000 A 
ATOM      9  N   UNL     1       5.091   4.924  18.663  0.00  0.00    +0.000 N 
ENDROOT
BRANCH   9  10
ATOM     10  C   UNL     1       4.139   4.318  19.537  0.00  0.00    +0.000 A 
ATOM     11  C   UNL     1       3.102   5.091  20.085  0.00  0.00    +0.000 A 
ATOM     12  C   UNL     1       2.178   4.512  20.961  0.00  0.00    +0.000 A 
ATOM     13  C   UNL     1       2.304   3.168  21.297  0.00  0.00    +0.000 A 
ATOM     14  C   UNL     1       3.324   2.393  20.762  0.00  0.00    +0.000 A 
ATOM     15  C   UNL     1       4.247   2.967  19.887  0.00  0.00    +0.000 A 
BRANCH  13  16
ATOM     16  O   UNL     1       1.444   2.571  22.170  0.00  0.00    +0.000 OA
ATOM     17  H   UNL     1       0.554   2.577  21.780  0.00  0.00    +0.000 HD
ENDBRANCH  13  16
ENDBRANCH   9  10
BRANCH   1  18
ATOM     18  C   UNL     1       6.757   4.326  13.252  0.00  0.00    +0.000 C 
BRANCH  18  19
ATOM     19  C   UNL     1       5.795   3.538  12.367  0.00  0.00    +0.000 C 
BRANCH  19  21
ATOM     20  O   UNL     1       7.656   2.434  11.267  0.00  0.00    +0.000 OA
ATOM     21  C   UNL     1       6.499   2.413  11.653  0.00  0.00    +0.000 C 
BRANCH  21  22
ATOM     22  O   UNL     1       5.700   1.334  11.476  0.00  0.00    +0.000 OA
ATOM     23  H   UNL     1       4.856   1.383  11.969  0.00  0.00    +0.000 HD
ENDBRANCH  21  22
ENDBRANCH  19  21
ENDBRANCH  18  19
ENDBRANCH   1  18
BRANCH   7  24
ATOM     24  C   UNL     1       7.921   7.256  17.998  0.00  0.00    +0.000 C 
BRANCH  24  25
ATOM     25  C   UNL     1       7.508   8.647  17.505  0.00  0.00    +0.000 C 
BRANCH  25  26
ATOM     26  C   UNL     1       8.359   9.737  18.110  0.00  0.00    +0.000 A 
ATOM     27  C   UNL     1       9.050   9.503  19.307  0.00  0.00    +0.000 A 
ATOM     28  C   UNL     1       9.824  10.508  19.887  0.00  0.00    +0.000 A 
ATOM     29  C   UNL     1       9.911  11.758  19.280  0.00  0.00    +0.000 A 
ATOM     30  C   UNL     1       9.229  12.003  18.089  0.00  0.00    +0.000 A 
ATOM     31  C   UNL     1       8.454  10.998  17.506  0.00  0.00    +0.000 A 
ENDBRANCH  25  26
ENDBRANCH  24  25
ENDBRANCH   7  24
TORSDOF 9
ENDMDL
MODEL 7
REMARK VINA RESULT:      -7.6      1.185      1.694
REMARK  Name = 
REMARK  9 active torsions:
REMARK  status: ('A' for Active; 'I' for Inactive)
REMARK    1  A    between atoms: C_2  and  O_3
REMARK    2  A    between atoms: C_2  and  C_4
REMARK    3  A    between atoms: C_4  and  C_5
REMARK    4  A    between atoms: C_5  and  C_6
REMARK    5  A    between atoms: C_12  and  C_13
REMARK    6  A    between atoms: C_13  and  C_14
REMARK    7  A    between atoms: C_14  and  C_15
REMARK    8  A    between atoms: N_22  and  C_23
REMARK    9  A    between atoms: C_26  and  O_27
REMARK                            x       y       z     vdW  Elec       q    Type
REMARK                         _______ _______ _______ _____ _____    ______ ____
ROOT
ATOM      1  C   UNL     1       4.606   6.183  17.531  0.00  0.00    +0.000 A 
ATOM      2  C   UNL     1       4.332   7.422  16.953  0.00  0.00    +0.000 A 
ATOM      3  C   UNL     1       3.334   8.258  17.465  0.00  0.00    +0.000 A 
ATOM      4  C   UNL     1       2.566   7.821  18.564  0.00  0.00    +0.000 A 
ATOM      5  C   UNL     1       2.842   6.594  19.180  0.00  0.00    +0.000 A 
ATOM      6  C   UNL     1       3.873   5.782  18.658  0.00  0.00    +0.000 A 
ATOM      7  C   UNL     1       1.958   6.443  20.292  0.00  0.00    +0.000 A 
ATOM      8  C   UNL     1       1.225   7.610  20.359  0.00  0.00    +0.000 A 
ATOM      9  N   UNL     1       1.540   8.428  19.288  0.00  0.00    +0.000 N 
ENDROOT
BRANCH   9  10
ATOM     10  C   UNL     1       0.887   9.668  19.012  0.00  0.00    +0.000 A 
ATOM     11  C   UNL     1       1.476  10.875  19.423  0.00  0.00    +0.000 A 
ATOM     12  C   UNL     1       0.833  12.092  19.178  0.00  0.00    +0.000 A 
ATOM     13  C   UNL     1      -0.402  12.097  18.539  0.00  0.00    +0.000 A 
ATOM     14  C   UNL     1      -0.996  10.911  18.128  0.00  0.00    +0.000 A 
ATOM     15  C   UNL     1      -0.357   9.694  18.369  0.00  0.00    +0.000 A 
BRANCH  13  16
ATOM     16  O   UNL     1      -1.078  13.258  18.308  0.00  0.00    +0.000 OA
ATOM     17  H   UNL     1      -1.115  13.765  19.136  0.00  0.00    +0.000 HD
ENDBRANCH  13  16
ENDBRANCH   9  10
BRANCH   1  18
ATOM     18  C   UNL     1       5.702   5.304  16.981  0.00  0.00    +0.000 C 
BRANCH  18  19
ATOM     19  C   UNL     1       5.240   4.506  15.764  0.00  0.00    +0.000 C 
BRANCH  19  21
ATOM     20  O   UNL     1       6.154   3.997  13.574  0.00  0.00    +0.000 OA
ATOM     21  C   UNL     1       6.260   4.550  14.656  0.00  0.00    +0.000 C 
BRANCH  21  22
ATOM     22  O   UNL     1       7.345   5.292  14.982  0.00  0.00    +0.000 OA
ATOM     23  H   UNL     1       8.167   5.007  14.535  0.00  0.00    +0.000 HD
ENDBRANCH  21  22
ENDBRANCH  19  21
ENDBRANCH  18  19
ENDBRANCH   1  18
BRANCH   7  24
ATOM     24  C   UNL     1       1.890   5.258  21.215  0.00  0.00    +0.000 C 
BRANCH  24  25
ATOM     25  C   UNL     1       1.121   4.062  20.643  0.00  0.00    +0.000 C 
BRANCH  25  26
ATOM     26  C   UNL     1       1.981   3.218  19.734  0.00  0.00    +0.000 A 
ATOM     27  C   UNL     1       3.183   2.676  20.212  0.00  0.00    +0.000 A 
ATOM     28  C   UNL     1       3.997   1.911  19.376  0.00  0.00    +0.000 A 
ATOM     29  C   UNL     1       3.621   1.684  18.055  0.00  0.00    +0.000 A 
ATOM     30  C   UNL     1       2.428   2.217  17.568  0.00  0.00    +0.000 A 
ATOM     31  C   UNL     1       1.611   2.983  18.404  0.00  0.00    +0.000 A 
ENDBRANCH  25  26
ENDBRANCH  24  25
ENDBRANCH   7  24
TORSDOF 9
ENDMDL
MODEL 8
REMARK VINA RESULT:      -7.5      4.701      7.783
REMARK  Name = 
REMARK  9 active torsions:
REMARK  status: ('A' for Active; 'I' for Inactive)
REMARK    1  A    between atoms: C_2  and  O_3
REMARK    2  A    between atoms: C_2  and  C_4
REMARK    3  A    between atoms: C_4  and  C_5
REMARK    4  A    between atoms: C_5  and  C_6
REMARK    5  A    between atoms: C_12  and  C_13
REMARK    6  A    between atoms: C_13  and  C_14
REMARK    7  A    between atoms: C_14  and  C_15
REMARK    8  A    between atoms: N_22  and  C_23
REMARK    9  A    between atoms: C_26  and  O_27
REMARK                            x       y       z     vdW  Elec       q    Type
REMARK                         _______ _______ _______ _____ _____    ______ ____
ROOT
ATOM      1  C   UNL     1       6.124   4.616  14.782  0.00  0.00    +0.000 A 
ATOM      2  C   UNL     1       5.033   3.851  15.195  0.00  0.00    +0.000 A 
ATOM      3  C   UNL     1       4.596   3.867  16.523  0.00  0.00    +0.000 A 
ATOM      4  C   UNL     1       5.295   4.644  17.469  0.00  0.00    +0.000 A 
ATOM      5  C   UNL     1       6.375   5.443  17.074  0.00  0.00    +0.000 A 
ATOM      6  C   UNL     1       6.779   5.427  15.721  0.00  0.00    +0.000 A 
ATOM      7  C   UNL     1       6.844   6.158  18.217  0.00  0.00    +0.000 A 
ATOM      8  C   UNL     1       5.993   5.828  19.252  0.00  0.00    +0.000 A 
ATOM      9  N   UNL     1       5.088   4.869  18.831  0.00  0.00    +0.000 N 
ENDROOT
BRANCH   9  10
ATOM     10  C   UNL     1       4.132   4.243  19.688  0.00  0.00    +0.000 A 
ATOM     11  C   UNL     1       4.279   2.889  20.027  0.00  0.00    +0.000 A 
ATOM     12  C   UNL     1       3.335   2.261  20.846  0.00  0.00    +0.000 A 
ATOM     13  C   UNL     1       2.243   2.985  21.310  0.00  0.00    +0.000 A 
ATOM     14  C   UNL     1       2.086   4.326  20.983  0.00  0.00    +0.000 A 
ATOM     15  C   UNL     1       3.026   4.956  20.166  0.00  0.00    +0.000 A 
BRANCH  13  16
ATOM     16  O   UNL     1       1.284   2.406  22.087  0.00  0.00    +0.000 OA
ATOM     17  H   UNL     1       0.485   2.959  22.056  0.00  0.00    +0.000 HD
ENDBRANCH  13  16
ENDBRANCH   9  10
BRANCH   1  18
ATOM     18  C   UNL     1       6.569   4.605  13.340  0.00  0.00    +0.000 C 
BRANCH  18  19
ATOM     19  C   UNL     1       6.767   3.187  12.813  0.00  0.00    +0.000 C 
BRANCH  19  21
ATOM     20  O   UNL     1       4.631   3.429  11.685  0.00  0.00    +0.000 OA
ATOM     21  C   UNL     1       5.630   2.768  11.915  0.00  0.00    +0.000 C 
BRANCH  21  22
ATOM     22  O   UNL     1       5.829   1.547  11.366  0.00  0.00    +0.000 OA
ATOM     23  H   UNL     1       6.672   1.468  10.874  0.00  0.00    +0.000 HD
ENDBRANCH  21  22
ENDBRANCH  19  21
ENDBRANCH  18  19
ENDBRANCH   1  18
BRANCH   7  24
ATOM     24  C   UNL     1       8.008   7.110  18.251  0.00  0.00    +0.000 C 
BRANCH  24  25
ATOM     25  C   UNL     1       7.784   8.402  17.458  0.00  0.00    +0.000 C 
BRANCH  25  26
ATOM     26  C   UNL     1       8.419   9.596  18.129  0.00  0.00    +0.000 A 
ATOM     27  C   UNL     1       8.363  10.855  17.516  0.00  0.00    +0.000 A 
ATOM     28  C   UNL     1       8.964  11.963  18.116  0.00  0.00    +0.000 A 
ATOM     29  C   UNL     1       9.630  11.822  19.331  0.00  0.00    +0.000 A 
ATOM     30  C   UNL     1       9.691  10.573  19.951  0.00  0.00    +0.000 A 
ATOM     31  C   UNL     1       9.090   9.464  19.352  0.00  0.00    +0.000 A 
ENDBRANCH  25  26
ENDBRANCH  24  25
ENDBRANCH   7  24
TORSDOF 9
ENDMDL
MODEL 9
REMARK VINA RESULT:      -7.4      1.142      1.735
REMARK  Name = 
REMARK  9 active torsions:
REMARK  status: ('A' for Active; 'I' for Inactive)
REMARK    1  A    between atoms: C_2  and  O_3
REMARK    2  A    between atoms: C_2  and  C_4
REMARK    3  A    between atoms: C_4  and  C_5
REMARK    4  A    between atoms: C_5  and  C_6
REMARK    5  A    between atoms: C_12  and  C_13
REMARK    6  A    between atoms: C_13  and  C_14
REMARK    7  A    between atoms: C_14  and  C_15
REMARK    8  A    between atoms: N_22  and  C_23
REMARK    9  A    between atoms: C_26  and  O_27
REMARK                            x       y       z     vdW  Elec       q    Type
REMARK                         _______ _______ _______ _____ _____    ______ ____
ROOT
ATOM      1  C   UNL     1       4.404   6.246  17.506  0.00  0.00    +0.000 A 
ATOM      2  C   UNL     1       4.096   7.503  16.987  0.00  0.00    +0.000 A 
ATOM      3  C   UNL     1       3.126   8.316  17.582  0.00  0.00    +0.000 A 
ATOM      4  C   UNL     1       2.420   7.838  18.704  0.00  0.00    +0.000 A 
ATOM      5  C   UNL     1       2.730   6.591  19.261  0.00  0.00    +0.000 A 
ATOM      6  C   UNL     1       3.733   5.802  18.656  0.00  0.00    +0.000 A 
ATOM      7  C   UNL     1       1.908   6.398  20.413  0.00  0.00    +0.000 A 
ATOM      8  C   UNL     1       1.177   7.559  20.560  0.00  0.00    +0.000 A 
ATOM      9  N   UNL     1       1.432   8.416  19.503  0.00  0.00    +0.000 N 
ENDROOT
BRANCH   9  10
ATOM     10  C   UNL     1       0.763   9.662  19.307  0.00  0.00    +0.000 A 
ATOM     11  C   UNL     1      -0.194   9.788  18.287  0.00  0.00    +0.000 A 
ATOM     12  C   UNL     1      -0.838  11.011  18.073  0.00  0.00    +0.000 A 
ATOM     13  C   UNL     1      -0.512  12.105  18.867  0.00  0.00    +0.000 A 
ATOM     14  C   UNL     1       0.432  11.993  19.879  0.00  0.00    +0.000 A 
ATOM     15  C   UNL     1       1.076  10.774  20.098  0.00  0.00    +0.000 A 
BRANCH  13  16
ATOM     16  O   UNL     1      -1.092  13.323  18.673  0.00  0.00    +0.000 OA
ATOM     17  H   UNL     1      -1.094  13.802  19.518  0.00  0.00    +0.000 HD
ENDBRANCH  13  16
ENDBRANCH   9  10
BRANCH   1  18
ATOM     18  C   UNL     1       5.470   5.390  16.867  0.00  0.00    +0.000 C 
BRANCH  18  19
ATOM     19  C   UNL     1       5.485   5.534  15.348  0.00  0.00    +0.000 C 
BRANCH  19  21
ATOM     20  O   UNL     1       5.539   3.974  13.488  0.00  0.00    +0.000 OA
ATOM     21  C   UNL     1       5.723   4.208  14.671  0.00  0.00    +0.000 C 
BRANCH  21  22
ATOM     22  O   UNL     1       6.182   3.266  15.528  0.00  0.00    +0.000 OA
ATOM     23  H   UNL     1       5.511   2.596  15.774  0.00  0.00    +0.000 HD
ENDBRANCH  21  22
ENDBRANCH  19  21
ENDBRANCH  18  19
ENDBRANCH   1  18
BRANCH   7  24
ATOM     24  C   UNL     1       1.892   5.181  21.296  0.00  0.00    +0.000 C 
BRANCH  24  25
ATOM     25  C   UNL     1       1.150   3.982  20.696  0.00  0.00    +0.000 C 
BRANCH  25  26
ATOM     26  C   UNL     1       2.031   3.175  19.773  0.00  0.00    +0.000 A 
ATOM     27  C   UNL     1       1.627   2.934  18.453  0.00  0.00    +0.000 A 
ATOM     28  C   UNL     1       2.422   2.174  17.595  0.00  0.00    +0.000 A 
ATOM     29  C   UNL     1       3.626   1.642  18.050  0.00  0.00    +0.000 A 
ATOM     30  C   UNL     1       4.039   1.875  19.361  0.00  0.00    +0.000 A 
ATOM     31  C   UNL     1       3.245   2.637  20.221  0.00  0.00    +0.000 A 
ENDBRANCH  25  26
ENDBRANCH  24  25
ENDBRANCH   7  24
TORSDOF 9
ENDMDL
