MODEL 1
REMARK VINA RESULT:      -7.4      0.000      0.000
REMARK  Name = 
REMARK  7 active torsions:
REMARK  status: ('A' for Active; 'I' for Inactive)
REMARK    1  A    between atoms: C_1  and  C_2
REMARK    2  A    between atoms: C_2  and  N_3
REMARK    3  A    between atoms: C_2  and  C_21
REMARK    4  A    between atoms: C_4  and  C_6
REMARK    5  A    between atoms: C_6  and  N_7
REMARK    6  A    between atoms: N_10  and  C_11
REMARK    7  A    between atoms: C_11  and  C_12
REMARK                            x       y       z     vdW  Elec       q    Type
REMARK                         _______ _______ _______ _____ _____    ______ ____
ROOT
ATOM      1  N   UNL     1       7.030   6.276  17.585  0.00  0.00    +0.000 NA
ATOM      2  C   UNL     1       5.979   5.964  18.586  0.00  0.00    +0.000 C 
ATOM      3  C   UNL     1       4.506   6.119  18.102  0.00  0.00    +0.000 C 
ATOM      4  N   UNL     1       4.202   5.484  16.797  0.00  0.00    +0.000 NA
ATOM      5  C   UNL     1       5.215   5.936  15.827  0.00  0.00    +0.000 C 
ATOM      6  C   UNL     1       6.661   5.665  16.284  0.00  0.00    +0.000 C 
ENDROOT
BRANCH   1   7
ATOM      7  C   UNL     1       7.207   7.751  17.476  0.00  0.00    +0.000 C 
BRANCH   7   9
ATOM      8  N   UNL     1       8.648   9.589  18.199  0.00  0.00    +0.000 N 
ATOM      9  C   UNL     1       8.332   8.263  18.388  0.00  0.00    +0.000 C 
ATOM     10  O   UNL     1       8.902   7.538  19.197  0.00  0.00    +0.000 OA
ATOM     11  H   UNL     1       8.032  10.103  17.576  0.00  0.00    +0.000 HD
BRANCH   8  13
ATOM     12  C   UNL     1       8.923  10.636  20.425  0.00  0.00    +0.000 C 
ATOM     13  C   UNL     1       9.556  10.313  19.065  0.00  0.00    +0.000 C 
BRANCH  13  14
ATOM     14  C   UNL     1      10.035  11.565  18.362  0.00  0.00    +0.000 A 
ATOM     15  C   UNL     1      11.374  11.666  17.962  0.00  0.00    +0.000 A 
ATOM     16  C   UNL     1      11.835  12.804  17.300  0.00  0.00    +0.000 A 
ATOM     17  C   UNL     1      10.961  13.853  17.025  0.00  0.00    +0.000 A 
ATOM     18  C   UNL     1       9.625  13.766  17.408  0.00  0.00    +0.000 A 
ATOM     19  C   UNL     1       9.163  12.628  18.071  0.00  0.00    +0.000 A 
ENDBRANCH  13  14
ENDBRANCH   8  13
ENDBRANCH   7   9
ENDBRANCH   1   7
BRANCH   4  20
ATOM     20  C   UNL     1       4.162   4.015  16.940  0.00  0.00    +0.000 C 
BRANCH  20  21
ATOM     21  C   UNL     1       3.241   3.508  18.031  0.00  0.00    +0.000 A 
ATOM     22  C   UNL     1       1.850   3.492  17.846  0.00  0.00    +0.000 A 
ATOM     23  C   UNL     1       1.000   3.074  18.874  0.00  0.00    +0.000 A 
ATOM     24  C   UNL     1       1.532   2.661  20.094  0.00  0.00    +0.000 A 
ATOM     25  C   UNL     1       2.909   2.652  20.272  0.00  0.00    +0.000 A 
ATOM     26  F   UNL     1       3.423   2.244  21.439  0.00  0.00    +0.000 F 
ATOM     27  C   UNL     1       3.765   3.068  19.257  0.00  0.00    +0.000 A 
ENDBRANCH  20  21
ENDBRANCH   4  20
TORSDOF 6
ENDMDL
MODEL 2
REMARK VINA RESULT:      -7.4      0.929      1.615
REMARK  Name = 
REMARK  7 active torsions:
REMARK  status: ('A' for Active; 'I' for Inactive)
REMARK    1  A    between atoms: C_1  and  C_2
REMARK    2  A    between atoms: C_2  and  N_3
REMARK    3  A    between atoms: C_2  and  C_21
REMARK    4  A    between atoms: C_4  and  C_6
REMARK    5  A    between atoms: C_6  and  N_7
REMARK    6  A    between atoms: N_10  and  C_11
REMARK    7  A    between atoms: C_11  and  C_12
REMARK                            x       y       z     vdW  Elec       q    Type
REMARK                         _______ _______ _______ _____ _____    ______ ____
ROOT
ATOM      1  N   UNL     1       7.152   6.330  17.496  0.00  0.00    +0.000 NA
ATOM      2  C   UNL     1       6.127   5.931  18.494  0.00  0.00    +0.000 C 
ATOM      3  C   UNL     1       4.644   6.037  18.031  0.00  0.00    +0.000 C 
ATOM      4  N   UNL     1       4.353   5.442  16.705  0.00  0.00    +0.000 NA
ATOM      5  C   UNL     1       5.334   5.977  15.744  0.00  0.00    +0.000 C 
ATOM      6  C   UNL     1       6.796   5.755  16.176  0.00  0.00    +0.000 C 
ENDROOT
BRANCH   1   7
ATOM      7  C   UNL     1       7.260   7.814  17.445  0.00  0.00    +0.000 C 
BRANCH   7   9
ATOM      8  N   UNL     1       8.671   9.669  18.184  0.00  0.00    +0.000 N 
ATOM      9  C   UNL     1       8.364   8.342  18.375  0.00  0.00    +0.000 C 
ATOM     10  O   UNL     1       8.925   7.626  19.198  0.00  0.00    +0.000 OA
ATOM     11  H   UNL     1       8.062  10.175  17.547  0.00  0.00    +0.000 HD
BRANCH   8  13
ATOM     12  C   UNL     1       8.919  10.675  20.432  0.00  0.00    +0.000 C 
ATOM     13  C   UNL     1       9.557  10.406  19.063  0.00  0.00    +0.000 C 
BRANCH  13  14
ATOM     14  C   UNL     1       9.987  11.690  18.386  0.00  0.00    +0.000 A 
ATOM     15  C   UNL     1       9.174  12.828  18.480  0.00  0.00    +0.000 A 
ATOM     16  C   UNL     1       9.556  14.026  17.875  0.00  0.00    +0.000 A 
ATOM     17  C   UNL     1      10.756  14.102  17.174  0.00  0.00    +0.000 A 
ATOM     18  C   UNL     1      11.580  12.983  17.077  0.00  0.00    +0.000 A 
ATOM     19  C   UNL     1      11.199  11.784  17.680  0.00  0.00    +0.000 A 
ENDBRANCH  13  14
ENDBRANCH   8  13
ENDBRANCH   7   9
ENDBRANCH   1   7
BRANCH   4  20
ATOM     20  C   UNL     1       4.382   3.968  16.788  0.00  0.00    +0.000 C 
BRANCH  20  21
ATOM     21  C   UNL     1       3.535   3.379  17.899  0.00  0.00    +0.000 A 
ATOM     22  C   UNL     1       4.117   2.978  19.110  0.00  0.00    +0.000 A 
ATOM     23  C   UNL     1       3.342   2.386  20.112  0.00  0.00    +0.000 A 
ATOM     24  C   UNL     1       1.976   2.195  19.914  0.00  0.00    +0.000 A 
ATOM     25  C   UNL     1       1.392   2.612  18.725  0.00  0.00    +0.000 A 
ATOM     26  F   UNL     1       0.077   2.439  18.538  0.00  0.00    +0.000 F 
ATOM     27  C   UNL     1       2.154   3.201  17.721  0.00  0.00    +0.000 A 
ENDBRANCH  20  21
ENDBRANCH   4  20
TORSDOF 6
ENDMDL
MODEL 3
REMARK VINA RESULT:      -7.2      4.707      7.014
REMARK  Name = 
REMARK  7 active torsions:
REMARK  status: ('A' for Active; 'I' for Inactive)
REMARK    1  A    between atoms: C_1  and  C_2
REMARK    2  A    between atoms: C_2  and  N_3
REMARK    3  A    between atoms: C_2  and  C_21
REMARK    4  A    between atoms: C_4  and  C_6
REMARK    5  A    between atoms: C_6  and  N_7
REMARK    6  A    between atoms: N_10  and  C_11
REMARK    7  A    between atoms: C_11  and  C_12
REMARK                            x       y       z     vdW  Elec       q    Type
REMARK                         _______ _______ _______ _____ _____    ______ ____
ROOT
ATOM      1  N   UNL     1       4.833   5.725  16.676  0.00  0.00    +0.000 NA
ATOM      2  C   UNL     1       4.561   4.795  17.801  0.00  0.00    +0.000 C 
ATOM      3  C   UNL     1       4.428   5.446  19.210  0.00  0.00    +0.000 C 
ATOM      4  N   UNL     1       3.540   6.631  19.275  0.00  0.00    +0.000 NA
ATOM      5  C   UNL     1       3.947   7.561  18.207  0.00  0.00    +0.000 C 
ATOM      6  C   UNL     1       3.959   6.917  16.807  0.00  0.00    +0.000 C 
ENDROOT
BRANCH   1   7
ATOM      7  C   UNL     1       6.276   6.093  16.657  0.00  0.00    +0.000 C 
BRANCH   7   9
ATOM      8  N   UNL     1       6.764   5.334  14.385  0.00  0.00    +0.000 N 
ATOM      9  C   UNL     1       7.086   5.189  15.715  0.00  0.00    +0.000 C 
ATOM     10  O   UNL     1       7.930   4.401  16.128  0.00  0.00    +0.000 OA
ATOM     11  H   UNL     1       6.126   6.094  14.167  0.00  0.00    +0.000 HD
BRANCH   8  13
ATOM     12  C   UNL     1       8.211   5.736  12.417  0.00  0.00    +0.000 C 
ATOM     13  C   UNL     1       7.519   4.706  13.320  0.00  0.00    +0.000 C 
BRANCH  13  14
ATOM     14  C   UNL     1       6.609   3.792  12.527  0.00  0.00    +0.000 A 
ATOM     15  C   UNL     1       7.154   2.701  11.837  0.00  0.00    +0.000 A 
ATOM     16  C   UNL     1       6.334   1.837  11.111  0.00  0.00    +0.000 A 
ATOM     17  C   UNL     1       4.959   2.051  11.069  0.00  0.00    +0.000 A 
ATOM     18  C   UNL     1       4.399   3.127  11.755  0.00  0.00    +0.000 A 
ATOM     19  C   UNL     1       5.219   3.992  12.481  0.00  0.00    +0.000 A 
ENDBRANCH  13  14
ENDBRANCH   8  13
ENDBRANCH   7   9
ENDBRANCH   1   7
BRANCH   4  20
ATOM     20  C   UNL     1       2.127   6.218  19.163  0.00  0.00    +0.000 C 
BRANCH  20  21
ATOM     21  C   UNL     1       1.815   4.857  19.754  0.00  0.00    +0.000 A 
ATOM     22  C   UNL     1       2.101   4.575  21.098  0.00  0.00    +0.000 A 
ATOM     23  C   UNL     1       1.862   3.302  21.626  0.00  0.00    +0.000 A 
ATOM     24  C   UNL     1       1.328   2.302  20.816  0.00  0.00    +0.000 A 
ATOM     25  C   UNL     1       1.021   2.584  19.491  0.00  0.00    +0.000 A 
ATOM     26  F   UNL     1       0.498   1.627  18.715  0.00  0.00    +0.000 F 
ATOM     27  C   UNL     1       1.257   3.846  18.955  0.00  0.00    +0.000 A 
ENDBRANCH  20  21
ENDBRANCH   4  20
TORSDOF 6
ENDMDL
MODEL 4
REMARK VINA RESULT:      -7.1      5.449      8.359
REMARK  Name = 
REMARK  7 active torsions:
REMARK  status: ('A' for Active; 'I' for Inactive)
REMARK    1  A    between atoms: C_1  and  C_2
REMARK    2  A    between atoms: C_2  and  N_3
REMARK    3  A    between atoms: C_2  and  C_21
REMARK    4  A    between atoms: C_4  and  C_6
REMARK    5  A    between atoms: C_6  and  N_7
REMARK    6  A    between atoms: N_10  and  C_11
REMARK    7  A    between atoms: C_11  and  C_12
REMARK                            x       y       z     vdW  Elec       q    Type
REMARK                         _______ _______ _______ _____ _____    ______ ____
ROOT
ATOM      1  N   UNL     1       2.344   6.707  18.288  0.00  0.00    +0.000 NA
ATOM      2  C   UNL     1       3.698   6.710  17.679  0.00  0.00    +0.000 C 
ATOM      3  C   UNL     1       4.852   6.168  18.574  0.00  0.00    +0.000 C 
ATOM      4  N   UNL     1       4.575   4.875  19.245  0.00  0.00    +0.000 NA
ATOM      5  C   UNL     1       3.273   4.990  19.927  0.00  0.00    +0.000 C 
ATOM      6  C   UNL     1       2.128   5.418  18.989  0.00  0.00    +0.000 C 
ENDROOT
BRANCH   1   7
ATOM      7  C   UNL     1       2.197   7.871  19.205  0.00  0.00    +0.000 C 
BRANCH   7   9
ATOM      8  N   UNL     1       0.650   9.763  19.162  0.00  0.00    +0.000 N 
ATOM      9  C   UNL     1       1.649   9.109  18.479  0.00  0.00    +0.000 C 
ATOM     10  O   UNL     1       2.062   9.460  17.379  0.00  0.00    +0.000 OA
ATOM     11  H   UNL     1       0.474   9.434  20.107  0.00  0.00    +0.000 HD
BRANCH   8  13
ATOM     12  C   UNL     1       0.228  12.108  19.837  0.00  0.00    +0.000 C 
ATOM     13  C   UNL     1       0.115  11.042  18.739  0.00  0.00    +0.000 C 
BRANCH  13  14
ATOM     14  C   UNL     1      -1.317  10.864  18.282  0.00  0.00    +0.000 A 
ATOM     15  C   UNL     1      -2.321  11.685  18.813  0.00  0.00    +0.000 A 
ATOM     16  C   UNL     1      -3.646  11.548  18.397  0.00  0.00    +0.000 A 
ATOM     17  C   UNL     1      -3.982  10.592  17.441  0.00  0.00    +0.000 A 
ATOM     18  C   UNL     1      -2.995   9.773  16.897  0.00  0.00    +0.000 A 
ATOM     19  C   UNL     1      -1.670   9.909  17.313  0.00  0.00    +0.000 A 
ENDBRANCH  13  14
ENDBRANCH   8  13
ENDBRANCH   7   9
ENDBRANCH   1   7
BRANCH   4  20
ATOM     20  C   UNL     1       4.610   3.772  18.265  0.00  0.00    +0.000 C 
BRANCH  20  21
ATOM     21  C   UNL     1       5.431   4.054  17.022  0.00  0.00    +0.000 A 
ATOM     22  C   UNL     1       6.773   4.450  17.123  0.00  0.00    +0.000 A 
ATOM     23  C   UNL     1       7.512   4.761  15.976  0.00  0.00    +0.000 A 
ATOM     24  C   UNL     1       6.918   4.672  14.720  0.00  0.00    +0.000 A 
ATOM     25  C   UNL     1       5.597   4.255  14.614  0.00  0.00    +0.000 A 
ATOM     26  F   UNL     1       5.028   4.158  13.406  0.00  0.00    +0.000 F 
ATOM     27  C   UNL     1       4.852   3.946  15.748  0.00  0.00    +0.000 A 
ENDBRANCH  20  21
ENDBRANCH   4  20
TORSDOF 6
ENDMDL
MODEL 5
REMARK VINA RESULT:      -7.1      7.551      9.852
REMARK  Name = 
REMARK  7 active torsions:
REMARK  status: ('A' for Active; 'I' for Inactive)
REMARK    1  A    between atoms: C_1  and  C_2
REMARK    2  A    between atoms: C_2  and  N_3
REMARK    3  A    between atoms: C_2  and  C_21
REMARK    4  A    between atoms: C_4  and  C_6
REMARK    5  A    between atoms: C_6  and  N_7
REMARK    6  A    between atoms: N_10  and  C_11
REMARK    7  A    between atoms: C_11  and  C_12
REMARK                            x       y       z     vdW  Elec       q    Type
REMARK                         _______ _______ _______ _____ _____    ______ ____
ROOT
ATOM      1  N   UNL     1       0.322   8.774  20.406  0.00  0.00    +0.000 NA
ATOM      2  C   UNL     1      -0.393   8.799  21.707  0.00  0.00    +0.000 C 
ATOM      3  C   UNL     1      -0.011   9.957  22.676  0.00  0.00    +0.000 C 
ATOM      4  N   UNL     1       0.023  11.306  22.063  0.00  0.00    +0.000 NA
ATOM      5  C   UNL     1       0.849  11.229  20.845  0.00  0.00    +0.000 C 
ATOM      6  C   UNL     1       0.376  10.149  19.853  0.00  0.00    +0.000 C 
ENDROOT
BRANCH   1   7
ATOM      7  C   UNL     1       1.682   8.193  20.585  0.00  0.00    +0.000 C 
BRANCH   7   9
ATOM      8  N   UNL     1       2.324   6.207  19.312  0.00  0.00    +0.000 N 
ATOM      9  C   UNL     1       2.220   7.579  19.283  0.00  0.00    +0.000 C 
ATOM     10  O   UNL     1       2.540   8.265  18.318  0.00  0.00    +0.000 OA
ATOM     11  H   UNL     1       1.927   5.753  20.129  0.00  0.00    +0.000 HD
BRANCH   8  13
ATOM     12  C   UNL     1       1.858   4.103  18.094  0.00  0.00    +0.000 C 
ATOM     13  C   UNL     1       2.646   5.419  18.140  0.00  0.00    +0.000 C 
BRANCH  13  14
ATOM     14  C   UNL     1       4.139   5.176  18.089  0.00  0.00    +0.000 A 
ATOM     15  C   UNL     1       4.727   4.715  16.903  0.00  0.00    +0.000 A 
ATOM     16  C   UNL     1       6.102   4.497  16.828  0.00  0.00    +0.000 A 
ATOM     17  C   UNL     1       6.909   4.742  17.937  0.00  0.00    +0.000 A 
ATOM     18  C   UNL     1       6.343   5.207  19.122  0.00  0.00    +0.000 A 
ATOM     19  C   UNL     1       4.966   5.425  19.198  0.00  0.00    +0.000 A 
ENDBRANCH  13  14
ENDBRANCH   8  13
ENDBRANCH   7   9
ENDBRANCH   1   7
BRANCH   4  20
ATOM     20  C   UNL     1      -1.350  11.779  21.793  0.00  0.00    +0.000 C 
BRANCH  20  21
ATOM     21  C   UNL     1      -1.946  12.650  22.881  0.00  0.00    +0.000 A 
ATOM     22  C   UNL     1      -1.311  13.834  23.282  0.00  0.00    +0.000 A 
ATOM     23  C   UNL     1      -1.836  14.607  24.323  0.00  0.00    +0.000 A 
ATOM     24  C   UNL     1      -3.004  14.206  24.967  0.00  0.00    +0.000 A 
ATOM     25  C   UNL     1      -3.650  13.047  24.556  0.00  0.00    +0.000 A 
ATOM     26  F   UNL     1      -4.779  12.666  25.167  0.00  0.00    +0.000 F 
ATOM     27  C   UNL     1      -3.135  12.269  23.524  0.00  0.00    +0.000 A 
ENDBRANCH  20  21
ENDBRANCH   4  20
TORSDOF 6
ENDMDL
MODEL 6
REMARK VINA RESULT:      -7.1      7.580      9.835
REMARK  Name = 
REMARK  7 active torsions:
REMARK  status: ('A' for Active; 'I' for Inactive)
REMARK    1  A    between atoms: C_1  and  C_2
REMARK    2  A    between atoms: C_2  and  N_3
REMARK    3  A    between atoms: C_2  and  C_21
REMARK    4  A    between atoms: C_4  and  C_6
REMARK    5  A    between atoms: C_6  and  N_7
REMARK    6  A    between atoms: N_10  and  C_11
REMARK    7  A    between atoms: C_11  and  C_12
REMARK                            x       y       z     vdW  Elec       q    Type
REMARK                         _______ _______ _______ _____ _____    ______ ____
ROOT
ATOM      1  N   UNL     1       0.388   8.628  20.559  0.00  0.00    +0.000 NA
ATOM      2  C   UNL     1      -0.409   8.700  21.810  0.00  0.00    +0.000 C 
ATOM      3  C   UNL     1      -0.061   9.870  22.777  0.00  0.00    +0.000 C 
ATOM      4  N   UNL     1       0.046  11.204  22.139  0.00  0.00    +0.000 NA
ATOM      5  C   UNL     1       0.946  11.080  20.979  0.00  0.00    +0.000 C 
ATOM      6  C   UNL     1       0.511   9.990  19.982  0.00  0.00    +0.000 C 
ENDROOT
BRANCH   1   7
ATOM      7  C   UNL     1       1.718   8.020  20.838  0.00  0.00    +0.000 C 
BRANCH   7   9
ATOM      8  N   UNL     1       2.729   6.393  19.319  0.00  0.00    +0.000 N 
ATOM      9  C   UNL     1       1.807   6.575  20.324  0.00  0.00    +0.000 C 
ATOM     10  O   UNL     1       1.099   5.676  20.768  0.00  0.00    +0.000 OA
ATOM     11  H   UNL     1       3.323   7.192  19.117  0.00  0.00    +0.000 HD
BRANCH   8  13
ATOM     12  C   UNL     1       3.768   4.218  19.882  0.00  0.00    +0.000 C 
ATOM     13  C   UNL     1       3.092   5.085  18.812  0.00  0.00    +0.000 C 
BRANCH  13  14
ATOM     14  C   UNL     1       3.969   5.243  17.588  0.00  0.00    +0.000 A 
ATOM     15  C   UNL     1       4.362   4.109  16.866  0.00  0.00    +0.000 A 
ATOM     16  C   UNL     1       5.159   4.231  15.727  0.00  0.00    +0.000 A 
ATOM     17  C   UNL     1       5.568   5.490  15.294  0.00  0.00    +0.000 A 
ATOM     18  C   UNL     1       5.180   6.629  15.996  0.00  0.00    +0.000 A 
ATOM     19  C   UNL     1       4.384   6.508  17.135  0.00  0.00    +0.000 A 
ENDBRANCH  13  14
ENDBRANCH   8  13
ENDBRANCH   7   9
ENDBRANCH   1   7
BRANCH   4  20
ATOM     20  C   UNL     1      -1.294  11.704  21.771  0.00  0.00    +0.000 C 
BRANCH  20  21
ATOM     21  C   UNL     1      -1.956  12.577  22.818  0.00  0.00    +0.000 A 
ATOM     22  C   UNL     1      -1.367  13.784  23.222  0.00  0.00    +0.000 A 
ATOM     23  C   UNL     1      -1.952  14.561  24.227  0.00  0.00    +0.000 A 
ATOM     24  C   UNL     1      -3.135  14.142  24.832  0.00  0.00    +0.000 A 
ATOM     25  C   UNL     1      -3.734  12.959  24.417  0.00  0.00    +0.000 A 
ATOM     26  F   UNL     1      -4.876  12.560  24.990  0.00  0.00    +0.000 F 
ATOM     27  C   UNL     1      -3.159  12.177  23.421  0.00  0.00    +0.000 A 
ENDBRANCH  20  21
ENDBRANCH   4  20
TORSDOF 6
ENDMDL
MODEL 7
REMARK VINA RESULT:      -7.1      7.535     11.430
REMARK  Name = 
REMARK  7 active torsions:
REMARK  status: ('A' for Active; 'I' for Inactive)
REMARK    1  A    between atoms: C_1  and  C_2
REMARK    2  A    between atoms: C_2  and  N_3
REMARK    3  A    between atoms: C_2  and  C_21
REMARK    4  A    between atoms: C_4  and  C_6
REMARK    5  A    between atoms: C_6  and  N_7
REMARK    6  A    between atoms: N_10  and  C_11
REMARK    7  A    between atoms: C_11  and  C_12
REMARK                            x       y       z     vdW  Elec       q    Type
REMARK                         _______ _______ _______ _____ _____    ______ ____
ROOT
ATOM      1  N   UNL     1       0.463  10.782  19.750  0.00  0.00    +0.000 NA
ATOM      2  C   UNL     1       1.447  11.891  19.665  0.00  0.00    +0.000 C 
ATOM      3  C   UNL     1       1.240  12.901  18.497  0.00  0.00    +0.000 C 
ATOM      4  N   UNL     1      -0.145  13.407  18.340  0.00  0.00    +0.000 NA
ATOM      5  C   UNL     1      -1.050  12.244  18.311  0.00  0.00    +0.000 C 
ATOM      6  C   UNL     1      -0.901  11.324  19.538  0.00  0.00    +0.000 C 
ENDROOT
BRANCH   1   7
ATOM      7  C   UNL     1       0.802   9.725  18.757  0.00  0.00    +0.000 C 
BRANCH   7   9
ATOM      8  N   UNL     1       2.137   7.694  18.486  0.00  0.00    +0.000 N 
ATOM      9  C   UNL     1       1.584   8.567  19.396  0.00  0.00    +0.000 C 
ATOM     10  O   UNL     1       1.683   8.434  20.611  0.00  0.00    +0.000 OA
ATOM     11  H   UNL     1       2.072   7.975  17.512  0.00  0.00    +0.000 HD
BRANCH   8  13
ATOM     12  C   UNL     1       4.146   6.412  17.816  0.00  0.00    +0.000 C 
ATOM     13  C   UNL     1       3.051   6.636  18.867  0.00  0.00    +0.000 C 
BRANCH  13  14
ATOM     14  C   UNL     1       2.269   5.367  19.137  0.00  0.00    +0.000 A 
ATOM     15  C   UNL     1       1.901   4.540  18.067  0.00  0.00    +0.000 A 
ATOM     16  C   UNL     1       1.193   3.360  18.292  0.00  0.00    +0.000 A 
ATOM     17  C   UNL     1       0.848   2.989  19.589  0.00  0.00    +0.000 A 
ATOM     18  C   UNL     1       1.212   3.796  20.665  0.00  0.00    +0.000 A 
ATOM     19  C   UNL     1       1.920   4.978  20.441  0.00  0.00    +0.000 A 
ENDBRANCH  13  14
ENDBRANCH   8  13
ENDBRANCH   7   9
ENDBRANCH   1   7
BRANCH   4  20
ATOM     20  C   UNL     1      -0.468  14.356  19.423  0.00  0.00    +0.000 C 
BRANCH  20  21
ATOM     21  C   UNL     1       0.034  15.769  19.200  0.00  0.00    +0.000 A 
ATOM     22  C   UNL     1       1.020  16.319  20.032  0.00  0.00    +0.000 A 
ATOM     23  C   UNL     1       1.443  17.641  19.857  0.00  0.00    +0.000 A 
ATOM     24  C   UNL     1       0.889  18.422  18.846  0.00  0.00    +0.000 A 
ATOM     25  C   UNL     1      -0.070  17.872  18.004  0.00  0.00    +0.000 A 
ATOM     26  F   UNL     1      -0.596  18.618  17.024  0.00  0.00    +0.000 F 
ATOM     27  C   UNL     1      -0.500  16.560  18.171  0.00  0.00    +0.000 A 
ENDBRANCH  20  21
ENDBRANCH   4  20
TORSDOF 6
ENDMDL
MODEL 8
REMARK VINA RESULT:      -7.1      7.624      9.703
REMARK  Name = 
REMARK  7 active torsions:
REMARK  status: ('A' for Active; 'I' for Inactive)
REMARK    1  A    between atoms: C_1  and  C_2
REMARK    2  A    between atoms: C_2  and  N_3
REMARK    3  A    between atoms: C_2  and  C_21
REMARK    4  A    between atoms: C_4  and  C_6
REMARK    5  A    between atoms: C_6  and  N_7
REMARK    6  A    between atoms: N_10  and  C_11
REMARK    7  A    between atoms: C_11  and  C_12
REMARK                            x       y       z     vdW  Elec       q    Type
REMARK                         _______ _______ _______ _____ _____    ______ ____
ROOT
ATOM      1  N   UNL     1       0.340   9.210  20.138  0.00  0.00    +0.000 NA
ATOM      2  C   UNL     1      -0.464   9.131  21.384  0.00  0.00    +0.000 C 
ATOM      3  C   UNL     1      -0.134  10.189  22.479  0.00  0.00    +0.000 C 
ATOM      4  N   UNL     1      -0.039  11.587  21.996  0.00  0.00    +0.000 NA
ATOM      5  C   UNL     1       0.869  11.604  20.835  0.00  0.00    +0.000 C 
ATOM      6  C   UNL     1       0.451  10.628  19.718  0.00  0.00    +0.000 C 
ENDROOT
BRANCH   1   7
ATOM      7  C   UNL     1       1.676   8.588  20.354  0.00  0.00    +0.000 C 
BRANCH   7   9
ATOM      8  N   UNL     1       2.479   6.588  19.201  0.00  0.00    +0.000 N 
ATOM      9  C   UNL     1       2.219   7.933  19.075  0.00  0.00    +0.000 C 
ATOM     10  O   UNL     1       2.415   8.570  18.045  0.00  0.00    +0.000 OA
ATOM     11  H   UNL     1       2.175   6.160  20.071  0.00  0.00    +0.000 HD
BRANCH   8  13
ATOM     12  C   UNL     1       2.258   4.331  18.209  0.00  0.00    +0.000 C 
ATOM     13  C   UNL     1       2.833   5.747  18.075  0.00  0.00    +0.000 C 
BRANCH  13  14
ATOM     14  C   UNL     1       4.339   5.724  17.916  0.00  0.00    +0.000 A 
ATOM     15  C   UNL     1       5.143   5.314  18.989  0.00  0.00    +0.000 A 
ATOM     16  C   UNL     1       6.531   5.273  18.862  0.00  0.00    +0.000 A 
ATOM     17  C   UNL     1       7.133   5.634  17.659  0.00  0.00    +0.000 A 
ATOM     18  C   UNL     1       6.349   6.037  16.580  0.00  0.00    +0.000 A 
ATOM     19  C   UNL     1       4.960   6.080  16.707  0.00  0.00    +0.000 A 
ENDBRANCH  13  14
ENDBRANCH   8  13
ENDBRANCH   7   9
ENDBRANCH   1   7
BRANCH   4  20
ATOM     20  C   UNL     1      -1.382  12.110  21.678  0.00  0.00    +0.000 C 
BRANCH  20  21
ATOM     21  C   UNL     1      -2.081  12.807  22.828  0.00  0.00    +0.000 A 
ATOM     22  C   UNL     1      -1.611  14.037  23.314  0.00  0.00    +0.000 A 
ATOM     23  C   UNL     1      -2.225  14.651  24.410  0.00  0.00    +0.000 A 
ATOM     24  C   UNL     1      -3.318  14.045  25.026  0.00  0.00    +0.000 A 
ATOM     25  C   UNL     1      -3.801  12.840  24.532  0.00  0.00    +0.000 A 
ATOM     26  F   UNL     1      -4.859  12.262  25.116  0.00  0.00    +0.000 F 
ATOM     27  C   UNL     1      -3.197  12.219  23.444  0.00  0.00    +0.000 A 
ENDBRANCH  20  21
ENDBRANCH   4  20
TORSDOF 6
ENDMDL
MODEL 9
REMARK VINA RESULT:      -7.0      7.631      9.869
REMARK  Name = 
REMARK  7 active torsions:
REMARK  status: ('A' for Active; 'I' for Inactive)
REMARK    1  A    between atoms: C_1  and  C_2
REMARK    2  A    between atoms: C_2  and  N_3
REMARK    3  A    between atoms: C_2  and  C_21
REMARK    4  A    between atoms: C_4  and  C_6
REMARK    5  A    between atoms: C_6  and  N_7
REMARK    6  A    between atoms: N_10  and  C_11
REMARK    7  A    between atoms: C_11  and  C_12
REMARK                            x       y       z     vdW  Elec       q    Type
REMARK                         _______ _______ _______ _____ _____    ______ ____
ROOT
ATOM      1  N   UNL     1       0.397   8.552  20.606  0.00  0.00    +0.000 NA
ATOM      2  C   UNL     1      -0.413   8.602  21.849  0.00  0.00    +0.000 C 
ATOM      3  C   UNL     1      -0.067   9.747  22.847  0.00  0.00    +0.000 C 
ATOM      4  N   UNL     1       0.058  11.094  22.241  0.00  0.00    +0.000 NA
ATOM      5  C   UNL     1       0.971  10.989  21.088  0.00  0.00    +0.000 C 
ATOM      6  C   UNL     1       0.538   9.925  20.062  0.00  0.00    +0.000 C 
ENDROOT
BRANCH   1   7
ATOM      7  C   UNL     1       1.719   7.927  20.886  0.00  0.00    +0.000 C 
BRANCH   7   9
ATOM      8  N   UNL     1       2.726   6.328  19.335  0.00  0.00    +0.000 N 
ATOM      9  C   UNL     1       1.802   6.492  20.341  0.00  0.00    +0.000 C 
ATOM     10  O   UNL     1       1.089   5.588  20.763  0.00  0.00    +0.000 OA
ATOM     11  H   UNL     1       3.325   7.127  19.152  0.00  0.00    +0.000 HD
BRANCH   8  13
ATOM     12  C   UNL     1       3.752   4.135  19.854  0.00  0.00    +0.000 C 
ATOM     13  C   UNL     1       3.084   5.029  18.801  0.00  0.00    +0.000 C 
BRANCH  13  14
ATOM     14  C   UNL     1       3.966   5.210  17.583  0.00  0.00    +0.000 A 
ATOM     15  C   UNL     1       4.406   4.084  16.874  0.00  0.00    +0.000 A 
ATOM     16  C   UNL     1       5.208   4.226  15.741  0.00  0.00    +0.000 A 
ATOM     17  C   UNL     1       5.575   5.496  15.301  0.00  0.00    +0.000 A 
ATOM     18  C   UNL     1       5.140   6.626  15.990  0.00  0.00    +0.000 A 
ATOM     19  C   UNL     1       4.338   6.484  17.124  0.00  0.00    +0.000 A 
ENDBRANCH  13  14
ENDBRANCH   8  13
ENDBRANCH   7   9
ENDBRANCH   1   7
BRANCH   4  20
ATOM     20  C   UNL     1      -1.273  11.613  21.869  0.00  0.00    +0.000 C 
BRANCH  20  21
ATOM     21  C   UNL     1      -1.907  12.529  22.897  0.00  0.00    +0.000 A 
ATOM     22  C   UNL     1      -3.192  12.269  23.395  0.00  0.00    +0.000 A 
ATOM     23  C   UNL     1      -3.795  13.146  24.303  0.00  0.00    +0.000 A 
ATOM     24  C   UNL     1      -3.117  14.287  24.725  0.00  0.00    +0.000 A 
ATOM     25  C   UNL     1      -1.834  14.535  24.252  0.00  0.00    +0.000 A 
ATOM     26  F   UNL     1      -1.177  15.626  24.665  0.00  0.00    +0.000 F 
ATOM     27  C   UNL     1      -1.226  13.672  23.347  0.00  0.00    +0.000 A 
ENDBRANCH  20  21
ENDBRANCH   4  20
TORSDOF 6
ENDMDL
