MODEL 1
REMARK VINA RESULT:      -9.4      0.000      0.000
REMARK  Name = 
REMARK  10 active torsions:
REMARK  status: ('A' for Active; 'I' for Inactive)
REMARK    1  A    between atoms: C_1  and  N_2
REMARK    2  A    between atoms: C_3  and  C_5
REMARK    3  A    between atoms: C_10  and  N_11
REMARK    4  A    between atoms: N_11  and  C_12
REMARK    5  A    between atoms: N_11  and  C_16
REMARK    6  A    between atoms: C_12  and  C_13
REMARK    7  A    between atoms: C_22  and  C_23
REMARK    8  A    between atoms: N_26  and  C_27
REMARK    9  A    between atoms: C_27  and  C_28
REMARK   10  A    between atoms: C_27  and  C_29
REMARK                            x       y       z     vdW  Elec       q    Type
REMARK                         _______ _______ _______ _____ _____    ______ ____
ROOT
ATOM      1  C   UNL     1       2.769   6.997  18.734  0.00  0.00    +0.000 A 
ATOM      2  C   UNL     1       2.824   7.755  17.554  0.00  0.00    +0.000 A 
ATOM      3  C   UNL     1       2.229   9.012  17.470  0.00  0.00    +0.000 A 
ATOM      4  C   UNL     1       1.522   9.532  18.535  0.00  0.00    +0.000 A 
ATOM      5  N   UNL     1       0.938  10.737  18.405  0.00  0.00    +0.000 NA
ATOM      6  C   UNL     1       0.225  11.165  19.469  0.00  0.00    +0.000 A 
ATOM      7  C   UNL     1       0.082  10.429  20.636  0.00  0.00    +0.000 A 
ATOM      8  N   UNL     1       0.690   9.226  20.779  0.00  0.00    +0.000 NA
ATOM      9  C   UNL     1       1.412   8.780  19.728  0.00  0.00    +0.000 A 
ATOM     10  C   UNL     1       2.054   7.548  19.808  0.00  0.00    +0.000 A 
ENDROOT
BRANCH   7  11
ATOM     11  C   UNL     1      -0.755  10.893  21.726  0.00  0.00    +0.000 A 
ATOM     12  C   UNL     1      -0.909  10.402  23.042  0.00  0.00    +0.000 A 
ATOM     13  N   UNL     1      -1.752  11.133  23.774  0.00  0.00    +0.000 NA
ATOM     14  N   UNL     1      -2.145  12.107  22.930  0.00  0.00    +0.000 N 
ATOM     15  C   UNL     1      -1.580  12.001  21.690  0.00  0.00    +0.000 A 
BRANCH  14  16
ATOM     16  C   UNL     1      -3.062  13.145  23.389  0.00  0.00    +0.000 C 
ATOM     17  C   UNL     1      -4.075  12.596  24.393  0.00  0.00    +0.000 C 
ATOM     18  C   UNL     1      -2.305  14.340  23.970  0.00  0.00    +0.000 C 
ENDBRANCH  14  16
ENDBRANCH   7  11
BRANCH   1  19
ATOM     19  N   UNL     1       3.411   5.732  18.789  0.00  0.00    +0.000 N 
BRANCH  19  25
ATOM     20  C   UNL     1       6.413   5.164  16.580  0.00  0.00    +0.000 A 
ATOM     21  C   UNL     1       7.455   5.225  17.502  0.00  0.00    +0.000 A 
ATOM     22  C   UNL     1       7.140   5.359  18.841  0.00  0.00    +0.000 A 
ATOM     23  F   UNL     1       8.123   5.399  19.750  0.00  0.00    +0.000 F 
ATOM     24  C   UNL     1       5.814   5.454  19.262  0.00  0.00    +0.000 A 
ATOM     25  C   UNL     1       4.741   5.487  18.346  0.00  0.00    +0.000 A 
ATOM     26  C   UNL     1       5.074   5.328  16.995  0.00  0.00    +0.000 A 
BRANCH  20  29
ATOM     27  C   UNL     1       6.118   3.621  13.160  0.00  0.00    +0.000 C 
ATOM     28  N   UNL     1       5.855   4.081  14.498  0.00  0.00    +0.000 N 
ATOM     29  C   UNL     1       6.744   4.905  15.156  0.00  0.00    +0.000 C 
ATOM     30  O   UNL     1       7.768   5.356  14.653  0.00  0.00    +0.000 OA
ATOM     31  H   UNL     1       5.166   3.577  15.040  0.00  0.00    +0.000 HD
ENDBRANCH  20  29
ENDBRANCH  19  25
BRANCH  19  32
ATOM     32  C   UNL     1       2.689   4.639  19.491  0.00  0.00    +0.000 C 
BRANCH  32  33
ATOM     33  C   UNL     1       1.734   3.889  18.584  0.00  0.00    +0.000 C 
ATOM     34  C   UNL     1       2.117   2.588  17.924  0.00  0.00    +0.000 C 
ATOM     35  C   UNL     1       1.111   2.592  19.042  0.00  0.00    +0.000 C 
ENDBRANCH  32  33
ENDBRANCH  19  32
ENDBRANCH   1  19
TORSDOF 7
ENDMDL
MODEL 2
REMARK VINA RESULT:      -9.4      2.364      3.598
REMARK  Name = 
REMARK  10 active torsions:
REMARK  status: ('A' for Active; 'I' for Inactive)
REMARK    1  A    between atoms: C_1  and  N_2
REMARK    2  A    between atoms: C_3  and  C_5
REMARK    3  A    between atoms: C_10  and  N_11
REMARK    4  A    between atoms: N_11  and  C_12
REMARK    5  A    between atoms: N_11  and  C_16
REMARK    6  A    between atoms: C_12  and  C_13
REMARK    7  A    between atoms: C_22  and  C_23
REMARK    8  A    between atoms: N_26  and  C_27
REMARK    9  A    between atoms: C_27  and  C_28
REMARK   10  A    between atoms: C_27  and  C_29
REMARK                            x       y       z     vdW  Elec       q    Type
REMARK                         _______ _______ _______ _____ _____    ______ ____
ROOT
ATOM      1  C   UNL     1       2.565   6.154  18.697  0.00  0.00    +0.000 A 
ATOM      2  C   UNL     1       2.179   5.845  20.011  0.00  0.00    +0.000 A 
ATOM      3  C   UNL     1       1.596   6.801  20.840  0.00  0.00    +0.000 A 
ATOM      4  C   UNL     1       1.423   8.100  20.409  0.00  0.00    +0.000 A 
ATOM      5  N   UNL     1       0.883   9.000  21.249  0.00  0.00    +0.000 NA
ATOM      6  C   UNL     1       0.785  10.263  20.779  0.00  0.00    +0.000 A 
ATOM      7  C   UNL     1       1.210  10.639  19.513  0.00  0.00    +0.000 A 
ATOM      8  N   UNL     1       1.732   9.728  18.655  0.00  0.00    +0.000 NA
ATOM      9  C   UNL     1       1.836   8.459  19.103  0.00  0.00    +0.000 A 
ATOM     10  C   UNL     1       2.372   7.478  18.275  0.00  0.00    +0.000 A 
ENDROOT
BRANCH   7  11
ATOM     11  C   UNL     1       1.155  12.021  19.075  0.00  0.00    +0.000 A 
ATOM     12  C   UNL     1       0.052  12.882  18.883  0.00  0.00    +0.000 A 
ATOM     13  N   UNL     1       0.411  14.112  18.509  0.00  0.00    +0.000 NA
ATOM     14  N   UNL     1       1.756  14.050  18.461  0.00  0.00    +0.000 N 
ATOM     15  C   UNL     1       2.247  12.816  18.785  0.00  0.00    +0.000 A 
BRANCH  14  16
ATOM     16  C   UNL     1       2.531  15.238  18.117  0.00  0.00    +0.000 C 
ATOM     17  C   UNL     1       2.283  16.375  19.108  0.00  0.00    +0.000 C 
ATOM     18  C   UNL     1       4.022  14.919  18.007  0.00  0.00    +0.000 C 
ENDBRANCH  14  16
ENDBRANCH   7  11
BRANCH   1  19
ATOM     19  N   UNL     1       3.131   5.146  17.873  0.00  0.00    +0.000 N 
BRANCH  19  25
ATOM     20  C   UNL     1       6.334   4.998  15.889  0.00  0.00    +0.000 A 
ATOM     21  C   UNL     1       7.290   5.153  16.889  0.00  0.00    +0.000 A 
ATOM     22  C   UNL     1       6.864   5.210  18.203  0.00  0.00    +0.000 A 
ATOM     23  F   UNL     1       7.766   5.337  19.185  0.00  0.00    +0.000 F 
ATOM     24  C   UNL     1       5.509   5.137  18.523  0.00  0.00    +0.000 A 
ATOM     25  C   UNL     1       4.510   5.071  17.529  0.00  0.00    +0.000 A 
ATOM     26  C   UNL     1       4.958   4.992  16.204  0.00  0.00    +0.000 A 
BRANCH  20  29
ATOM     27  C   UNL     1       6.459   3.549  12.418  0.00  0.00    +0.000 C 
ATOM     28  N   UNL     1       6.050   3.935  13.742  0.00  0.00    +0.000 N 
ATOM     29  C   UNL     1       6.797   4.821  14.490  0.00  0.00    +0.000 C 
ATOM     30  O   UNL     1       7.805   5.388  14.082  0.00  0.00    +0.000 OA
ATOM     31  H   UNL     1       5.376   3.347  14.214  0.00  0.00    +0.000 HD
ENDBRANCH  20  29
ENDBRANCH  19  25
BRANCH  19  32
ATOM     32  C   UNL     1       2.243   4.023  17.475  0.00  0.00    +0.000 C 
BRANCH  32  33
ATOM     33  C   UNL     1       2.707   2.686  18.019  0.00  0.00    +0.000 C 
ATOM     34  C   UNL     1       3.031   2.488  19.479  0.00  0.00    +0.000 C 
ATOM     35  C   UNL     1       1.793   1.864  18.896  0.00  0.00    +0.000 C 
ENDBRANCH  32  33
ENDBRANCH  19  32
ENDBRANCH   1  19
TORSDOF 7
ENDMDL
MODEL 3
REMARK VINA RESULT:      -9.2      3.595      9.975
REMARK  Name = 
REMARK  10 active torsions:
REMARK  status: ('A' for Active; 'I' for Inactive)
REMARK    1  A    between atoms: C_1  and  N_2
REMARK    2  A    between atoms: C_3  and  C_5
REMARK    3  A    between atoms: C_10  and  N_11
REMARK    4  A    between atoms: N_11  and  C_12
REMARK    5  A    between atoms: N_11  and  C_16
REMARK    6  A    between atoms: C_12  and  C_13
REMARK    7  A    between atoms: C_22  and  C_23
REMARK    8  A    between atoms: N_26  and  C_27
REMARK    9  A    between atoms: C_27  and  C_28
REMARK   10  A    between atoms: C_27  and  C_29
REMARK                            x       y       z     vdW  Elec       q    Type
REMARK                         _______ _______ _______ _____ _____    ______ ____
ROOT
ATOM      1  C   UNL     1       1.859   7.641  19.943  0.00  0.00    +0.000 A 
ATOM      2  C   UNL     1       1.413   6.456  20.548  0.00  0.00    +0.000 A 
ATOM      3  C   UNL     1       1.929   5.215  20.179  0.00  0.00    +0.000 A 
ATOM      4  C   UNL     1       2.864   5.110  19.169  0.00  0.00    +0.000 A 
ATOM      5  N   UNL     1       3.316   3.891  18.823  0.00  0.00    +0.000 NA
ATOM      6  C   UNL     1       4.195   3.857  17.798  0.00  0.00    +0.000 A 
ATOM      7  C   UNL     1       4.621   4.991  17.122  0.00  0.00    +0.000 A 
ATOM      8  N   UNL     1       4.185   6.222  17.485  0.00  0.00    +0.000 NA
ATOM      9  C   UNL     1       3.309   6.280  18.510  0.00  0.00    +0.000 A 
ATOM     10  C   UNL     1       2.817   7.514  18.926  0.00  0.00    +0.000 A 
ENDROOT
BRANCH   7  11
ATOM     11  C   UNL     1       5.508   4.902  15.978  0.00  0.00    +0.000 A 
ATOM     12  C   UNL     1       6.795   5.445  15.766  0.00  0.00    +0.000 A 
ATOM     13  N   UNL     1       7.316   5.103  14.587  0.00  0.00    +0.000 NA
ATOM     14  N   UNL     1       6.364   4.330  14.030  0.00  0.00    +0.000 N 
ATOM     15  C   UNL     1       5.259   4.186  14.822  0.00  0.00    +0.000 A 
BRANCH  14  16
ATOM     16  C   UNL     1       6.588   3.724  12.721  0.00  0.00    +0.000 C 
ATOM     17  C   UNL     1       5.273   3.307  12.063  0.00  0.00    +0.000 C 
ATOM     18  C   UNL     1       7.389   4.652  11.807  0.00  0.00    +0.000 C 
ENDBRANCH  14  16
ENDBRANCH   7  11
BRANCH   1  19
ATOM     19  N   UNL     1       1.329   8.890  20.365  0.00  0.00    +0.000 N 
BRANCH  19  25
ATOM     20  C   UNL     1      -1.143  10.463  17.993  0.00  0.00    +0.000 A 
ATOM     21  C   UNL     1      -0.707  11.786  17.971  0.00  0.00    +0.000 A 
ATOM     22  C   UNL     1       0.443  12.110  18.664  0.00  0.00    +0.000 A 
ATOM     23  F   UNL     1       0.896  13.370  18.641  0.00  0.00    +0.000 F 
ATOM     24  C   UNL     1       1.143  11.144  19.388  0.00  0.00    +0.000 A 
ATOM     25  C   UNL     1       0.679   9.817  19.504  0.00  0.00    +0.000 A 
ATOM     26  C   UNL     1      -0.477   9.499  18.778  0.00  0.00    +0.000 A 
BRANCH  20  29
ATOM     27  C   UNL     1      -3.407  10.432  14.987  0.00  0.00    +0.000 C 
ATOM     28  N   UNL     1      -2.281  10.584  15.869  0.00  0.00    +0.000 N 
ATOM     29  C   UNL     1      -2.312  10.091  17.157  0.00  0.00    +0.000 C 
ATOM     30  O   UNL     1      -3.244   9.446  17.626  0.00  0.00    +0.000 OA
ATOM     31  H   UNL     1      -1.592  11.286  15.633  0.00  0.00    +0.000 HD
ENDBRANCH  20  29
ENDBRANCH  19  25
BRANCH  19  32
ATOM     32  C   UNL     1       1.330   9.163  21.826  0.00  0.00    +0.000 C 
BRANCH  32  33
ATOM     33  C   UNL     1      -0.067   9.258  22.406  0.00  0.00    +0.000 C 
ATOM     34  C   UNL     1      -0.307   9.595  23.857  0.00  0.00    +0.000 C 
ATOM     35  C   UNL     1      -0.641  10.601  22.790  0.00  0.00    +0.000 C 
ENDBRANCH  32  33
ENDBRANCH  19  32
ENDBRANCH   1  19
TORSDOF 7
ENDMDL
MODEL 4
REMARK VINA RESULT:      -9.0      2.189      3.448
REMARK  Name = 
REMARK  10 active torsions:
REMARK  status: ('A' for Active; 'I' for Inactive)
REMARK    1  A    between atoms: C_1  and  N_2
REMARK    2  A    between atoms: C_3  and  C_5
REMARK    3  A    between atoms: C_10  and  N_11
REMARK    4  A    between atoms: N_11  and  C_12
REMARK    5  A    between atoms: N_11  and  C_16
REMARK    6  A    between atoms: C_12  and  C_13
REMARK    7  A    between atoms: C_22  and  C_23
REMARK    8  A    between atoms: N_26  and  C_27
REMARK    9  A    between atoms: C_27  and  C_28
REMARK   10  A    between atoms: C_27  and  C_29
REMARK                            x       y       z     vdW  Elec       q    Type
REMARK                         _______ _______ _______ _____ _____    ______ ____
ROOT
ATOM      1  C   UNL     1       2.480   6.577  18.865  0.00  0.00    +0.000 A 
ATOM      2  C   UNL     1       2.171   6.274  20.200  0.00  0.00    +0.000 A 
ATOM      3  C   UNL     1       1.580   7.215  21.039  0.00  0.00    +0.000 A 
ATOM      4  C   UNL     1       1.322   8.496  20.595  0.00  0.00    +0.000 A 
ATOM      5  N   UNL     1       0.776   9.384  21.445  0.00  0.00    +0.000 NA
ATOM      6  C   UNL     1       0.592  10.630  20.959  0.00  0.00    +0.000 A 
ATOM      7  C   UNL     1       0.938  11.003  19.668  0.00  0.00    +0.000 A 
ATOM      8  N   UNL     1       1.464  10.103  18.802  0.00  0.00    +0.000 NA
ATOM      9  C   UNL     1       1.654   8.850  19.266  0.00  0.00    +0.000 A 
ATOM     10  C   UNL     1       2.200   7.881  18.429  0.00  0.00    +0.000 A 
ENDROOT
BRANCH   7  11
ATOM     11  C   UNL     1       0.792  12.372  19.210  0.00  0.00    +0.000 A 
ATOM     12  C   UNL     1      -0.296  13.023  18.586  0.00  0.00    +0.000 A 
ATOM     13  N   UNL     1      -0.062  14.315  18.351  0.00  0.00    +0.000 NA
ATOM     14  N   UNL     1       1.184  14.506  18.828  0.00  0.00    +0.000 N 
ATOM     15  C   UNL     1       1.738  13.369  19.346  0.00  0.00    +0.000 A 
BRANCH  14  16
ATOM     16  C   UNL     1       1.788  15.833  18.782  0.00  0.00    +0.000 C 
ATOM     17  C   UNL     1       2.957  15.884  17.798  0.00  0.00    +0.000 C 
ATOM     18  C   UNL     1       0.750  16.908  18.458  0.00  0.00    +0.000 C 
ENDBRANCH  14  16
ENDBRANCH   7  11
BRANCH   1  19
ATOM     19  N   UNL     1       3.057   5.582  18.032  0.00  0.00    +0.000 N 
BRANCH  19  25
ATOM     20  C   UNL     1       6.223   5.331  15.999  0.00  0.00    +0.000 A 
ATOM     21  C   UNL     1       7.186   5.704  16.933  0.00  0.00    +0.000 A 
ATOM     22  C   UNL     1       6.782   5.941  18.233  0.00  0.00    +0.000 A 
ATOM     23  F   UNL     1       7.692   6.280  19.156  0.00  0.00    +0.000 F 
ATOM     24  C   UNL     1       5.442   5.831  18.602  0.00  0.00    +0.000 A 
ATOM     25  C   UNL     1       4.430   5.544  17.661  0.00  0.00    +0.000 A 
ATOM     26  C   UNL     1       4.857   5.285  16.352  0.00  0.00    +0.000 A 
BRANCH  20  29
ATOM     27  C   UNL     1       6.173   3.573  12.672  0.00  0.00    +0.000 C 
ATOM     28  N   UNL     1       5.810   4.130  13.948  0.00  0.00    +0.000 N 
ATOM     29  C   UNL     1       6.670   4.966  14.631  0.00  0.00    +0.000 C 
ATOM     30  O   UNL     1       7.752   5.346  14.198  0.00  0.00    +0.000 OA
ATOM     31  H   UNL     1       5.056   3.688  14.454  0.00  0.00    +0.000 HD
ENDBRANCH  20  29
ENDBRANCH  19  25
BRANCH  19  32
ATOM     32  C   UNL     1       2.192   4.435  17.652  0.00  0.00    +0.000 C 
BRANCH  32  33
ATOM     33  C   UNL     1       1.907   3.505  18.814  0.00  0.00    +0.000 C 
ATOM     34  C   UNL     1       0.839   2.442  18.742  0.00  0.00    +0.000 C 
ATOM     35  C   UNL     1       2.290   2.047  18.733  0.00  0.00    +0.000 C 
ENDBRANCH  32  33
ENDBRANCH  19  32
ENDBRANCH   1  19
TORSDOF 7
ENDMDL
MODEL 5
REMARK VINA RESULT:      -9.0      0.806      1.002
REMARK  Name = 
REMARK  10 active torsions:
REMARK  status: ('A' for Active; 'I' for Inactive)
REMARK    1  A    between atoms: C_1  and  N_2
REMARK    2  A    between atoms: C_3  and  C_5
REMARK    3  A    between atoms: C_10  and  N_11
REMARK    4  A    between atoms: N_11  and  C_12
REMARK    5  A    between atoms: N_11  and  C_16
REMARK    6  A    between atoms: C_12  and  C_13
REMARK    7  A    between atoms: C_22  and  C_23
REMARK    8  A    between atoms: N_26  and  C_27
REMARK    9  A    between atoms: C_27  and  C_28
REMARK   10  A    between atoms: C_27  and  C_29
REMARK                            x       y       z     vdW  Elec       q    Type
REMARK                         _______ _______ _______ _____ _____    ______ ____
ROOT
ATOM      1  C   UNL     1       2.901   6.879  18.868  0.00  0.00    +0.000 A 
ATOM      2  C   UNL     1       2.949   7.572  17.649  0.00  0.00    +0.000 A 
ATOM      3  C   UNL     1       2.338   8.815  17.496  0.00  0.00    +0.000 A 
ATOM      4  C   UNL     1       1.622   9.383  18.531  0.00  0.00    +0.000 A 
ATOM      5  N   UNL     1       1.024  10.571  18.335  0.00  0.00    +0.000 NA
ATOM      6  C   UNL     1       0.303  11.047  19.374  0.00  0.00    +0.000 A 
ATOM      7  C   UNL     1       0.168  10.374  20.579  0.00  0.00    +0.000 A 
ATOM      8  N   UNL     1       0.792   9.189  20.787  0.00  0.00    +0.000 NA
ATOM      9  C   UNL     1       1.520   8.695  19.763  0.00  0.00    +0.000 A 
ATOM     10  C   UNL     1       2.178   7.478  19.910  0.00  0.00    +0.000 A 
ENDROOT
BRANCH   7  11
ATOM     11  C   UNL     1      -0.676  10.885  21.642  0.00  0.00    +0.000 A 
ATOM     12  C   UNL     1      -0.859  10.437  22.969  0.00  0.00    +0.000 A 
ATOM     13  N   UNL     1      -1.700  11.205  23.666  0.00  0.00    +0.000 NA
ATOM     14  N   UNL     1      -2.062  12.160  22.787  0.00  0.00    +0.000 N 
ATOM     15  C   UNL     1      -1.481  12.006  21.559  0.00  0.00    +0.000 A 
BRANCH  14  16
ATOM     16  C   UNL     1      -2.967  13.228  23.200  0.00  0.00    +0.000 C 
ATOM     17  C   UNL     1      -2.232  14.312  23.989  0.00  0.00    +0.000 C 
ATOM     18  C   UNL     1      -3.708  13.825  22.004  0.00  0.00    +0.000 C 
ENDBRANCH  14  16
ENDBRANCH   7  11
BRANCH   1  19
ATOM     19  N   UNL     1       3.560   5.627  18.992  0.00  0.00    +0.000 N 
BRANCH  19  25
ATOM     20  C   UNL     1       6.418   4.867  16.654  0.00  0.00    +0.000 A 
ATOM     21  C   UNL     1       7.518   5.030  17.492  0.00  0.00    +0.000 A 
ATOM     22  C   UNL     1       7.290   5.296  18.829  0.00  0.00    +0.000 A 
ATOM     23  F   UNL     1       8.330   5.435  19.662  0.00  0.00    +0.000 F 
ATOM     24  C   UNL     1       5.993   5.420  19.327  0.00  0.00    +0.000 A 
ATOM     25  C   UNL     1       4.861   5.351  18.488  0.00  0.00    +0.000 A 
ATOM     26  C   UNL     1       5.107   5.060  17.139  0.00  0.00    +0.000 A 
BRANCH  20  29
ATOM     27  C   UNL     1       7.732   5.129  13.136  0.00  0.00    +0.000 C 
ATOM     28  N   UNL     1       7.515   5.299  14.549  0.00  0.00    +0.000 N 
ATOM     29  C   UNL     1       6.658   4.470  15.243  0.00  0.00    +0.000 C 
ATOM     30  O   UNL     1       6.078   3.509  14.750  0.00  0.00    +0.000 OA
ATOM     31  H   UNL     1       7.773   6.186  14.959  0.00  0.00    +0.000 HD
ENDBRANCH  20  29
ENDBRANCH  19  25
BRANCH  19  32
ATOM     32  C   UNL     1       2.896   4.597  19.833  0.00  0.00    +0.000 C 
BRANCH  32  33
ATOM     33  C   UNL     1       1.802   3.852  19.094  0.00  0.00    +0.000 C 
ATOM     34  C   UNL     1       1.554   4.055  17.620  0.00  0.00    +0.000 C 
ATOM     35  C   UNL     1       2.156   2.765  18.107  0.00  0.00    +0.000 C 
ENDBRANCH  32  33
ENDBRANCH  19  32
ENDBRANCH   1  19
TORSDOF 7
ENDMDL
MODEL 6
REMARK VINA RESULT:      -8.9      2.198      3.309
REMARK  Name = 
REMARK  10 active torsions:
REMARK  status: ('A' for Active; 'I' for Inactive)
REMARK    1  A    between atoms: C_1  and  N_2
REMARK    2  A    between atoms: C_3  and  C_5
REMARK    3  A    between atoms: C_10  and  N_11
REMARK    4  A    between atoms: N_11  and  C_12
REMARK    5  A    between atoms: N_11  and  C_16
REMARK    6  A    between atoms: C_12  and  C_13
REMARK    7  A    between atoms: C_22  and  C_23
REMARK    8  A    between atoms: N_26  and  C_27
REMARK    9  A    between atoms: C_27  and  C_28
REMARK   10  A    between atoms: C_27  and  C_29
REMARK                            x       y       z     vdW  Elec       q    Type
REMARK                         _______ _______ _______ _____ _____    ______ ____
ROOT
ATOM      1  C   UNL     1       2.236   6.792  18.997  0.00  0.00    +0.000 A 
ATOM      2  C   UNL     1       1.712   6.572  20.280  0.00  0.00    +0.000 A 
ATOM      3  C   UNL     1       1.174   7.613  21.033  0.00  0.00    +0.000 A 
ATOM      4  C   UNL     1       1.184   8.909  20.557  0.00  0.00    +0.000 A 
ATOM      5  N   UNL     1       0.680   9.891  21.325  0.00  0.00    +0.000 NA
ATOM      6  C   UNL     1       0.763  11.139  20.817  0.00  0.00    +0.000 A 
ATOM      7  C   UNL     1       1.329  11.423  19.583  0.00  0.00    +0.000 A 
ATOM      8  N   UNL     1       1.814  10.432  18.796  0.00  0.00    +0.000 NA
ATOM      9  C   UNL     1       1.739   9.175  19.282  0.00  0.00    +0.000 A 
ATOM     10  C   UNL     1       2.227   8.113  18.527  0.00  0.00    +0.000 A 
ENDROOT
BRANCH   7  11
ATOM     11  C   UNL     1       1.465  12.787  19.108  0.00  0.00    +0.000 A 
ATOM     12  C   UNL     1       2.378  13.357  18.193  0.00  0.00    +0.000 A 
ATOM     13  N   UNL     1       2.155  14.654  17.976  0.00  0.00    +0.000 NA
ATOM     14  N   UNL     1       1.088  14.929  18.752  0.00  0.00    +0.000 N 
ATOM     15  C   UNL     1       0.644  13.843  19.454  0.00  0.00    +0.000 A 
BRANCH  14  16
ATOM     16  C   UNL     1       0.514  16.270  18.757  0.00  0.00    +0.000 C 
ATOM     17  C   UNL     1      -0.886  16.280  19.371  0.00  0.00    +0.000 C 
ATOM     18  C   UNL     1       1.432  17.267  19.465  0.00  0.00    +0.000 C 
ENDBRANCH  14  16
ENDBRANCH   7  11
BRANCH   1  19
ATOM     19  N   UNL     1       2.751   5.700  18.250  0.00  0.00    +0.000 N 
BRANCH  19  25
ATOM     20  C   UNL     1       6.052   5.183  16.503  0.00  0.00    +0.000 A 
ATOM     21  C   UNL     1       6.947   5.256  17.567  0.00  0.00    +0.000 A 
ATOM     22  C   UNL     1       6.438   5.381  18.846  0.00  0.00    +0.000 A 
ATOM     23  F   UNL     1       7.276   5.431  19.889  0.00  0.00    +0.000 F 
ATOM     24  C   UNL     1       5.063   5.455  19.068  0.00  0.00    +0.000 A 
ATOM     25  C   UNL     1       4.135   5.476  18.006  0.00  0.00    +0.000 A 
ATOM     26  C   UNL     1       4.665   5.327  16.717  0.00  0.00    +0.000 A 
BRANCH  20  29
ATOM     27  C   UNL     1       6.267   3.670  13.064  0.00  0.00    +0.000 C 
ATOM     28  N   UNL     1       5.808   4.120  14.351  0.00  0.00    +0.000 N 
ATOM     29  C   UNL     1       6.592   4.935  15.142  0.00  0.00    +0.000 C 
ATOM     30  O   UNL     1       7.680   5.385  14.802  0.00  0.00    +0.000 OA
ATOM     31  H   UNL     1       5.044   3.615  14.779  0.00  0.00    +0.000 HD
ENDBRANCH  20  29
ENDBRANCH  19  25
BRANCH  19  32
ATOM     32  C   UNL     1       1.783   4.655  17.828  0.00  0.00    +0.000 C 
BRANCH  32  33
ATOM     33  C   UNL     1       2.002   3.331  18.534  0.00  0.00    +0.000 C 
ATOM     34  C   UNL     1       1.448   3.059  19.910  0.00  0.00    +0.000 C 
ATOM     35  C   UNL     1       0.855   2.366  18.714  0.00  0.00    +0.000 C 
ENDBRANCH  32  33
ENDBRANCH  19  32
ENDBRANCH   1  19
TORSDOF 7
ENDMDL
MODEL 7
REMARK VINA RESULT:      -8.9      2.263      3.524
REMARK  Name = 
REMARK  10 active torsions:
REMARK  status: ('A' for Active; 'I' for Inactive)
REMARK    1  A    between atoms: C_1  and  N_2
REMARK    2  A    between atoms: C_3  and  C_5
REMARK    3  A    between atoms: C_10  and  N_11
REMARK    4  A    between atoms: N_11  and  C_12
REMARK    5  A    between atoms: N_11  and  C_16
REMARK    6  A    between atoms: C_12  and  C_13
REMARK    7  A    between atoms: C_22  and  C_23
REMARK    8  A    between atoms: N_26  and  C_27
REMARK    9  A    between atoms: C_27  and  C_28
REMARK   10  A    between atoms: C_27  and  C_29
REMARK                            x       y       z     vdW  Elec       q    Type
REMARK                         _______ _______ _______ _____ _____    ______ ____
ROOT
ATOM      1  C   UNL     1       2.319   6.550  19.022  0.00  0.00    +0.000 A 
ATOM      2  C   UNL     1       2.000   6.308  20.367  0.00  0.00    +0.000 A 
ATOM      3  C   UNL     1       1.457   7.304  21.175  0.00  0.00    +0.000 A 
ATOM      4  C   UNL     1       1.261   8.581  20.688  0.00  0.00    +0.000 A 
ATOM      5  N   UNL     1       0.761   9.523  21.507  0.00  0.00    +0.000 NA
ATOM      6  C   UNL     1       0.637  10.759  20.979  0.00  0.00    +0.000 A 
ATOM      7  C   UNL     1       0.998  11.071  19.677  0.00  0.00    +0.000 A 
ATOM      8  N   UNL     1       1.478  10.118  18.841  0.00  0.00    +0.000 NA
ATOM      9  C   UNL     1       1.607   8.873  19.347  0.00  0.00    +0.000 A 
ATOM     10  C   UNL     1       2.103   7.851  18.543  0.00  0.00    +0.000 A 
ENDROOT
BRANCH   7  11
ATOM     11  C   UNL     1       0.918  12.429  19.173  0.00  0.00    +0.000 A 
ATOM     12  C   UNL     1      -0.179  13.159  18.664  0.00  0.00    +0.000 A 
ATOM     13  N   UNL     1       0.139  14.413  18.335  0.00  0.00    +0.000 NA
ATOM     14  N   UNL     1       1.449  14.499  18.635  0.00  0.00    +0.000 N 
ATOM     15  C   UNL     1       1.962  13.333  19.133  0.00  0.00    +0.000 A 
BRANCH  14  16
ATOM     16  C   UNL     1       2.162  15.758  18.443  0.00  0.00    +0.000 C 
ATOM     17  C   UNL     1       1.206  16.951  18.453  0.00  0.00    +0.000 C 
ATOM     18  C   UNL     1       3.271  15.934  19.480  0.00  0.00    +0.000 C 
ENDBRANCH  14  16
ENDBRANCH   7  11
BRANCH   1  19
ATOM     19  N   UNL     1       2.846   5.501  18.223  0.00  0.00    +0.000 N 
BRANCH  19  25
ATOM     20  C   UNL     1       6.102   4.966  16.399  0.00  0.00    +0.000 A 
ATOM     21  C   UNL     1       7.031   5.194  17.411  0.00  0.00    +0.000 A 
ATOM     22  C   UNL     1       6.563   5.429  18.690  0.00  0.00    +0.000 A 
ATOM     23  F   UNL     1       7.437   5.630  19.686  0.00  0.00    +0.000 F 
ATOM     24  C   UNL     1       5.196   5.458  18.963  0.00  0.00    +0.000 A 
ATOM     25  C   UNL     1       4.229   5.321  17.944  0.00  0.00    +0.000 A 
ATOM     26  C   UNL     1       4.718   5.062  16.657  0.00  0.00    +0.000 A 
BRANCH  20  29
ATOM     27  C   UNL     1       7.999   5.338  13.170  0.00  0.00    +0.000 C 
ATOM     28  N   UNL     1       7.531   5.476  14.524  0.00  0.00    +0.000 N 
ATOM     29  C   UNL     1       6.602   4.601  15.050  0.00  0.00    +0.000 C 
ATOM     30  O   UNL     1       6.160   3.626  14.453  0.00  0.00    +0.000 OA
ATOM     31  H   UNL     1       7.674   6.366  14.981  0.00  0.00    +0.000 HD
ENDBRANCH  20  29
ENDBRANCH  19  25
BRANCH  19  32
ATOM     32  C   UNL     1       1.894   4.449  17.779  0.00  0.00    +0.000 C 
BRANCH  32  33
ATOM     33  C   UNL     1       1.921   3.220  18.666  0.00  0.00    +0.000 C 
ATOM     34  C   UNL     1       0.992   3.066  19.844  0.00  0.00    +0.000 C 
ATOM     35  C   UNL     1       0.790   2.221  18.616  0.00  0.00    +0.000 C 
ENDBRANCH  32  33
ENDBRANCH  19  32
ENDBRANCH   1  19
TORSDOF 7
ENDMDL
MODEL 8
REMARK VINA RESULT:      -8.8      2.139      2.860
REMARK  Name = 
REMARK  10 active torsions:
REMARK  status: ('A' for Active; 'I' for Inactive)
REMARK    1  A    between atoms: C_1  and  N_2
REMARK    2  A    between atoms: C_3  and  C_5
REMARK    3  A    between atoms: C_10  and  N_11
REMARK    4  A    between atoms: N_11  and  C_12
REMARK    5  A    between atoms: N_11  and  C_16
REMARK    6  A    between atoms: C_12  and  C_13
REMARK    7  A    between atoms: C_22  and  C_23
REMARK    8  A    between atoms: N_26  and  C_27
REMARK    9  A    between atoms: C_27  and  C_28
REMARK   10  A    between atoms: C_27  and  C_29
REMARK                            x       y       z     vdW  Elec       q    Type
REMARK                         _______ _______ _______ _____ _____    ______ ____
ROOT
ATOM      1  C   UNL     1       2.541   6.030  18.818  0.00  0.00    +0.000 A 
ATOM      2  C   UNL     1       2.137   5.618  20.098  0.00  0.00    +0.000 A 
ATOM      3  C   UNL     1       1.548   6.507  20.994  0.00  0.00    +0.000 A 
ATOM      4  C   UNL     1       1.388   7.838  20.667  0.00  0.00    +0.000 A 
ATOM      5  N   UNL     1       0.841   8.671  21.570  0.00  0.00    +0.000 NA
ATOM      6  C   UNL     1       0.755   9.968  21.202  0.00  0.00    +0.000 A 
ATOM      7  C   UNL     1       1.198  10.442  19.976  0.00  0.00    +0.000 A 
ATOM      8  N   UNL     1       1.726   9.600  19.054  0.00  0.00    +0.000 NA
ATOM      9  C   UNL     1       1.818   8.298  19.400  0.00  0.00    +0.000 A 
ATOM     10  C   UNL     1       2.360   7.384  18.501  0.00  0.00    +0.000 A 
ENDROOT
BRANCH   7  11
ATOM     11  C   UNL     1       1.155  11.855  19.651  0.00  0.00    +0.000 A 
ATOM     12  C   UNL     1       1.533  12.541  18.475  0.00  0.00    +0.000 A 
ATOM     13  N   UNL     1       1.301  13.853  18.541  0.00  0.00    +0.000 NA
ATOM     14  N   UNL     1       0.766  14.021  19.766  0.00  0.00    +0.000 N 
ATOM     15  C   UNL     1       0.665  12.853  20.471  0.00  0.00    +0.000 A 
BRANCH  14  16
ATOM     16  C   UNL     1       0.338  15.346  20.202  0.00  0.00    +0.000 C 
ATOM     17  C   UNL     1      -1.176  15.515  20.082  0.00  0.00    +0.000 C 
ATOM     18  C   UNL     1       0.814  15.646  21.623  0.00  0.00    +0.000 C 
ENDBRANCH  14  16
ENDBRANCH   7  11
BRANCH   1  19
ATOM     19  N   UNL     1       3.113   5.087  17.923  0.00  0.00    +0.000 N 
BRANCH  19  25
ATOM     20  C   UNL     1       6.310   5.004  15.927  0.00  0.00    +0.000 A 
ATOM     21  C   UNL     1       7.266   5.196  16.921  0.00  0.00    +0.000 A 
ATOM     22  C   UNL     1       6.844   5.257  18.236  0.00  0.00    +0.000 A 
ATOM     23  F   UNL     1       7.745   5.419  19.213  0.00  0.00    +0.000 F 
ATOM     24  C   UNL     1       5.492   5.150  18.562  0.00  0.00    +0.000 A 
ATOM     25  C   UNL     1       4.491   5.047  17.573  0.00  0.00    +0.000 A 
ATOM     26  C   UNL     1       4.937   4.965  16.247  0.00  0.00    +0.000 A 
BRANCH  20  29
ATOM     27  C   UNL     1       6.434   3.548  12.459  0.00  0.00    +0.000 C 
ATOM     28  N   UNL     1       6.025   3.937  13.782  0.00  0.00    +0.000 N 
ATOM     29  C   UNL     1       6.773   4.825  14.528  0.00  0.00    +0.000 C 
ATOM     30  O   UNL     1       7.780   5.392  14.118  0.00  0.00    +0.000 OA
ATOM     31  H   UNL     1       5.353   3.349  14.256  0.00  0.00    +0.000 HD
ENDBRANCH  20  29
ENDBRANCH  19  25
BRANCH  19  32
ATOM     32  C   UNL     1       2.231   3.991  17.444  0.00  0.00    +0.000 C 
BRANCH  32  33
ATOM     33  C   UNL     1       2.679   2.625  17.923  0.00  0.00    +0.000 C 
ATOM     34  C   UNL     1       3.085   2.375  19.354  0.00  0.00    +0.000 C 
ATOM     35  C   UNL     1       1.792   1.810  18.834  0.00  0.00    +0.000 C 
ENDBRANCH  32  33
ENDBRANCH  19  32
ENDBRANCH   1  19
TORSDOF 7
ENDMDL
MODEL 9
REMARK VINA RESULT:      -8.7      4.193     10.687
REMARK  Name = 
REMARK  10 active torsions:
REMARK  status: ('A' for Active; 'I' for Inactive)
REMARK    1  A    between atoms: C_1  and  N_2
REMARK    2  A    between atoms: C_3  and  C_5
REMARK    3  A    between atoms: C_10  and  N_11
REMARK    4  A    between atoms: N_11  and  C_12
REMARK    5  A    between atoms: N_11  and  C_16
REMARK    6  A    between atoms: C_12  and  C_13
REMARK    7  A    between atoms: C_22  and  C_23
REMARK    8  A    between atoms: N_26  and  C_27
REMARK    9  A    between atoms: C_27  and  C_28
REMARK   10  A    between atoms: C_27  and  C_29
REMARK                            x       y       z     vdW  Elec       q    Type
REMARK                         _______ _______ _______ _____ _____    ______ ____
ROOT
ATOM      1  C   UNL     1       1.277   9.123  19.270  0.00  0.00    +0.000 A 
ATOM      2  C   UNL     1       1.006   8.211  20.301  0.00  0.00    +0.000 A 
ATOM      3  C   UNL     1       1.720   7.021  20.425  0.00  0.00    +0.000 A 
ATOM      4  C   UNL     1       2.690   6.680  19.504  0.00  0.00    +0.000 A 
ATOM      5  N   UNL     1       3.339   5.510  19.642  0.00  0.00    +0.000 NA
ATOM      6  C   UNL     1       4.242   5.218  18.681  0.00  0.00    +0.000 A 
ATOM      7  C   UNL     1       4.504   6.052  17.604  0.00  0.00    +0.000 A 
ATOM      8  N   UNL     1       3.870   7.244  17.477  0.00  0.00    +0.000 NA
ATOM      9  C   UNL     1       2.965   7.557  18.428  0.00  0.00    +0.000 A 
ATOM     10  C   UNL     1       2.273   8.762  18.350  0.00  0.00    +0.000 A 
ENDROOT
BRANCH   7  11
ATOM     11  C   UNL     1       5.428   5.667  16.555  0.00  0.00    +0.000 A 
ATOM     12  C   UNL     1       6.812   5.911  16.411  0.00  0.00    +0.000 A 
ATOM     13  N   UNL     1       7.328   5.351  15.315  0.00  0.00    +0.000 NA
ATOM     14  N   UNL     1       6.274   4.735  14.746  0.00  0.00    +0.000 N 
ATOM     15  C   UNL     1       5.113   4.902  15.448  0.00  0.00    +0.000 A 
BRANCH  14  16
ATOM     16  C   UNL     1       6.453   3.965  13.519  0.00  0.00    +0.000 C 
ATOM     17  C   UNL     1       5.111   3.616  12.874  0.00  0.00    +0.000 C 
ATOM     18  C   UNL     1       7.364   4.694  12.532  0.00  0.00    +0.000 C 
ENDBRANCH  14  16
ENDBRANCH   7  11
BRANCH   1  19
ATOM     19  N   UNL     1       0.546  10.337  19.193  0.00  0.00    +0.000 N 
BRANCH  19  25
ATOM     20  C   UNL     1      -3.005  11.439  18.566  0.00  0.00    +0.000 A 
ATOM     21  C   UNL     1      -3.280  10.819  17.349  0.00  0.00    +0.000 A 
ATOM     22  C   UNL     1      -2.325   9.980  16.809  0.00  0.00    +0.000 A 
ATOM     23  F   UNL     1      -2.573   9.354  15.651  0.00  0.00    +0.000 F 
ATOM     24  C   UNL     1      -1.104   9.772  17.452  0.00  0.00    +0.000 A 
ATOM     25  C   UNL     1      -0.759  10.454  18.637  0.00  0.00    +0.000 A 
ATOM     26  C   UNL     1      -1.746  11.285  19.184  0.00  0.00    +0.000 A 
BRANCH  20  29
ATOM     27  C   UNL     1      -6.206  13.402  18.817  0.00  0.00    +0.000 C 
ATOM     28  N   UNL     1      -5.160  12.510  18.393  0.00  0.00    +0.000 N 
ATOM     29  C   UNL     1      -4.074  12.250  19.203  0.00  0.00    +0.000 C 
ATOM     30  O   UNL     1      -3.941  12.687  20.340  0.00  0.00    +0.000 OA
ATOM     31  H   UNL     1      -5.092  12.304  17.406  0.00  0.00    +0.000 HD
ENDBRANCH  20  29
ENDBRANCH  19  25
BRANCH  19  32
ATOM     32  C   UNL     1       1.132  11.522  19.873  0.00  0.00    +0.000 C 
BRANCH  32  33
ATOM     33  C   UNL     1       1.831  12.463  18.913  0.00  0.00    +0.000 C 
ATOM     34  C   UNL     1       1.212  13.769  18.482  0.00  0.00    +0.000 C 
ATOM     35  C   UNL     1       2.397  13.772  19.409  0.00  0.00    +0.000 C 
ENDBRANCH  32  33
ENDBRANCH  19  32
ENDBRANCH   1  19
TORSDOF 7
ENDMDL
