MODEL 1
REMARK VINA RESULT:      -7.0      0.000      0.000
REMARK  Name = 
REMARK  4 active torsions:
REMARK  status: ('A' for Active; 'I' for Inactive)
REMARK    1  A    between atoms: C_1  and  C_2
REMARK    2  A    between atoms: C_7  and  C_8
REMARK    3  A    between atoms: C_8  and  N_9
REMARK    4  A    between atoms: C_12  and  C_13
REMARK                            x       y       z     vdW  Elec       q    Type
REMARK                         _______ _______ _______ _____ _____    ______ ____
ROOT
ATOM      1  N   UNL     1       5.936   4.677  17.907  0.00  0.00    +0.000 N 
ATOM      2  C   UNL     1       7.301   4.729  17.866  0.00  0.00    +0.000 A 
ATOM      3  N   UNL     1       7.751   4.632  16.634  0.00  0.00    +0.000 NA
ATOM      4  C   UNL     1       6.631   4.492  15.850  0.00  0.00    +0.000 A 
ATOM      5  C   UNL     1       5.493   4.485  16.626  0.00  0.00    +0.000 A 
ENDROOT
BRANCH   4   6
ATOM      6  C   UNL     1       6.749   4.370  14.397  0.00  0.00    +0.000 A 
ATOM      7  C   UNL     1       7.633   5.169  13.609  0.00  0.00    +0.000 A 
ATOM      8  C   UNL     1       7.563   4.854  12.269  0.00  0.00    +0.000 A 
ATOM      9  S   UNL     1       6.438   3.602  11.961  0.00  0.00    +0.000 S 
ATOM     10  C   UNL     1       6.042   3.476  13.622  0.00  0.00    +0.000 A 
ENDBRANCH   4   6
BRANCH   1  11
ATOM     11  C   UNL     1       5.114   4.707  19.105  0.00  0.00    +0.000 C 
BRANCH  11  18
ATOM     12  C   UNL     1       2.564   6.197  18.304  0.00  0.00    +0.000 C 
ATOM     13  C   UNL     1       2.604   4.710  18.527  0.00  0.00    +0.000 A 
ATOM     14  C   UNL     1       1.406   3.987  18.378  0.00  0.00    +0.000 A 
ATOM     15  C   UNL     1       1.366   2.609  18.576  0.00  0.00    +0.000 A 
ATOM     16  C   UNL     1       2.520   1.928  18.937  0.00  0.00    +0.000 A 
ATOM     17  C   UNL     1       3.715   2.628  19.103  0.00  0.00    +0.000 A 
ATOM     18  C   UNL     1       3.781   4.021  18.903  0.00  0.00    +0.000 A 
ENDBRANCH  11  18
ENDBRANCH   1  11
TORSDOF 3
ENDMDL
MODEL 2
REMARK VINA RESULT:      -6.8      0.428      1.631
REMARK  Name = 
REMARK  4 active torsions:
REMARK  status: ('A' for Active; 'I' for Inactive)
REMARK    1  A    between atoms: C_1  and  C_2
REMARK    2  A    between atoms: C_7  and  C_8
REMARK    3  A    between atoms: C_8  and  N_9
REMARK    4  A    between atoms: C_12  and  C_13
REMARK                            x       y       z     vdW  Elec       q    Type
REMARK                         _______ _______ _______ _____ _____    ______ ____
ROOT
ATOM      1  N   UNL     1       5.748   4.866  17.962  0.00  0.00    +0.000 N 
ATOM      2  C   UNL     1       7.114   4.822  17.986  0.00  0.00    +0.000 A 
ATOM      3  N   UNL     1       7.614   4.672  16.779  0.00  0.00    +0.000 NA
ATOM      4  C   UNL     1       6.526   4.598  15.943  0.00  0.00    +0.000 A 
ATOM      5  C   UNL     1       5.355   4.683  16.664  0.00  0.00    +0.000 A 
ENDROOT
BRANCH   4   6
ATOM      6  C   UNL     1       6.704   4.442  14.499  0.00  0.00    +0.000 A 
ATOM      7  C   UNL     1       7.612   5.231  13.729  0.00  0.00    +0.000 A 
ATOM      8  C   UNL     1       7.599   4.884  12.395  0.00  0.00    +0.000 A 
ATOM      9  S   UNL     1       6.498   3.615  12.072  0.00  0.00    +0.000 S 
ATOM     10  C   UNL     1       6.036   3.524  13.718  0.00  0.00    +0.000 A 
ENDBRANCH   4   6
BRANCH   1  11
ATOM     11  C   UNL     1       4.875   4.974  19.118  0.00  0.00    +0.000 C 
BRANCH  11  18
ATOM     12  C   UNL     1       4.549   2.113  20.154  0.00  0.00    +0.000 C 
ATOM     13  C   UNL     1       3.452   2.851  19.437  0.00  0.00    +0.000 A 
ATOM     14  C   UNL     1       2.235   2.178  19.222  0.00  0.00    +0.000 A 
ATOM     15  C   UNL     1       1.177   2.796  18.559  0.00  0.00    +0.000 A 
ATOM     16  C   UNL     1       1.319   4.095  18.089  0.00  0.00    +0.000 A 
ATOM     17  C   UNL     1       2.521   4.774  18.280  0.00  0.00    +0.000 A 
ATOM     18  C   UNL     1       3.603   4.171  18.953  0.00  0.00    +0.000 A 
ENDBRANCH  11  18
ENDBRANCH   1  11
TORSDOF 3
ENDMDL
MODEL 3
REMARK VINA RESULT:      -6.6      4.578      7.020
REMARK  Name = 
REMARK  4 active torsions:
REMARK  status: ('A' for Active; 'I' for Inactive)
REMARK    1  A    between atoms: C_1  and  C_2
REMARK    2  A    between atoms: C_7  and  C_8
REMARK    3  A    between atoms: C_8  and  N_9
REMARK    4  A    between atoms: C_12  and  C_13
REMARK                            x       y       z     vdW  Elec       q    Type
REMARK                         _______ _______ _______ _____ _____    ______ ____
ROOT
ATOM      1  N   UNL     1       2.810   7.149  18.985  0.00  0.00    +0.000 N 
ATOM      2  C   UNL     1       2.922   7.658  17.721  0.00  0.00    +0.000 A 
ATOM      3  N   UNL     1       2.186   8.738  17.569  0.00  0.00    +0.000 NA
ATOM      4  C   UNL     1       1.560   8.922  18.778  0.00  0.00    +0.000 A 
ATOM      5  C   UNL     1       1.909   7.925  19.662  0.00  0.00    +0.000 A 
ENDROOT
BRANCH   4   6
ATOM      6  C   UNL     1       0.659  10.056  18.986  0.00  0.00    +0.000 A 
ATOM      7  C   UNL     1      -0.576  10.218  18.286  0.00  0.00    +0.000 A 
ATOM      8  C   UNL     1      -1.243  11.362  18.668  0.00  0.00    +0.000 A 
ATOM      9  S   UNL     1      -0.386  12.237  19.862  0.00  0.00    +0.000 S 
ATOM     10  C   UNL     1       0.880  11.086  19.874  0.00  0.00    +0.000 A 
ENDBRANCH   4   6
BRANCH   1  11
ATOM     11  C   UNL     1       3.445   5.939  19.479  0.00  0.00    +0.000 C 
BRANCH  11  18
ATOM     12  C   UNL     1       3.863   4.072  17.090  0.00  0.00    +0.000 C 
ATOM     13  C   UNL     1       2.800   3.842  18.130  0.00  0.00    +0.000 A 
ATOM     14  C   UNL     1       1.956   2.726  17.975  0.00  0.00    +0.000 A 
ATOM     15  C   UNL     1       0.945   2.455  18.895  0.00  0.00    +0.000 A 
ATOM     16  C   UNL     1       0.753   3.297  19.981  0.00  0.00    +0.000 A 
ATOM     17  C   UNL     1       1.572   4.414  20.146  0.00  0.00    +0.000 A 
ATOM     18  C   UNL     1       2.603   4.707  19.231  0.00  0.00    +0.000 A 
ENDBRANCH  11  18
ENDBRANCH   1  11
TORSDOF 3
ENDMDL
MODEL 4
REMARK VINA RESULT:      -6.6      1.367      1.745
REMARK  Name = 
REMARK  4 active torsions:
REMARK  status: ('A' for Active; 'I' for Inactive)
REMARK    1  A    between atoms: C_1  and  C_2
REMARK    2  A    between atoms: C_7  and  C_8
REMARK    3  A    between atoms: C_8  and  N_9
REMARK    4  A    between atoms: C_12  and  C_13
REMARK                            x       y       z     vdW  Elec       q    Type
REMARK                         _______ _______ _______ _____ _____    ______ ____
ROOT
ATOM      1  N   UNL     1       5.111   5.429  17.729  0.00  0.00    +0.000 N 
ATOM      2  C   UNL     1       4.921   6.590  17.034  0.00  0.00    +0.000 A 
ATOM      3  N   UNL     1       5.210   6.443  15.760  0.00  0.00    +0.000 NA
ATOM      4  C   UNL     1       5.620   5.138  15.630  0.00  0.00    +0.000 A 
ATOM      5  C   UNL     1       5.598   4.499  16.851  0.00  0.00    +0.000 A 
ENDROOT
BRANCH   4   6
ATOM      6  C   UNL     1       6.013   4.605  14.325  0.00  0.00    +0.000 A 
ATOM      7  C   UNL     1       5.197   3.715  13.561  0.00  0.00    +0.000 A 
ATOM      8  C   UNL     1       5.788   3.366  12.366  0.00  0.00    +0.000 A 
ATOM      9  S   UNL     1       7.317   4.106  12.165  0.00  0.00    +0.000 S 
ATOM     10  C   UNL     1       7.193   4.898  13.677  0.00  0.00    +0.000 A 
ENDBRANCH   4   6
BRANCH   1  11
ATOM     11  C   UNL     1       4.935   5.250  19.160  0.00  0.00    +0.000 C 
BRANCH  11  18
ATOM     12  C   UNL     1       2.368   6.798  19.776  0.00  0.00    +0.000 C 
ATOM     13  C   UNL     1       2.435   5.294  19.776  0.00  0.00    +0.000 A 
ATOM     14  C   UNL     1       1.264   4.582  20.094  0.00  0.00    +0.000 A 
ATOM     15  C   UNL     1       1.253   3.189  20.121  0.00  0.00    +0.000 A 
ATOM     16  C   UNL     1       2.414   2.482  19.840  0.00  0.00    +0.000 A 
ATOM     17  C   UNL     1       3.588   3.170  19.535  0.00  0.00    +0.000 A 
ATOM     18  C   UNL     1       3.622   4.579  19.497  0.00  0.00    +0.000 A 
ENDBRANCH  11  18
ENDBRANCH   1  11
TORSDOF 3
ENDMDL
MODEL 5
REMARK VINA RESULT:      -6.6      1.377      2.285
REMARK  Name = 
REMARK  4 active torsions:
REMARK  status: ('A' for Active; 'I' for Inactive)
REMARK    1  A    between atoms: C_1  and  C_2
REMARK    2  A    between atoms: C_7  and  C_8
REMARK    3  A    between atoms: C_8  and  N_9
REMARK    4  A    between atoms: C_12  and  C_13
REMARK                            x       y       z     vdW  Elec       q    Type
REMARK                         _______ _______ _______ _____ _____    ______ ____
ROOT
ATOM      1  N   UNL     1       5.110   4.888  17.817  0.00  0.00    +0.000 N 
ATOM      2  C   UNL     1       4.827   6.099  17.249  0.00  0.00    +0.000 A 
ATOM      3  N   UNL     1       5.112   6.108  15.965  0.00  0.00    +0.000 NA
ATOM      4  C   UNL     1       5.615   4.858  15.697  0.00  0.00    +0.000 A 
ATOM      5  C   UNL     1       5.653   4.094  16.844  0.00  0.00    +0.000 A 
ENDROOT
BRANCH   4   6
ATOM      6  C   UNL     1       6.030   4.496  14.342  0.00  0.00    +0.000 A 
ATOM      7  C   UNL     1       5.276   3.630  13.492  0.00  0.00    +0.000 A 
ATOM      8  C   UNL     1       5.876   3.454  12.264  0.00  0.00    +0.000 A 
ATOM      9  S   UNL     1       7.342   4.328  12.135  0.00  0.00    +0.000 S 
ATOM     10  C   UNL     1       7.176   4.946  13.722  0.00  0.00    +0.000 A 
ENDBRANCH   4   6
BRANCH   1  11
ATOM     11  C   UNL     1       4.963   4.547  19.222  0.00  0.00    +0.000 C 
BRANCH  11  18
ATOM     12  C   UNL     1       3.718   1.785  18.791  0.00  0.00    +0.000 C 
ATOM     13  C   UNL     1       2.960   2.937  19.391  0.00  0.00    +0.000 A 
ATOM     14  C   UNL     1       1.614   2.728  19.747  0.00  0.00    +0.000 A 
ATOM     15  C   UNL     1       0.848   3.752  20.301  0.00  0.00    +0.000 A 
ATOM     16  C   UNL     1       1.409   5.006  20.501  0.00  0.00    +0.000 A 
ATOM     17  C   UNL     1       2.737   5.236  20.143  0.00  0.00    +0.000 A 
ATOM     18  C   UNL     1       3.533   4.215  19.586  0.00  0.00    +0.000 A 
ENDBRANCH  11  18
ENDBRANCH   1  11
TORSDOF 3
ENDMDL
MODEL 6
REMARK VINA RESULT:      -6.6      1.374      1.546
REMARK  Name = 
REMARK  4 active torsions:
REMARK  status: ('A' for Active; 'I' for Inactive)
REMARK    1  A    between atoms: C_1  and  C_2
REMARK    2  A    between atoms: C_7  and  C_8
REMARK    3  A    between atoms: C_8  and  N_9
REMARK    4  A    between atoms: C_12  and  C_13
REMARK                            x       y       z     vdW  Elec       q    Type
REMARK                         _______ _______ _______ _____ _____    ______ ____
ROOT
ATOM      1  N   UNL     1       4.941   5.340  17.950  0.00  0.00    +0.000 N 
ATOM      2  C   UNL     1       4.630   6.484  17.270  0.00  0.00    +0.000 A 
ATOM      3  N   UNL     1       4.972   6.400  16.003  0.00  0.00    +0.000 NA
ATOM      4  C   UNL     1       5.544   5.159  15.864  0.00  0.00    +0.000 A 
ATOM      5  C   UNL     1       5.565   4.496  17.071  0.00  0.00    +0.000 A 
ENDROOT
BRANCH   4   6
ATOM      6  C   UNL     1       6.037   4.706  14.562  0.00  0.00    +0.000 A 
ATOM      7  C   UNL     1       7.249   5.180  13.972  0.00  0.00    +0.000 A 
ATOM      8  C   UNL     1       7.495   4.593  12.750  0.00  0.00    +0.000 A 
ATOM      9  S   UNL     1       6.272   3.478  12.314  0.00  0.00    +0.000 S 
ATOM     10  C   UNL     1       5.410   3.776  13.763  0.00  0.00    +0.000 A 
ENDBRANCH   4   6
BRANCH   1  11
ATOM     11  C   UNL     1       4.747   5.110  19.372  0.00  0.00    +0.000 C 
BRANCH  11  18
ATOM     12  C   UNL     1       2.218   6.692  20.056  0.00  0.00    +0.000 C 
ATOM     13  C   UNL     1       2.245   5.190  19.980  0.00  0.00    +0.000 A 
ATOM     14  C   UNL     1       1.055   4.493  20.259  0.00  0.00    +0.000 A 
ATOM     15  C   UNL     1       1.007   3.101  20.216  0.00  0.00    +0.000 A 
ATOM     16  C   UNL     1       2.151   2.379  19.903  0.00  0.00    +0.000 A 
ATOM     17  C   UNL     1       3.344   3.051  19.637  0.00  0.00    +0.000 A 
ATOM     18  C   UNL     1       3.415   4.458  19.670  0.00  0.00    +0.000 A 
ENDBRANCH  11  18
ENDBRANCH   1  11
TORSDOF 3
ENDMDL
MODEL 7
REMARK VINA RESULT:      -6.5      0.936      1.251
REMARK  Name = 
REMARK  4 active torsions:
REMARK  status: ('A' for Active; 'I' for Inactive)
REMARK    1  A    between atoms: C_1  and  C_2
REMARK    2  A    between atoms: C_7  and  C_8
REMARK    3  A    between atoms: C_8  and  N_9
REMARK    4  A    between atoms: C_12  and  C_13
REMARK                            x       y       z     vdW  Elec       q    Type
REMARK                         _______ _______ _______ _____ _____    ______ ____
ROOT
ATOM      1  N   UNL     1       5.640   4.973  17.994  0.00  0.00    +0.000 N 
ATOM      2  C   UNL     1       6.992   4.773  18.020  0.00  0.00    +0.000 A 
ATOM      3  N   UNL     1       7.472   4.559  16.814  0.00  0.00    +0.000 NA
ATOM      4  C   UNL     1       6.382   4.605  15.978  0.00  0.00    +0.000 A 
ATOM      5  C   UNL     1       5.228   4.829  16.697  0.00  0.00    +0.000 A 
ENDROOT
BRANCH   4   6
ATOM      6  C   UNL     1       6.541   4.421  14.535  0.00  0.00    +0.000 A 
ATOM      7  C   UNL     1       5.706   3.564  13.755  0.00  0.00    +0.000 A 
ATOM      8  C   UNL     1       6.055   3.572  12.422  0.00  0.00    +0.000 A 
ATOM      9  S   UNL     1       7.382   4.608  12.111  0.00  0.00    +0.000 S 
ATOM     10  C   UNL     1       7.492   5.050  13.761  0.00  0.00    +0.000 A 
ENDBRANCH   4   6
BRANCH   1  11
ATOM     11  C   UNL     1       4.785   5.188  19.149  0.00  0.00    +0.000 C 
BRANCH  11  18
ATOM     12  C   UNL     1       2.028   5.791  20.332  0.00  0.00    +0.000 C 
ATOM     13  C   UNL     1       2.403   4.441  19.784  0.00  0.00    +0.000 A 
ATOM     14  C   UNL     1       1.442   3.415  19.841  0.00  0.00    +0.000 A 
ATOM     15  C   UNL     1       1.721   2.138  19.360  0.00  0.00    +0.000 A 
ATOM     16  C   UNL     1       2.970   1.860  18.820  0.00  0.00    +0.000 A 
ATOM     17  C   UNL     1       3.940   2.860  18.765  0.00  0.00    +0.000 A 
ATOM     18  C   UNL     1       3.679   4.160  19.242  0.00  0.00    +0.000 A 
ENDBRANCH  11  18
ENDBRANCH   1  11
TORSDOF 3
ENDMDL
MODEL 8
REMARK VINA RESULT:      -6.5      3.544      6.490
REMARK  Name = 
REMARK  4 active torsions:
REMARK  status: ('A' for Active; 'I' for Inactive)
REMARK    1  A    between atoms: C_1  and  C_2
REMARK    2  A    between atoms: C_7  and  C_8
REMARK    3  A    between atoms: C_8  and  N_9
REMARK    4  A    between atoms: C_12  and  C_13
REMARK                            x       y       z     vdW  Elec       q    Type
REMARK                         _______ _______ _______ _____ _____    ______ ____
ROOT
ATOM      1  N   UNL     1       3.645   4.864  19.451  0.00  0.00    +0.000 N 
ATOM      2  C   UNL     1       2.676   4.741  20.408  0.00  0.00    +0.000 A 
ATOM      3  N   UNL     1       1.940   5.827  20.493  0.00  0.00    +0.000 NA
ATOM      4  C   UNL     1       2.466   6.694  19.566  0.00  0.00    +0.000 A 
ATOM      5  C   UNL     1       3.549   6.126  18.930  0.00  0.00    +0.000 A 
ENDROOT
BRANCH   4   6
ATOM      6  C   UNL     1       1.881   8.021  19.368  0.00  0.00    +0.000 A 
ATOM      7  C   UNL     1       1.954   8.737  18.135  0.00  0.00    +0.000 A 
ATOM      8  C   UNL     1       1.318   9.958  18.205  0.00  0.00    +0.000 A 
ATOM      9  S   UNL     1       0.636  10.240  19.748  0.00  0.00    +0.000 S 
ATOM     10  C   UNL     1       1.188   8.727  20.328  0.00  0.00    +0.000 A 
ENDBRANCH   4   6
BRANCH   1  11
ATOM     11  C   UNL     1       4.659   3.876  19.129  0.00  0.00    +0.000 C 
BRANCH  11  18
ATOM     12  C   UNL     1       7.245   5.512  19.185  0.00  0.00    +0.000 C 
ATOM     13  C   UNL     1       6.637   4.990  17.911  0.00  0.00    +0.000 A 
ATOM     14  C   UNL     1       7.284   5.292  16.699  0.00  0.00    +0.000 A 
ATOM     15  C   UNL     1       6.774   4.850  15.480  0.00  0.00    +0.000 A 
ATOM     16  C   UNL     1       5.603   4.105  15.450  0.00  0.00    +0.000 A 
ATOM     17  C   UNL     1       4.939   3.806  16.639  0.00  0.00    +0.000 A 
ATOM     18  C   UNL     1       5.439   4.239  17.884  0.00  0.00    +0.000 A 
ENDBRANCH  11  18
ENDBRANCH   1  11
TORSDOF 3
ENDMDL
MODEL 9
REMARK VINA RESULT:      -6.5      1.509      2.063
REMARK  Name = 
REMARK  4 active torsions:
REMARK  status: ('A' for Active; 'I' for Inactive)
REMARK    1  A    between atoms: C_1  and  C_2
REMARK    2  A    between atoms: C_7  and  C_8
REMARK    3  A    between atoms: C_8  and  N_9
REMARK    4  A    between atoms: C_12  and  C_13
REMARK                            x       y       z     vdW  Elec       q    Type
REMARK                         _______ _______ _______ _____ _____    ______ ____
ROOT
ATOM      1  N   UNL     1       4.432   5.437  18.276  0.00  0.00    +0.000 N 
ATOM      2  C   UNL     1       5.569   4.792  18.674  0.00  0.00    +0.000 A 
ATOM      3  N   UNL     1       6.314   4.447  17.647  0.00  0.00    +0.000 NA
ATOM      4  C   UNL     1       5.619   4.869  16.539  0.00  0.00    +0.000 A 
ATOM      5  C   UNL     1       4.429   5.458  16.908  0.00  0.00    +0.000 A 
ENDROOT
BRANCH   4   6
ATOM      6  C   UNL     1       6.161   4.663  15.195  0.00  0.00    +0.000 A 
ATOM      7  C   UNL     1       5.554   3.810  14.224  0.00  0.00    +0.000 A 
ATOM      8  C   UNL     1       6.254   3.795  13.036  0.00  0.00    +0.000 A 
ATOM      9  S   UNL     1       7.635   4.803  13.091  0.00  0.00    +0.000 S 
ATOM     10  C   UNL     1       7.300   5.265  14.705  0.00  0.00    +0.000 A 
ENDBRANCH   4   6
BRANCH   1  11
ATOM     11  C   UNL     1       3.368   5.910  19.145  0.00  0.00    +0.000 C 
BRANCH  11  18
ATOM     12  C   UNL     1       1.312   4.284  17.565  0.00  0.00    +0.000 C 
ATOM     13  C   UNL     1       1.624   4.019  19.013  0.00  0.00    +0.000 A 
ATOM     14  C   UNL     1       0.918   2.990  19.662  0.00  0.00    +0.000 A 
ATOM     15  C   UNL     1       1.148   2.693  21.004  0.00  0.00    +0.000 A 
ATOM     16  C   UNL     1       2.082   3.426  21.724  0.00  0.00    +0.000 A 
ATOM     17  C   UNL     1       2.782   4.459  21.102  0.00  0.00    +0.000 A 
ATOM     18  C   UNL     1       2.569   4.774  19.745  0.00  0.00    +0.000 A 
ENDBRANCH  11  18
ENDBRANCH   1  11
TORSDOF 3
ENDMDL
