MODEL 1
REMARK VINA RESULT:      -7.7      0.000      0.000
REMARK  Name = 
REMARK  4 active torsions:
REMARK  status: ('A' for Active; 'I' for Inactive)
REMARK    1  A    between atoms: C_2  and  C_3
REMARK    2  A    between atoms: C_4  and  N_5
REMARK    3  A    between atoms: C_11  and  C_12
REMARK    4  A    between atoms: C_12  and  O_14
REMARK                            x       y       z     vdW  Elec       q    Type
REMARK                         _______ _______ _______ _____ _____    ______ ____
ROOT
ATOM      1  N   UNL     1       1.392   8.926  19.507  0.00  0.00    +0.000 N 
ATOM      2  C   UNL     1       2.055   8.932  18.301  0.00  0.00    +0.000 C 
ATOM      3  O   UNL     1       2.109   9.737  17.391  0.00  0.00    +0.000 OA
ATOM      4  C   UNL     1       2.812   7.685  18.240  0.00  0.00    +0.000 A 
ATOM      5  C   UNL     1       3.663   7.213  17.255  0.00  0.00    +0.000 A 
ATOM      6  C   UNL     1       4.244   5.953  17.446  0.00  0.00    +0.000 A 
ATOM      7  C   UNL     1       3.943   5.184  18.597  0.00  0.00    +0.000 A 
ATOM      8  C   UNL     1       3.080   5.701  19.583  0.00  0.00    +0.000 A 
ATOM      9  C   UNL     1       2.540   6.960  19.379  0.00  0.00    +0.000 A 
ATOM     10  C   UNL     1       1.610   7.748  20.190  0.00  0.00    +0.000 C 
ATOM     11  O   UNL     1       1.102   7.299  21.197  0.00  0.00    +0.000 OA
ENDROOT
BRANCH   1  13
ATOM     12  C   UNL     1      -0.596  10.500  19.318  0.00  0.00    +0.000 A 
ATOM     13  C   UNL     1       0.498   9.905  19.935  0.00  0.00    +0.000 A 
ATOM     14  S   UNL     1       0.756  10.593  21.490  0.00  0.00    +0.000 S 
ATOM     15  C   UNL     1      -0.518  11.691  21.318  0.00  0.00    +0.000 A 
ATOM     16  C   UNL     1      -1.204  11.517  20.135  0.00  0.00    +0.000 A 
ATOM     17  C   UNL     1      -2.448  12.301  19.825  0.00  0.00    +0.000 C 
ATOM     18  C   UNL     1      -2.594  13.544  20.717  0.00  0.00    +0.000 C 
ATOM     19  C   UNL     1      -2.254  13.255  22.186  0.00  0.00    +0.000 C 
ATOM     20  C   UNL     1      -0.822  12.726  22.356  0.00  0.00    +0.000 C 
BRANCH  12  22
ATOM     21  N   UNL     1      -1.633   9.739  17.062  0.00  0.00    +0.000 NA
ATOM     22  C   UNL     1      -1.142  10.099  18.054  0.00  0.00    +0.000 C 
ENDBRANCH  12  22
ENDBRANCH   1  13
BRANCH   7  23
ATOM     23  C   UNL     1       4.562   3.855  18.859  0.00  0.00    +0.000 C 
ATOM     24  O   UNL     1       3.883   2.861  19.053  0.00  0.00    +0.000 OA
BRANCH  23  25
ATOM     25  O   UNL     1       5.909   3.819  18.834  0.00  0.00    +0.000 OA
ATOM     26  H   UNL     1       6.350   3.880  17.969  0.00  0.00    +0.000 HD
ENDBRANCH  23  25
ENDBRANCH   7  23
TORSDOF 4
ENDMDL
MODEL 2
REMARK VINA RESULT:      -7.7      2.739      7.793
REMARK  Name = 
REMARK  4 active torsions:
REMARK  status: ('A' for Active; 'I' for Inactive)
REMARK    1  A    between atoms: C_2  and  C_3
REMARK    2  A    between atoms: C_4  and  N_5
REMARK    3  A    between atoms: C_11  and  C_12
REMARK    4  A    between atoms: C_12  and  O_14
REMARK                            x       y       z     vdW  Elec       q    Type
REMARK                         _______ _______ _______ _____ _____    ______ ____
ROOT
ATOM      1  N   UNL     1       2.505   7.512  18.662  0.00  0.00    +0.000 N 
ATOM      2  C   UNL     1       2.012   8.730  18.253  0.00  0.00    +0.000 C 
ATOM      3  O   UNL     1       2.092   9.345  17.207  0.00  0.00    +0.000 OA
ATOM      4  C   UNL     1       1.255   9.267  19.380  0.00  0.00    +0.000 A 
ATOM      5  C   UNL     1       0.538  10.447  19.483  0.00  0.00    +0.000 A 
ATOM      6  C   UNL     1      -0.078  10.730  20.708  0.00  0.00    +0.000 A 
ATOM      7  C   UNL     1       0.054   9.845  21.806  0.00  0.00    +0.000 A 
ATOM      8  C   UNL     1       0.783   8.648  21.661  0.00  0.00    +0.000 A 
ATOM      9  C   UNL     1       1.361   8.384  20.431  0.00  0.00    +0.000 A 
ATOM     10  C   UNL     1       2.183   7.260  19.978  0.00  0.00    +0.000 C 
ATOM     11  O   UNL     1       2.544   6.385  20.739  0.00  0.00    +0.000 OA
ENDROOT
BRANCH   1  13
ATOM     12  C   UNL     1       3.245   5.364  17.520  0.00  0.00    +0.000 A 
ATOM     13  C   UNL     1       3.346   6.694  17.910  0.00  0.00    +0.000 A 
ATOM     14  S   UNL     1       4.833   7.367  17.365  0.00  0.00    +0.000 S 
ATOM     15  C   UNL     1       5.349   5.910  16.681  0.00  0.00    +0.000 A 
ATOM     16  C   UNL     1       4.397   4.918  16.779  0.00  0.00    +0.000 A 
ATOM     17  C   UNL     1       4.590   3.575  16.134  0.00  0.00    +0.000 C 
ATOM     18  C   UNL     1       6.059   3.311  15.763  0.00  0.00    +0.000 C 
ATOM     19  C   UNL     1       6.734   4.536  15.131  0.00  0.00    +0.000 C 
ATOM     20  C   UNL     1       6.702   5.758  16.058  0.00  0.00    +0.000 C 
BRANCH  12  22
ATOM     21  N   UNL     1       1.195   3.809  17.866  0.00  0.00    +0.000 NA
ATOM     22  C   UNL     1       2.096   4.534  17.729  0.00  0.00    +0.000 C 
ENDBRANCH  12  22
ENDBRANCH   1  13
BRANCH   7  23
ATOM     23  C   UNL     1      -0.611  10.086  23.117  0.00  0.00    +0.000 C 
ATOM     24  O   UNL     1      -1.586  10.810  23.216  0.00  0.00    +0.000 OA
BRANCH  23  25
ATOM     25  O   UNL     1      -0.086   9.429  24.170  0.00  0.00    +0.000 OA
ATOM     26  H   UNL     1      -0.340   8.499  24.299  0.00  0.00    +0.000 HD
ENDBRANCH  23  25
ENDBRANCH   7  23
TORSDOF 4
ENDMDL
MODEL 3
REMARK VINA RESULT:      -7.6      1.080      2.204
REMARK  Name = 
REMARK  4 active torsions:
REMARK  status: ('A' for Active; 'I' for Inactive)
REMARK    1  A    between atoms: C_2  and  C_3
REMARK    2  A    between atoms: C_4  and  N_5
REMARK    3  A    between atoms: C_11  and  C_12
REMARK    4  A    between atoms: C_12  and  O_14
REMARK                            x       y       z     vdW  Elec       q    Type
REMARK                         _______ _______ _______ _____ _____    ______ ____
ROOT
ATOM      1  N   UNL     1       1.255   8.915  19.396  0.00  0.00    +0.000 N 
ATOM      2  C   UNL     1       1.584   7.782  20.104  0.00  0.00    +0.000 C 
ATOM      3  O   UNL     1       1.220   7.345  21.179  0.00  0.00    +0.000 OA
ATOM      4  C   UNL     1       2.550   7.052  19.289  0.00  0.00    +0.000 A 
ATOM      5  C   UNL     1       3.174   5.839  19.529  0.00  0.00    +0.000 A 
ATOM      6  C   UNL     1       4.090   5.378  18.575  0.00  0.00    +0.000 A 
ATOM      7  C   UNL     1       4.379   6.145  17.420  0.00  0.00    +0.000 A 
ATOM      8  C   UNL     1       3.718   7.370  17.204  0.00  0.00    +0.000 A 
ATOM      9  C   UNL     1       2.799   7.789  18.153  0.00  0.00    +0.000 A 
ATOM     10  C   UNL     1       1.981   9.000  18.227  0.00  0.00    +0.000 C 
ATOM     11  O   UNL     1       2.090   9.896  17.414  0.00  0.00    +0.000 OA
ENDROOT
BRANCH   1  13
ATOM     12  C   UNL     1      -0.702  10.535  19.281  0.00  0.00    +0.000 A 
ATOM     13  C   UNL     1       0.412   9.928  19.849  0.00  0.00    +0.000 A 
ATOM     14  S   UNL     1       0.780  10.650  21.366  0.00  0.00    +0.000 S 
ATOM     15  C   UNL     1      -0.475  11.776  21.239  0.00  0.00    +0.000 A 
ATOM     16  C   UNL     1      -1.235  11.589  20.105  0.00  0.00    +0.000 A 
ATOM     17  C   UNL     1      -2.476  12.397  19.846  0.00  0.00    +0.000 C 
ATOM     18  C   UNL     1      -2.537  13.666  20.711  0.00  0.00    +0.000 C 
ATOM     19  C   UNL     1      -2.116  13.407  22.165  0.00  0.00    +0.000 C 
ATOM     20  C   UNL     1      -0.691  12.846  22.264  0.00  0.00    +0.000 C 
BRANCH  12  22
ATOM     21  N   UNL     1      -1.836   9.839  17.051  0.00  0.00    +0.000 NA
ATOM     22  C   UNL     1      -1.332  10.115  18.064  0.00  0.00    +0.000 C 
ENDBRANCH  12  22
ENDBRANCH   1  13
BRANCH   7  23
ATOM     23  C   UNL     1       5.320   5.681  16.363  0.00  0.00    +0.000 C 
ATOM     24  O   UNL     1       5.878   4.600  16.433  0.00  0.00    +0.000 OA
BRANCH  23  25
ATOM     25  O   UNL     1       5.484   6.515  15.317  0.00  0.00    +0.000 OA
ATOM     26  H   UNL     1       5.591   6.121  14.433  0.00  0.00    +0.000 HD
ENDBRANCH  23  25
ENDBRANCH   7  23
TORSDOF 4
ENDMDL
MODEL 4
REMARK VINA RESULT:      -7.2      1.249      2.213
REMARK  Name = 
REMARK  4 active torsions:
REMARK  status: ('A' for Active; 'I' for Inactive)
REMARK    1  A    between atoms: C_2  and  C_3
REMARK    2  A    between atoms: C_4  and  N_5
REMARK    3  A    between atoms: C_11  and  C_12
REMARK    4  A    between atoms: C_12  and  O_14
REMARK                            x       y       z     vdW  Elec       q    Type
REMARK                         _______ _______ _______ _____ _____    ______ ____
ROOT
ATOM      1  N   UNL     1       1.507   8.700  19.385  0.00  0.00    +0.000 N 
ATOM      2  C   UNL     1       2.219   8.781  18.210  0.00  0.00    +0.000 C 
ATOM      3  O   UNL     1       2.304   9.640  17.353  0.00  0.00    +0.000 OA
ATOM      4  C   UNL     1       2.984   7.543  18.105  0.00  0.00    +0.000 A 
ATOM      5  C   UNL     1       3.878   7.134  17.129  0.00  0.00    +0.000 A 
ATOM      6  C   UNL     1       4.458   5.867  17.266  0.00  0.00    +0.000 A 
ATOM      7  C   UNL     1       4.116   5.029  18.356  0.00  0.00    +0.000 A 
ATOM      8  C   UNL     1       3.210   5.482  19.335  0.00  0.00    +0.000 A 
ATOM      9  C   UNL     1       2.672   6.749  19.186  0.00  0.00    +0.000 A 
ATOM     10  C   UNL     1       1.705   7.484  20.004  0.00  0.00    +0.000 C 
ATOM     11  O   UNL     1       1.159   6.973  20.961  0.00  0.00    +0.000 OA
ENDROOT
BRANCH   1  13
ATOM     12  C   UNL     1       0.266  10.096  21.109  0.00  0.00    +0.000 A 
ATOM     13  C   UNL     1       0.590   9.647  19.835  0.00  0.00    +0.000 A 
ATOM     14  S   UNL     1      -0.401  10.417  18.659  0.00  0.00    +0.000 S 
ATOM     15  C   UNL     1      -1.274  11.278  19.822  0.00  0.00    +0.000 A 
ATOM     16  C   UNL     1      -0.798  11.067  21.098  0.00  0.00    +0.000 A 
ATOM     17  C   UNL     1      -1.343  11.823  22.277  0.00  0.00    +0.000 C 
ATOM     18  C   UNL     1      -2.700  12.478  21.973  0.00  0.00    +0.000 C 
ATOM     19  C   UNL     1      -2.733  13.146  20.591  0.00  0.00    +0.000 C 
ATOM     20  C   UNL     1      -2.435  12.152  19.460  0.00  0.00    +0.000 C 
BRANCH  12  22
ATOM     21  N   UNL     1       1.467   9.449  23.319  0.00  0.00    +0.000 NA
ATOM     22  C   UNL     1       0.960   9.729  22.309  0.00  0.00    +0.000 C 
ENDBRANCH  12  22
ENDBRANCH   1  13
BRANCH   7  23
ATOM     23  C   UNL     1       4.731   3.689  18.562  0.00  0.00    +0.000 C 
ATOM     24  O   UNL     1       5.424   3.446  19.535  0.00  0.00    +0.000 OA
BRANCH  23  25
ATOM     25  O   UNL     1       4.445   2.762  17.626  0.00  0.00    +0.000 OA
ATOM     26  H   UNL     1       3.799   2.071  17.852  0.00  0.00    +0.000 HD
ENDBRANCH  23  25
ENDBRANCH   7  23
TORSDOF 4
ENDMDL
MODEL 5
REMARK VINA RESULT:      -7.2      2.828      8.123
REMARK  Name = 
REMARK  4 active torsions:
REMARK  status: ('A' for Active; 'I' for Inactive)
REMARK    1  A    between atoms: C_2  and  C_3
REMARK    2  A    between atoms: C_4  and  N_5
REMARK    3  A    between atoms: C_11  and  C_12
REMARK    4  A    between atoms: C_12  and  O_14
REMARK                            x       y       z     vdW  Elec       q    Type
REMARK                         _______ _______ _______ _____ _____    ______ ____
ROOT
ATOM      1  N   UNL     1       2.611   7.457  18.814  0.00  0.00    +0.000 N 
ATOM      2  C   UNL     1       2.113   7.091  20.044  0.00  0.00    +0.000 C 
ATOM      3  O   UNL     1       2.299   6.123  20.756  0.00  0.00    +0.000 OA
ATOM      4  C   UNL     1       1.220   8.167  20.463  0.00  0.00    +0.000 A 
ATOM      5  C   UNL     1       0.488   8.305  21.630  0.00  0.00    +0.000 A 
ATOM      6  C   UNL     1      -0.319   9.442  21.761  0.00  0.00    +0.000 A 
ATOM      7  C   UNL     1      -0.398  10.398  20.719  0.00  0.00    +0.000 A 
ATOM      8  C   UNL     1       0.368  10.228  19.549  0.00  0.00    +0.000 A 
ATOM      9  C   UNL     1       1.176   9.107  19.458  0.00  0.00    +0.000 A 
ATOM     10  C   UNL     1       2.057   8.644  18.384  0.00  0.00    +0.000 C 
ATOM     11  O   UNL     1       2.119   9.218  17.316  0.00  0.00    +0.000 OA
ENDROOT
BRANCH   1  13
ATOM     12  C   UNL     1       3.332   5.378  17.538  0.00  0.00    +0.000 A 
ATOM     13  C   UNL     1       3.452   6.675  18.024  0.00  0.00    +0.000 A 
ATOM     14  S   UNL     1       4.965   7.350  17.562  0.00  0.00    +0.000 S 
ATOM     15  C   UNL     1       5.466   5.933  16.788  0.00  0.00    +0.000 A 
ATOM     16  C   UNL     1       4.491   4.959  16.794  0.00  0.00    +0.000 A 
ATOM     17  C   UNL     1       4.671   3.661  16.058  0.00  0.00    +0.000 C 
ATOM     18  C   UNL     1       6.141   3.390  15.703  0.00  0.00    +0.000 C 
ATOM     19  C   UNL     1       6.858   4.640  15.174  0.00  0.00    +0.000 C 
ATOM     20  C   UNL     1       6.830   5.795  16.186  0.00  0.00    +0.000 C 
BRANCH  12  22
ATOM     21  N   UNL     1       1.181   3.934  17.710  0.00  0.00    +0.000 NA
ATOM     22  C   UNL     1       2.160   4.562  17.662  0.00  0.00    +0.000 C 
ENDBRANCH  12  22
ENDBRANCH   1  13
BRANCH   7  23
ATOM     23  C   UNL     1      -1.216  11.638  20.826  0.00  0.00    +0.000 C 
ATOM     24  O   UNL     1      -1.587  12.247  19.838  0.00  0.00    +0.000 OA
BRANCH  23  25
ATOM     25  O   UNL     1      -1.544  12.018  22.077  0.00  0.00    +0.000 OA
ATOM     26  H   UNL     1      -2.401  11.725  22.432  0.00  0.00    +0.000 HD
ENDBRANCH  23  25
ENDBRANCH   7  23
TORSDOF 4
ENDMDL
MODEL 6
REMARK VINA RESULT:      -7.2      1.613      3.103
REMARK  Name = 
REMARK  4 active torsions:
REMARK  status: ('A' for Active; 'I' for Inactive)
REMARK    1  A    between atoms: C_2  and  C_3
REMARK    2  A    between atoms: C_4  and  N_5
REMARK    3  A    between atoms: C_11  and  C_12
REMARK    4  A    between atoms: C_12  and  O_14
REMARK                            x       y       z     vdW  Elec       q    Type
REMARK                         _______ _______ _______ _____ _____    ______ ____
ROOT
ATOM      1  N   UNL     1       1.626   8.354  19.204  0.00  0.00    +0.000 N 
ATOM      2  C   UNL     1       1.877   7.181  19.878  0.00  0.00    +0.000 C 
ATOM      3  O   UNL     1       1.409   6.692  20.888  0.00  0.00    +0.000 OA
ATOM      4  C   UNL     1       2.908   6.481  19.118  0.00  0.00    +0.000 A 
ATOM      5  C   UNL     1       3.496   5.249  19.349  0.00  0.00    +0.000 A 
ATOM      6  C   UNL     1       4.494   4.826  18.462  0.00  0.00    +0.000 A 
ATOM      7  C   UNL     1       4.898   5.650  17.383  0.00  0.00    +0.000 A 
ATOM      8  C   UNL     1       4.271   6.894  17.173  0.00  0.00    +0.000 A 
ATOM      9  C   UNL     1       3.271   7.274  18.052  0.00  0.00    +0.000 A 
ATOM     10  C   UNL     1       2.460   8.491  18.115  0.00  0.00    +0.000 C 
ATOM     11  O   UNL     1       2.654   9.427  17.365  0.00  0.00    +0.000 OA
ENDROOT
BRANCH   1  13
ATOM     12  C   UNL     1       0.526   9.919  20.878  0.00  0.00    +0.000 A 
ATOM     13  C   UNL     1       0.753   9.353  19.630  0.00  0.00    +0.000 A 
ATOM     14  S   UNL     1      -0.313  10.030  18.462  0.00  0.00    +0.000 S 
ATOM     15  C   UNL     1      -1.091  11.006  19.602  0.00  0.00    +0.000 A 
ATOM     16  C   UNL     1      -0.526  10.902  20.854  0.00  0.00    +0.000 A 
ATOM     17  C   UNL     1      -0.978  11.769  21.996  0.00  0.00    +0.000 C 
ATOM     18  C   UNL     1      -2.347  12.417  21.731  0.00  0.00    +0.000 C 
ATOM     19  C   UNL     1      -2.473  12.959  20.300  0.00  0.00    +0.000 C 
ATOM     20  C   UNL     1      -2.266  11.863  19.246  0.00  0.00    +0.000 C 
BRANCH  12  22
ATOM     21  N   UNL     1       1.873   9.404  23.038  0.00  0.00    +0.000 NA
ATOM     22  C   UNL     1       1.300   9.650  22.054  0.00  0.00    +0.000 C 
ENDBRANCH  12  22
ENDBRANCH   1  13
BRANCH   7  23
ATOM     23  C   UNL     1       5.930   5.229  16.395  0.00  0.00    +0.000 C 
ATOM     24  O   UNL     1       6.163   5.886  15.395  0.00  0.00    +0.000 OA
BRANCH  23  25
ATOM     25  O   UNL     1       6.605   4.101  16.695  0.00  0.00    +0.000 OA
ATOM     26  H   UNL     1       7.510   4.191  17.039  0.00  0.00    +0.000 HD
ENDBRANCH  23  25
ENDBRANCH   7  23
TORSDOF 4
ENDMDL
MODEL 7
REMARK VINA RESULT:      -6.7      2.686      4.216
REMARK  Name = 
REMARK  4 active torsions:
REMARK  status: ('A' for Active; 'I' for Inactive)
REMARK    1  A    between atoms: C_2  and  C_3
REMARK    2  A    between atoms: C_4  and  N_5
REMARK    3  A    between atoms: C_11  and  C_12
REMARK    4  A    between atoms: C_12  and  O_14
REMARK                            x       y       z     vdW  Elec       q    Type
REMARK                         _______ _______ _______ _____ _____    ______ ____
ROOT
ATOM      1  N   UNL     1      -0.100  11.557  21.398  0.00  0.00    +0.000 N 
ATOM      2  C   UNL     1      -0.004  11.535  20.026  0.00  0.00    +0.000 C 
ATOM      3  O   UNL     1      -0.352  12.316  19.161  0.00  0.00    +0.000 OA
ATOM      4  C   UNL     1       0.681  10.293  19.679  0.00  0.00    +0.000 A 
ATOM      5  C   UNL     1       1.049   9.802  18.438  0.00  0.00    +0.000 A 
ATOM      6  C   UNL     1       1.680   8.552  18.394  0.00  0.00    +0.000 A 
ATOM      7  C   UNL     1       1.905   7.813  19.581  0.00  0.00    +0.000 A 
ATOM      8  C   UNL     1       1.525   8.349  20.827  0.00  0.00    +0.000 A 
ATOM      9  C   UNL     1       0.926   9.598  20.842  0.00  0.00    +0.000 A 
ATOM     10  C   UNL     1       0.407  10.400  21.951  0.00  0.00    +0.000 C 
ATOM     11  O   UNL     1       0.377   9.974  23.089  0.00  0.00    +0.000 OA
ENDROOT
BRANCH   1  13
ATOM     12  C   UNL     1      -0.387  13.834  22.492  0.00  0.00    +0.000 A 
ATOM     13  C   UNL     1      -0.750  12.539  22.142  0.00  0.00    +0.000 A 
ATOM     14  S   UNL     1      -2.273  12.136  22.833  0.00  0.00    +0.000 S 
ATOM     15  C   UNL     1      -2.413  13.625  23.622  0.00  0.00    +0.000 A 
ATOM     16  C   UNL     1      -1.369  14.475  23.327  0.00  0.00    +0.000 A 
ATOM     17  C   UNL     1      -1.347  15.895  23.821  0.00  0.00    +0.000 C 
ATOM     18  C   UNL     1      -2.332  16.126  24.977  0.00  0.00    +0.000 C 
ATOM     19  C   UNL     1      -3.690  15.452  24.737  0.00  0.00    +0.000 C 
ATOM     20  C   UNL     1      -3.556  13.936  24.538  0.00  0.00    +0.000 C 
BRANCH  12  22
ATOM     21  N   UNL     1       1.750  15.011  21.603  0.00  0.00    +0.000 NA
ATOM     22  C   UNL     1       0.777  14.517  22.010  0.00  0.00    +0.000 C 
ENDBRANCH  12  22
ENDBRANCH   1  13
BRANCH   7  23
ATOM     23  C   UNL     1       2.601   6.496  19.587  0.00  0.00    +0.000 C 
ATOM     24  O   UNL     1       3.180   6.074  18.601  0.00  0.00    +0.000 OA
BRANCH  23  25
ATOM     25  O   UNL     1       2.576   5.825  20.756  0.00  0.00    +0.000 OA
ATOM     26  H   UNL     1       3.244   6.051  21.425  0.00  0.00    +0.000 HD
ENDBRANCH  23  25
ENDBRANCH   7  23
TORSDOF 4
ENDMDL
MODEL 8
REMARK VINA RESULT:      -6.6      3.262      5.686
REMARK  Name = 
REMARK  4 active torsions:
REMARK  status: ('A' for Active; 'I' for Inactive)
REMARK    1  A    between atoms: C_2  and  C_3
REMARK    2  A    between atoms: C_4  and  N_5
REMARK    3  A    between atoms: C_11  and  C_12
REMARK    4  A    between atoms: C_12  and  O_14
REMARK                            x       y       z     vdW  Elec       q    Type
REMARK                         _______ _______ _______ _____ _____    ______ ____
ROOT
ATOM      1  N   UNL     1      -1.548  12.032  21.795  0.00  0.00    +0.000 N 
ATOM      2  C   UNL     1      -1.000  10.977  22.487  0.00  0.00    +0.000 C 
ATOM      3  O   UNL     1      -1.091  10.611  23.644  0.00  0.00    +0.000 OA
ATOM      4  C   UNL     1      -0.194  10.229  21.528  0.00  0.00    +0.000 A 
ATOM      5  C   UNL     1       0.543   9.070  21.704  0.00  0.00    +0.000 A 
ATOM      6  C   UNL     1       1.254   8.576  20.603  0.00  0.00    +0.000 A 
ATOM      7  C   UNL     1       1.234   9.261  19.363  0.00  0.00    +0.000 A 
ATOM      8  C   UNL     1       0.465  10.433  19.218  0.00  0.00    +0.000 A 
ATOM      9  C   UNL     1      -0.247  10.883  20.317  0.00  0.00    +0.000 A 
ATOM     10  C   UNL     1      -1.104  12.057  20.490  0.00  0.00    +0.000 C 
ATOM     11  O   UNL     1      -1.232  12.889  19.614  0.00  0.00    +0.000 OA
ENDROOT
BRANCH   1  13
ATOM     12  C   UNL     1      -2.005  14.246  22.961  0.00  0.00    +0.000 A 
ATOM     13  C   UNL     1      -2.333  13.038  22.355  0.00  0.00    +0.000 A 
ATOM     14  S   UNL     1      -4.035  12.794  22.389  0.00  0.00    +0.000 S 
ATOM     15  C   UNL     1      -4.318  14.229  23.236  0.00  0.00    +0.000 A 
ATOM     16  C   UNL     1      -3.163  14.951  23.445  0.00  0.00    +0.000 A 
ATOM     17  C   UNL     1      -3.192  16.317  24.072  0.00  0.00    +0.000 C 
ATOM     18  C   UNL     1      -4.513  16.596  24.805  0.00  0.00    +0.000 C 
ATOM     19  C   UNL     1      -5.738  16.127  24.007  0.00  0.00    +0.000 C 
ATOM     20  C   UNL     1      -5.687  14.624  23.698  0.00  0.00    +0.000 C 
BRANCH  12  22
ATOM     21  N   UNL     1       0.389  15.249  23.002  0.00  0.00    +0.000 NA
ATOM     22  C   UNL     1      -0.685  14.800  23.022  0.00  0.00    +0.000 C 
ENDBRANCH  12  22
ENDBRANCH   1  13
BRANCH   7  23
ATOM     23  C   UNL     1       1.946   8.757  18.156  0.00  0.00    +0.000 C 
ATOM     24  O   UNL     1       2.346   7.608  18.082  0.00  0.00    +0.000 OA
BRANCH  23  25
ATOM     25  O   UNL     1       2.088   9.640  17.147  0.00  0.00    +0.000 OA
ATOM     26  H   UNL     1       1.448  10.371  17.089  0.00  0.00    +0.000 HD
ENDBRANCH  23  25
ENDBRANCH   7  23
TORSDOF 4
ENDMDL
MODEL 9
REMARK VINA RESULT:      -6.6      5.938      7.680
REMARK  Name = 
REMARK  4 active torsions:
REMARK  status: ('A' for Active; 'I' for Inactive)
REMARK    1  A    between atoms: C_2  and  C_3
REMARK    2  A    between atoms: C_4  and  N_5
REMARK    3  A    between atoms: C_11  and  C_12
REMARK    4  A    between atoms: C_12  and  O_14
REMARK                            x       y       z     vdW  Elec       q    Type
REMARK                         _______ _______ _______ _____ _____    ______ ____
ROOT
ATOM      1  N   UNL     1      -4.298  12.288  19.297  0.00  0.00    +0.000 N 
ATOM      2  C   UNL     1      -3.061  11.692  19.218  0.00  0.00    +0.000 C 
ATOM      3  O   UNL     1      -2.148  11.573  20.014  0.00  0.00    +0.000 OA
ATOM      4  C   UNL     1      -2.963  11.119  17.879  0.00  0.00    +0.000 A 
ATOM      5  C   UNL     1      -1.937  10.391  17.300  0.00  0.00    +0.000 A 
ATOM      6  C   UNL     1      -2.099   9.982  15.971  0.00  0.00    +0.000 A 
ATOM      7  C   UNL     1      -3.265  10.328  15.244  0.00  0.00    +0.000 A 
ATOM      8  C   UNL     1      -4.292  11.062  15.869  0.00  0.00    +0.000 A 
ATOM      9  C   UNL     1      -4.114  11.431  17.192  0.00  0.00    +0.000 A 
ATOM     10  C   UNL     1      -4.970  12.202  18.096  0.00  0.00    +0.000 C 
ATOM     11  O   UNL     1      -6.002  12.717  17.715  0.00  0.00    +0.000 OA
ENDROOT
BRANCH   1  13
ATOM     12  C   UNL     1      -5.864  12.835  21.223  0.00  0.00    +0.000 A 
ATOM     13  C   UNL     1      -4.770  13.017  20.387  0.00  0.00    +0.000 A 
ATOM     14  S   UNL     1      -3.923  14.452  20.811  0.00  0.00    +0.000 S 
ATOM     15  C   UNL     1      -5.019  14.847  22.037  0.00  0.00    +0.000 A 
ATOM     16  C   UNL     1      -5.990  13.884  22.202  0.00  0.00    +0.000 A 
ATOM     17  C   UNL     1      -6.999  13.966  23.313  0.00  0.00    +0.000 C 
ATOM     18  C   UNL     1      -7.087  15.376  23.919  0.00  0.00    +0.000 C 
ATOM     19  C   UNL     1      -5.706  16.012  24.130  0.00  0.00    +0.000 C 
ATOM     20  C   UNL     1      -4.911  16.118  22.821  0.00  0.00    +0.000 C 
BRANCH  12  22
ATOM     21  N   UNL     1      -7.484  10.805  21.211  0.00  0.00    +0.000 NA
ATOM     22  C   UNL     1      -6.730  11.692  21.204  0.00  0.00    +0.000 C 
ENDBRANCH  12  22
ENDBRANCH   1  13
BRANCH   7  23
ATOM     23  C   UNL     1      -3.496   9.887  13.840  0.00  0.00    +0.000 C 
ATOM     24  O   UNL     1      -4.620   9.717  13.401  0.00  0.00    +0.000 OA
BRANCH  23  25
ATOM     25  O   UNL     1      -2.391   9.722  13.087  0.00  0.00    +0.000 OA
ATOM     26  H   UNL     1      -1.595  10.225  13.331  0.00  0.00    +0.000 HD
ENDBRANCH  23  25
ENDBRANCH   7  23
TORSDOF 4
ENDMDL
