MODEL 1
REMARK VINA RESULT:      -7.9      0.000      0.000
REMARK  Name = 
REMARK  3 active torsions:
REMARK  status: ('A' for Active; 'I' for Inactive)
REMARK    1  A    between atoms: C_1  and  C_2
REMARK    2  A    between atoms: C_4  and  C_5
REMARK    3  A    between atoms: C_15  and  C_16
REMARK                            x       y       z     vdW  Elec       q    Type
REMARK                         _______ _______ _______ _____ _____    ______ ____
ROOT
ATOM      1  C   UNL     1       8.993  10.411  18.183  0.00  0.00    +0.000 A 
ATOM      2  N   UNL     1       9.256   9.603  19.195  0.00  0.00    +0.000 NA
ATOM      3  C   UNL     1       8.625   8.429  18.882  0.00  0.00    +0.000 A 
ATOM      4  C   UNL     1       8.527   7.220  19.565  0.00  0.00    +0.000 A 
ATOM      5  C   UNL     1       7.814   6.194  18.934  0.00  0.00    +0.000 A 
ATOM      6  C   UNL     1       7.235   6.371  17.666  0.00  0.00    +0.000 A 
ATOM      7  N   UNL     1       6.581   5.323  17.042  0.00  0.00    +0.000 N 
ATOM      8  C   UNL     1       6.562   5.259  15.586  0.00  0.00    +0.000 C 
ATOM      9  C   UNL     1       5.120   5.230  15.090  0.00  0.00    +0.000 C 
ATOM     10  C   UNL     1       4.318   4.120  15.770  0.00  0.00    +0.000 C 
ATOM     11  C   UNL     1       4.398   4.233  17.300  0.00  0.00    +0.000 C 
ATOM     12  C   UNL     1       5.868   4.261  17.757  0.00  0.00    +0.000 C 
ATOM     13  N   UNL     1       7.311   7.552  17.002  0.00  0.00    +0.000 NA
ATOM     14  C   UNL     1       7.993   8.512  17.651  0.00  0.00    +0.000 A 
ATOM     15  N   UNL     1       8.213   9.795  17.236  0.00  0.00    +0.000 N 
ATOM     16  H   UNL     1       7.884  10.214  16.380  0.00  0.00    +0.000 HD
ENDROOT
BRANCH  11  17
ATOM     17  C   UNL     1       3.660   3.083  17.979  0.00  0.00    +0.000 C 
ATOM     18  O   UNL     1       3.927   1.908  17.719  0.00  0.00    +0.000 OA
ATOM     19  N   UNL     1       2.687   3.406  18.903  0.00  0.00    +0.000 N 
ATOM     20  C   UNL     1       2.271   4.721  19.352  0.00  0.00    +0.000 C 
ATOM     21  C   UNL     1       1.839   4.482  20.786  0.00  0.00    +0.000 C 
ATOM     22  C   UNL     1       1.201   3.099  20.727  0.00  0.00    +0.000 C 
ATOM     23  C   UNL     1       1.965   2.370  19.625  0.00  0.00    +0.000 C 
ENDBRANCH  11  17
BRANCH   1  27
ATOM     24  C   UNL     1      12.079  14.150  17.053  0.00  0.00    +0.000 C 
ATOM     25  C   UNL     1      10.877  13.438  17.562  0.00  0.00    +0.000 A 
ATOM     26  N   UNL     1      10.733  12.128  17.589  0.00  0.00    +0.000 NA
ATOM     27  C   UNL     1       9.473  11.815  18.072  0.00  0.00    +0.000 A 
ATOM     28  C   UNL     1       8.690  12.890  18.435  0.00  0.00    +0.000 A 
ATOM     29  S   UNL     1       9.544  14.348  18.163  0.00  0.00    +0.000 S 
ENDBRANCH   1  27
TORSDOF 2
ENDMDL
MODEL 2
REMARK VINA RESULT:      -7.9      0.801      1.046
REMARK  Name = 
REMARK  3 active torsions:
REMARK  status: ('A' for Active; 'I' for Inactive)
REMARK    1  A    between atoms: C_1  and  C_2
REMARK    2  A    between atoms: C_4  and  C_5
REMARK    3  A    between atoms: C_15  and  C_16
REMARK                            x       y       z     vdW  Elec       q    Type
REMARK                         _______ _______ _______ _____ _____    ______ ____
ROOT
ATOM      1  C   UNL     1       8.962  10.395  18.109  0.00  0.00    +0.000 A 
ATOM      2  N   UNL     1       9.236   9.597  19.126  0.00  0.00    +0.000 NA
ATOM      3  C   UNL     1       8.608   8.418  18.828  0.00  0.00    +0.000 A 
ATOM      4  C   UNL     1       8.522   7.214  19.523  0.00  0.00    +0.000 A 
ATOM      5  C   UNL     1       7.809   6.180  18.906  0.00  0.00    +0.000 A 
ATOM      6  C   UNL     1       7.220   6.343  17.640  0.00  0.00    +0.000 A 
ATOM      7  N   UNL     1       6.566   5.286  17.031  0.00  0.00    +0.000 N 
ATOM      8  C   UNL     1       6.537   5.210  15.575  0.00  0.00    +0.000 C 
ATOM      9  C   UNL     1       5.092   5.168  15.090  0.00  0.00    +0.000 C 
ATOM     10  C   UNL     1       4.301   4.061  15.786  0.00  0.00    +0.000 C 
ATOM     11  C   UNL     1       4.391   4.187  17.314  0.00  0.00    +0.000 C 
ATOM     12  C   UNL     1       5.864   4.227  17.760  0.00  0.00    +0.000 C 
ATOM     13  N   UNL     1       7.285   7.518  16.965  0.00  0.00    +0.000 NA
ATOM     14  C   UNL     1       7.967   8.487  17.601  0.00  0.00    +0.000 A 
ATOM     15  N   UNL     1       8.178   9.767  17.174  0.00  0.00    +0.000 N 
ATOM     16  H   UNL     1       7.841  10.177  16.316  0.00  0.00    +0.000 HD
ENDROOT
BRANCH  11  17
ATOM     17  C   UNL     1       3.664   3.040  18.009  0.00  0.00    +0.000 C 
ATOM     18  O   UNL     1       3.940   1.865  17.763  0.00  0.00    +0.000 OA
ATOM     19  N   UNL     1       2.689   3.366  18.930  0.00  0.00    +0.000 N 
ATOM     20  C   UNL     1       2.263   4.683  19.363  0.00  0.00    +0.000 C 
ATOM     21  C   UNL     1       1.835   4.459  20.800  0.00  0.00    +0.000 C 
ATOM     22  C   UNL     1       1.209   3.070  20.760  0.00  0.00    +0.000 C 
ATOM     23  C   UNL     1       1.978   2.333  19.666  0.00  0.00    +0.000 C 
ENDBRANCH  11  17
BRANCH   1  27
ATOM     24  C   UNL     1       8.700  15.367  18.152  0.00  0.00    +0.000 C 
ATOM     25  C   UNL     1       9.268  13.999  18.004  0.00  0.00    +0.000 A 
ATOM     26  N   UNL     1       8.580  12.882  18.126  0.00  0.00    +0.000 NA
ATOM     27  C   UNL     1       9.434  11.801  17.982  0.00  0.00    +0.000 A 
ATOM     28  C   UNL     1      10.752  12.112  17.721  0.00  0.00    +0.000 A 
ATOM     29  S   UNL     1      10.944  13.811  17.657  0.00  0.00    +0.000 S 
ENDBRANCH   1  27
TORSDOF 2
ENDMDL
MODEL 3
REMARK VINA RESULT:      -7.7      5.614      8.149
REMARK  Name = 
REMARK  3 active torsions:
REMARK  status: ('A' for Active; 'I' for Inactive)
REMARK    1  A    between atoms: C_1  and  C_2
REMARK    2  A    between atoms: C_4  and  C_5
REMARK    3  A    between atoms: C_15  and  C_16
REMARK                            x       y       z     vdW  Elec       q    Type
REMARK                         _______ _______ _______ _____ _____    ______ ____
ROOT
ATOM      1  C   UNL     1       0.199  10.879  20.779  0.00  0.00    +0.000 A 
ATOM      2  N   UNL     1       0.637  11.180  19.570  0.00  0.00    +0.000 NA
ATOM      3  C   UNL     1       1.296  10.059  19.144  0.00  0.00    +0.000 A 
ATOM      4  C   UNL     1       1.979   9.778  17.963  0.00  0.00    +0.000 A 
ATOM      5  C   UNL     1       2.524   8.495  17.838  0.00  0.00    +0.000 A 
ATOM      6  C   UNL     1       2.378   7.531  18.851  0.00  0.00    +0.000 A 
ATOM      7  N   UNL     1       2.882   6.253  18.678  0.00  0.00    +0.000 N 
ATOM      8  C   UNL     1       2.226   5.133  19.342  0.00  0.00    +0.000 C 
ATOM      9  C   UNL     1       3.227   4.403  20.230  0.00  0.00    +0.000 C 
ATOM     10  C   UNL     1       4.485   4.014  19.453  0.00  0.00    +0.000 C 
ATOM     11  C   UNL     1       5.111   5.234  18.763  0.00  0.00    +0.000 C 
ATOM     12  C   UNL     1       4.068   5.942  17.878  0.00  0.00    +0.000 C 
ATOM     13  N   UNL     1       1.730   7.803  20.012  0.00  0.00    +0.000 NA
ATOM     14  C   UNL     1       1.235   9.050  20.093  0.00  0.00    +0.000 A 
ATOM     15  N   UNL     1       0.558   9.605  21.142  0.00  0.00    +0.000 N 
ATOM     16  H   UNL     1       0.339   9.158  22.018  0.00  0.00    +0.000 HD
ENDROOT
BRANCH  11  17
ATOM     17  C   UNL     1       6.324   4.835  17.926  0.00  0.00    +0.000 C 
ATOM     18  O   UNL     1       7.375   4.470  18.457  0.00  0.00    +0.000 OA
ATOM     19  N   UNL     1       6.200   4.890  16.553  0.00  0.00    +0.000 N 
ATOM     20  C   UNL     1       5.038   5.260  15.768  0.00  0.00    +0.000 C 
ATOM     21  C   UNL     1       5.188   4.432  14.507  0.00  0.00    +0.000 C 
ATOM     22  C   UNL     1       6.696   4.418  14.282  0.00  0.00    +0.000 C 
ATOM     23  C   UNL     1       7.295   4.487  15.685  0.00  0.00    +0.000 C 
ENDBRANCH  11  17
BRANCH   1  27
ATOM     24  C   UNL     1      -3.425  12.322  23.873  0.00  0.00    +0.000 C 
ATOM     25  C   UNL     1      -2.213  12.392  23.012  0.00  0.00    +0.000 A 
ATOM     26  N   UNL     1      -1.755  11.400  22.276  0.00  0.00    +0.000 NA
ATOM     27  C   UNL     1      -0.584  11.797  21.651  0.00  0.00    +0.000 A 
ATOM     28  C   UNL     1      -0.187  13.094  21.896  0.00  0.00    +0.000 A 
ATOM     29  S   UNL     1      -1.304  13.853  22.946  0.00  0.00    +0.000 S 
ENDBRANCH   1  27
TORSDOF 2
ENDMDL
MODEL 4
REMARK VINA RESULT:      -7.7      8.125     10.761
REMARK  Name = 
REMARK  3 active torsions:
REMARK  status: ('A' for Active; 'I' for Inactive)
REMARK    1  A    between atoms: C_1  and  C_2
REMARK    2  A    between atoms: C_4  and  C_5
REMARK    3  A    between atoms: C_15  and  C_16
REMARK                            x       y       z     vdW  Elec       q    Type
REMARK                         _______ _______ _______ _____ _____    ______ ____
ROOT
ATOM      1  C   UNL     1       2.491   7.227  19.194  0.00  0.00    +0.000 A 
ATOM      2  N   UNL     1       2.311   8.000  18.138  0.00  0.00    +0.000 NA
ATOM      3  C   UNL     1       1.509   9.018  18.580  0.00  0.00    +0.000 A 
ATOM      4  C   UNL     1       0.971  10.123  17.925  0.00  0.00    +0.000 A 
ATOM      5  C   UNL     1       0.201  11.000  18.696  0.00  0.00    +0.000 A 
ATOM      6  C   UNL     1      -0.008  10.785  20.069  0.00  0.00    +0.000 A 
ATOM      7  N   UNL     1      -0.730  11.698  20.819  0.00  0.00    +0.000 N 
ATOM      8  C   UNL     1      -0.424  11.857  22.236  0.00  0.00    +0.000 C 
ATOM      9  C   UNL     1      -1.676  11.592  23.065  0.00  0.00    +0.000 C 
ATOM     10  C   UNL     1      -2.854  12.440  22.585  0.00  0.00    +0.000 C 
ATOM     11  C   UNL     1      -3.107  12.242  21.084  0.00  0.00    +0.000 C 
ATOM     12  C   UNL     1      -1.820  12.517  20.285  0.00  0.00    +0.000 C 
ATOM     13  N   UNL     1       0.498   9.702  20.711  0.00  0.00    +0.000 NA
ATOM     14  C   UNL     1       1.219   8.879  19.928  0.00  0.00    +0.000 A 
ATOM     15  N   UNL     1       1.829   7.713  20.293  0.00  0.00    +0.000 N 
ATOM     16  H   UNL     1       1.817   7.291  21.209  0.00  0.00    +0.000 HD
ENDROOT
BRANCH  11  17
ATOM     17  C   UNL     1      -4.235  13.143  20.588  0.00  0.00    +0.000 C 
ATOM     18  O   UNL     1      -4.471  14.226  21.126  0.00  0.00    +0.000 OA
ATOM     19  N   UNL     1      -4.977  12.704  19.511  0.00  0.00    +0.000 N 
ATOM     20  C   UNL     1      -4.816  11.484  18.743  0.00  0.00    +0.000 C 
ATOM     21  C   UNL     1      -5.280  11.879  17.355  0.00  0.00    +0.000 C 
ATOM     22  C   UNL     1      -6.425  12.846  17.637  0.00  0.00    +0.000 C 
ATOM     23  C   UNL     1      -6.042  13.521  18.952  0.00  0.00    +0.000 C 
ENDBRANCH  11  17
BRANCH   1  27
ATOM     24  C   UNL     1       3.676   2.506  20.242  0.00  0.00    +0.000 C 
ATOM     25  C   UNL     1       3.790   3.887  19.701  0.00  0.00    +0.000 A 
ATOM     26  N   UNL     1       2.909   4.847  19.897  0.00  0.00    +0.000 NA
ATOM     27  C   UNL     1       3.303   5.979  19.204  0.00  0.00    +0.000 A 
ATOM     28  C   UNL     1       4.495   5.874  18.518  0.00  0.00    +0.000 A 
ATOM     29  S   UNL     1       5.150   4.308  18.732  0.00  0.00    +0.000 S 
ENDBRANCH   1  27
TORSDOF 2
ENDMDL
MODEL 5
REMARK VINA RESULT:      -7.6      8.738     11.420
REMARK  Name = 
REMARK  3 active torsions:
REMARK  status: ('A' for Active; 'I' for Inactive)
REMARK    1  A    between atoms: C_1  and  C_2
REMARK    2  A    between atoms: C_4  and  C_5
REMARK    3  A    between atoms: C_15  and  C_16
REMARK                            x       y       z     vdW  Elec       q    Type
REMARK                         _______ _______ _______ _____ _____    ______ ____
ROOT
ATOM      1  C   UNL     1       1.923   7.530  19.805  0.00  0.00    +0.000 A 
ATOM      2  N   UNL     1       1.977   8.405  18.816  0.00  0.00    +0.000 NA
ATOM      3  C   UNL     1       1.182   9.443  19.221  0.00  0.00    +0.000 A 
ATOM      4  C   UNL     1       0.837  10.641  18.600  0.00  0.00    +0.000 A 
ATOM      5  C   UNL     1       0.008  11.509  19.321  0.00  0.00    +0.000 A 
ATOM      6  C   UNL     1      -0.443  11.193  20.614  0.00  0.00    +0.000 A 
ATOM      7  N   UNL     1      -1.218  12.094  21.324  0.00  0.00    +0.000 N 
ATOM      8  C   UNL     1      -1.146  12.104  22.781  0.00  0.00    +0.000 C 
ATOM      9  C   UNL     1      -2.534  11.872  23.367  0.00  0.00    +0.000 C 
ATOM     10  C   UNL     1      -3.555  12.852  22.789  0.00  0.00    +0.000 C 
ATOM     11  C   UNL     1      -3.564  12.807  21.254  0.00  0.00    +0.000 C 
ATOM     12  C   UNL     1      -2.145  13.043  20.705  0.00  0.00    +0.000 C 
ATOM     13  N   UNL     1      -0.126  10.020  21.218  0.00  0.00    +0.000 NA
ATOM     14  C   UNL     1       0.660   9.212  20.484  0.00  0.00    +0.000 A 
ATOM     15  N   UNL     1       1.120   7.972  20.825  0.00  0.00    +0.000 N 
ATOM     16  H   UNL     1       0.926   7.475  21.681  0.00  0.00    +0.000 HD
ENDROOT
BRANCH  11  17
ATOM     17  C   UNL     1      -4.530  13.838  20.675  0.00  0.00    +0.000 C 
ATOM     18  O   UNL     1      -4.280  15.043  20.720  0.00  0.00    +0.000 OA
ATOM     19  N   UNL     1      -5.690  13.370  20.092  0.00  0.00    +0.000 N 
ATOM     20  C   UNL     1      -6.123  11.996  19.924  0.00  0.00    +0.000 C 
ATOM     21  C   UNL     1      -6.934  12.038  18.644  0.00  0.00    +0.000 C 
ATOM     22  C   UNL     1      -7.622  13.396  18.717  0.00  0.00    +0.000 C 
ATOM     23  C   UNL     1      -6.642  14.283  19.481  0.00  0.00    +0.000 C 
ENDBRANCH  11  17
BRANCH   1  27
ATOM     24  C   UNL     1       2.806   2.775  20.988  0.00  0.00    +0.000 C 
ATOM     25  C   UNL     1       2.992   4.121  20.381  0.00  0.00    +0.000 A 
ATOM     26  N   UNL     1       2.201   5.155  20.586  0.00  0.00    +0.000 NA
ATOM     27  C   UNL     1       2.638   6.224  19.822  0.00  0.00    +0.000 A 
ATOM     28  C   UNL     1       3.772   5.998  19.072  0.00  0.00    +0.000 A 
ATOM     29  S   UNL     1       4.318   4.395  19.317  0.00  0.00    +0.000 S 
ENDBRANCH   1  27
TORSDOF 2
ENDMDL
MODEL 6
REMARK VINA RESULT:      -7.4      8.265     10.628
REMARK  Name = 
REMARK  3 active torsions:
REMARK  status: ('A' for Active; 'I' for Inactive)
REMARK    1  A    between atoms: C_1  and  C_2
REMARK    2  A    between atoms: C_4  and  C_5
REMARK    3  A    between atoms: C_15  and  C_16
REMARK                            x       y       z     vdW  Elec       q    Type
REMARK                         _______ _______ _______ _____ _____    ______ ____
ROOT
ATOM      1  C   UNL     1       2.480   7.417  19.037  0.00  0.00    +0.000 A 
ATOM      2  N   UNL     1       2.329   8.259  18.031  0.00  0.00    +0.000 NA
ATOM      3  C   UNL     1       1.513   9.245  18.516  0.00  0.00    +0.000 A 
ATOM      4  C   UNL     1       0.991  10.391  17.921  0.00  0.00    +0.000 A 
ATOM      5  C   UNL     1       0.198  11.216  18.727  0.00  0.00    +0.000 A 
ATOM      6  C   UNL     1      -0.050  10.909  20.076  0.00  0.00    +0.000 A 
ATOM      7  N   UNL     1      -0.794  11.770  20.864  0.00  0.00    +0.000 N 
ATOM      8  C   UNL     1      -0.529  11.834  22.297  0.00  0.00    +0.000 C 
ATOM      9  C   UNL     1      -1.804  11.514  23.070  0.00  0.00    +0.000 C 
ATOM     10  C   UNL     1      -2.969  12.392  22.615  0.00  0.00    +0.000 C 
ATOM     11  C   UNL     1      -3.179  12.295  21.097  0.00  0.00    +0.000 C 
ATOM     12  C   UNL     1      -1.870  12.623  20.355  0.00  0.00    +0.000 C 
ATOM     13  N   UNL     1       0.441   9.785  20.658  0.00  0.00    +0.000 NA
ATOM     14  C   UNL     1       1.185   9.017  19.843  0.00  0.00    +0.000 A 
ATOM     15  N   UNL     1       1.786   7.829  20.147  0.00  0.00    +0.000 N 
ATOM     16  H   UNL     1       1.749   7.346  21.032  0.00  0.00    +0.000 HD
ENDROOT
BRANCH  11  17
ATOM     17  C   UNL     1      -4.294  13.227  20.630  0.00  0.00    +0.000 C 
ATOM     18  O   UNL     1      -4.502  14.305  21.190  0.00  0.00    +0.000 OA
ATOM     19  N   UNL     1      -5.056  12.823  19.554  0.00  0.00    +0.000 N 
ATOM     20  C   UNL     1      -4.929  11.614  18.762  0.00  0.00    +0.000 C 
ATOM     21  C   UNL     1      -5.401  12.043  17.387  0.00  0.00    +0.000 C 
ATOM     22  C   UNL     1      -6.522  13.027  17.699  0.00  0.00    +0.000 C 
ATOM     23  C   UNL     1      -6.111  13.671  19.022  0.00  0.00    +0.000 C 
ENDBRANCH  11  17
BRANCH   1  27
ATOM     24  C   UNL     1       6.277   4.440  17.811  0.00  0.00    +0.000 C 
ATOM     25  C   UNL     1       4.992   4.888  18.411  0.00  0.00    +0.000 A 
ATOM     26  N   UNL     1       4.458   6.081  18.242  0.00  0.00    +0.000 NA
ATOM     27  C   UNL     1       3.294   6.171  18.987  0.00  0.00    +0.000 A 
ATOM     28  C   UNL     1       2.943   5.036  19.685  0.00  0.00    +0.000 A 
ATOM     29  S   UNL     1       4.103   3.808  19.415  0.00  0.00    +0.000 S 
ENDBRANCH   1  27
TORSDOF 2
ENDMDL
MODEL 7
REMARK VINA RESULT:      -7.2      8.517     10.890
REMARK  Name = 
REMARK  3 active torsions:
REMARK  status: ('A' for Active; 'I' for Inactive)
REMARK    1  A    between atoms: C_1  and  C_2
REMARK    2  A    between atoms: C_4  and  C_5
REMARK    3  A    between atoms: C_15  and  C_16
REMARK                            x       y       z     vdW  Elec       q    Type
REMARK                         _______ _______ _______ _____ _____    ______ ____
ROOT
ATOM      1  C   UNL     1       2.305   7.564  18.811  0.00  0.00    +0.000 A 
ATOM      2  N   UNL     1       2.268   8.521  17.900  0.00  0.00    +0.000 NA
ATOM      3  C   UNL     1       1.503   9.509  18.458  0.00  0.00    +0.000 A 
ATOM      4  C   UNL     1       1.097  10.750  17.974  0.00  0.00    +0.000 A 
ATOM      5  C   UNL     1       0.326  11.541  18.833  0.00  0.00    +0.000 A 
ATOM      6  C   UNL     1      -0.013  11.110  20.127  0.00  0.00    +0.000 A 
ATOM      7  N   UNL     1      -0.732  11.935  20.974  0.00  0.00    +0.000 N 
ATOM      8  C   UNL     1      -0.537  11.822  22.415  0.00  0.00    +0.000 C 
ATOM      9  C   UNL     1      -1.869  11.520  23.092  0.00  0.00    +0.000 C 
ATOM     10  C   UNL     1      -2.943  12.531  22.688  0.00  0.00    +0.000 C 
ATOM     11  C   UNL     1      -3.081  12.616  21.161  0.00  0.00    +0.000 C 
ATOM     12  C   UNL     1      -1.715  12.920  20.518  0.00  0.00    +0.000 C 
ATOM     13  N   UNL     1       0.364   9.894  20.599  0.00  0.00    +0.000 NA
ATOM     14  C   UNL     1       1.091   9.164  19.735  0.00  0.00    +0.000 A 
ATOM     15  N   UNL     1       1.587   7.906  19.929  0.00  0.00    +0.000 N 
ATOM     16  H   UNL     1       1.470   7.335  20.751  0.00  0.00    +0.000 HD
ENDROOT
BRANCH  11  17
ATOM     17  C   UNL     1      -4.100  13.678  20.755  0.00  0.00    +0.000 C 
ATOM     18  O   UNL     1      -3.783  14.865  20.661  0.00  0.00    +0.000 OA
ATOM     19  N   UNL     1      -5.387  13.260  20.490  0.00  0.00    +0.000 N 
ATOM     20  C   UNL     1      -5.921  11.911  20.518  0.00  0.00    +0.000 C 
ATOM     21  C   UNL     1      -7.007  11.941  19.461  0.00  0.00    +0.000 C 
ATOM     22  C   UNL     1      -7.586  13.344  19.602  0.00  0.00    +0.000 C 
ATOM     23  C   UNL     1      -6.408  14.202  20.058  0.00  0.00    +0.000 C 
ENDBRANCH  11  17
BRANCH   1  27
ATOM     24  C   UNL     1       4.860   3.959  16.517  0.00  0.00    +0.000 C 
ATOM     25  C   UNL     1       4.150   4.698  17.596  0.00  0.00    +0.000 A 
ATOM     26  N   UNL     1       3.526   5.848  17.435  0.00  0.00    +0.000 NA
ATOM     27  C   UNL     1       3.028   6.272  18.656  0.00  0.00    +0.000 A 
ATOM     28  C   UNL     1       3.253   5.425  19.720  0.00  0.00    +0.000 A 
ATOM     29  S   UNL     1       4.121   4.048  19.190  0.00  0.00    +0.000 S 
ENDBRANCH   1  27
TORSDOF 2
ENDMDL
MODEL 8
REMARK VINA RESULT:      -7.1      7.369      9.695
REMARK  Name = 
REMARK  3 active torsions:
REMARK  status: ('A' for Active; 'I' for Inactive)
REMARK    1  A    between atoms: C_1  and  C_2
REMARK    2  A    between atoms: C_4  and  C_5
REMARK    3  A    between atoms: C_15  and  C_16
REMARK                            x       y       z     vdW  Elec       q    Type
REMARK                         _______ _______ _______ _____ _____    ______ ____
ROOT
ATOM      1  C   UNL     1      -2.241  11.873  22.535  0.00  0.00    +0.000 A 
ATOM      2  N   UNL     1      -1.650  11.101  23.430  0.00  0.00    +0.000 NA
ATOM      3  C   UNL     1      -0.724  10.385  22.719  0.00  0.00    +0.000 A 
ATOM      4  C   UNL     1       0.185   9.405  23.109  0.00  0.00    +0.000 A 
ATOM      5  C   UNL     1       1.022   8.888  22.113  0.00  0.00    +0.000 A 
ATOM      6  C   UNL     1       0.956   9.345  20.785  0.00  0.00    +0.000 A 
ATOM      7  N   UNL     1       1.831   8.855  19.832  0.00  0.00    +0.000 N 
ATOM      8  C   UNL     1       2.220   9.707  18.715  0.00  0.00    +0.000 C 
ATOM      9  C   UNL     1       1.869   9.023  17.398  0.00  0.00    +0.000 C 
ATOM     10  C   UNL     1       2.448   7.610  17.331  0.00  0.00    +0.000 C 
ATOM     11  C   UNL     1       2.018   6.774  18.546  0.00  0.00    +0.000 C 
ATOM     12  C   UNL     1       2.389   7.501  19.852  0.00  0.00    +0.000 C 
ATOM     13  N   UNL     1       0.060  10.287  20.395  0.00  0.00    +0.000 NA
ATOM     14  C   UNL     1      -0.731  10.744  21.381  0.00  0.00    +0.000 A 
ATOM     15  N   UNL     1      -1.728  11.673  21.279  0.00  0.00    +0.000 N 
ATOM     16  H   UNL     1      -2.024  12.146  20.439  0.00  0.00    +0.000 HD
ENDROOT
BRANCH  11  17
ATOM     17  C   UNL     1       2.655   5.387  18.518  0.00  0.00    +0.000 C 
ATOM     18  O   UNL     1       3.648   5.154  17.827  0.00  0.00    +0.000 OA
ATOM     19  N   UNL     1       2.084   4.406  19.301  0.00  0.00    +0.000 N 
ATOM     20  C   UNL     1       0.945   4.513  20.194  0.00  0.00    +0.000 C 
ATOM     21  C   UNL     1       1.255   3.503  21.281  0.00  0.00    +0.000 C 
ATOM     22  C   UNL     1       1.937   2.374  20.517  0.00  0.00    +0.000 C 
ATOM     23  C   UNL     1       2.655   3.069  19.363  0.00  0.00    +0.000 C 
ENDBRANCH  11  17
BRANCH   1  27
ATOM     24  C   UNL     1      -6.776  13.442  23.860  0.00  0.00    +0.000 C 
ATOM     25  C   UNL     1      -5.356  13.489  23.421  0.00  0.00    +0.000 A 
ATOM     26  N   UNL     1      -4.612  12.432  23.165  0.00  0.00    +0.000 NA
ATOM     27  C   UNL     1      -3.330  12.842  22.838  0.00  0.00    +0.000 A 
ATOM     28  C   UNL     1      -3.127  14.205  22.819  0.00  0.00    +0.000 A 
ATOM     29  S   UNL     1      -4.578  15.013  23.229  0.00  0.00    +0.000 S 
ENDBRANCH   1  27
TORSDOF 2
ENDMDL
MODEL 9
REMARK VINA RESULT:      -7.1      5.911      8.037
REMARK  Name = 
REMARK  3 active torsions:
REMARK  status: ('A' for Active; 'I' for Inactive)
REMARK    1  A    between atoms: C_1  and  C_2
REMARK    2  A    between atoms: C_4  and  C_5
REMARK    3  A    between atoms: C_15  and  C_16
REMARK                            x       y       z     vdW  Elec       q    Type
REMARK                         _______ _______ _______ _____ _____    ______ ____
ROOT
ATOM      1  C   UNL     1       0.372  11.651  21.007  0.00  0.00    +0.000 A 
ATOM      2  N   UNL     1       0.714  11.701  19.732  0.00  0.00    +0.000 NA
ATOM      3  C   UNL     1       1.147  10.437  19.433  0.00  0.00    +0.000 A 
ATOM      4  C   UNL     1       1.645   9.884  18.257  0.00  0.00    +0.000 A 
ATOM      5  C   UNL     1       1.975   8.524  18.289  0.00  0.00    +0.000 A 
ATOM      6  C   UNL     1       1.800   7.751  19.450  0.00  0.00    +0.000 A 
ATOM      7  N   UNL     1       2.085   6.396  19.439  0.00  0.00    +0.000 N 
ATOM      8  C   UNL     1       1.347   5.504  20.325  0.00  0.00    +0.000 C 
ATOM      9  C   UNL     1       2.320   4.754  21.227  0.00  0.00    +0.000 C 
ATOM     10  C   UNL     1       3.412   4.058  20.415  0.00  0.00    +0.000 C 
ATOM     11  C   UNL     1       4.133   5.047  19.489  0.00  0.00    +0.000 C 
ATOM     12  C   UNL     1       3.116   5.784  18.598  0.00  0.00    +0.000 C 
ATOM     13  N   UNL     1       1.332   8.287  20.605  0.00  0.00    +0.000 NA
ATOM     14  C   UNL     1       1.041   9.598  20.531  0.00  0.00    +0.000 A 
ATOM     15  N   UNL     1       0.574  10.400  21.534  0.00  0.00    +0.000 N 
ATOM     16  H   UNL     1       0.389  10.124  22.486  0.00  0.00    +0.000 HD
ENDROOT
BRANCH  11  17
ATOM     17  C   UNL     1       5.173   4.340  18.624  0.00  0.00    +0.000 C 
ATOM     18  O   UNL     1       5.608   3.228  18.928  0.00  0.00    +0.000 OA
ATOM     19  N   UNL     1       5.603   4.987  17.484  0.00  0.00    +0.000 N 
ATOM     20  C   UNL     1       5.177   6.271  16.961  0.00  0.00    +0.000 C 
ATOM     21  C   UNL     1       5.324   6.106  15.461  0.00  0.00    +0.000 C 
ATOM     22  C   UNL     1       6.570   5.236  15.332  0.00  0.00    +0.000 C 
ATOM     23  C   UNL     1       6.561   4.363  16.584  0.00  0.00    +0.000 C 
ENDBRANCH  11  17
BRANCH   1  27
ATOM     24  C   UNL     1      -2.576  14.075  24.205  0.00  0.00    +0.000 C 
ATOM     25  C   UNL     1      -1.500  13.832  23.206  0.00  0.00    +0.000 A 
ATOM     26  N   UNL     1      -1.272  12.679  22.610  0.00  0.00    +0.000 NA
ATOM     27  C   UNL     1      -0.165  12.799  21.788  0.00  0.00    +0.000 A 
ATOM     28  C   UNL     1       0.414  14.050  21.746  0.00  0.00    +0.000 A 
ATOM     29  S   UNL     1      -0.443  15.119  22.770  0.00  0.00    +0.000 S 
ENDBRANCH   1  27
TORSDOF 2
ENDMDL
