MODEL 1
REMARK VINA RESULT:      -7.2      0.000      0.000
REMARK  Name = 
REMARK  7 active torsions:
REMARK  status: ('A' for Active; 'I' for Inactive)
REMARK    1  A    between atoms: O_1  and  C_2
REMARK    2  A    between atoms: C_2  and  C_3
REMARK    3  A    between atoms: C_6  and  C_7
REMARK    4  A    between atoms: C_6  and  C_16
REMARK    5  A    between atoms: C_7  and  C_8
REMARK    6  A    between atoms: C_8  and  C_9
REMARK    7  A    between atoms: C_16  and  N_17
REMARK                            x       y       z     vdW  Elec       q    Type
REMARK                         _______ _______ _______ _____ _____    ______ ____
ROOT
ATOM      1  C   UNL     1       7.191   5.143  18.379  0.00  0.00    +0.000 C 
ATOM      2  C   UNL     1       6.512   4.384  17.279  0.00  0.00    +0.000 C 
ATOM      3  O   UNL     1       5.164   4.665  17.484  0.00  0.00    +0.000 OA
ATOM      4  C   UNL     1       5.051   4.657  18.896  0.00  0.00    +0.000 C 
ATOM      5  O   UNL     1       6.292   5.071  19.462  0.00  0.00    +0.000 OA
ENDROOT
BRANCH   1   6
ATOM      6  C   UNL     1       7.456   6.603  17.966  0.00  0.00    +0.000 C 
BRANCH   6   7
ATOM      7  O   UNL     1       7.065   6.799  16.633  0.00  0.00    +0.000 OA
ATOM      8  H   UNL     1       6.981   7.781  16.506  0.00  0.00    +0.000 HD
ENDBRANCH   6   7
ENDBRANCH   1   6
BRANCH   4   9
ATOM      9  C   UNL     1       3.916   5.612  19.351  0.00  0.00    +0.000 C 
BRANCH   9  10
ATOM     10  C   UNL     1       3.392   6.517  18.232  0.00  0.00    +0.000 C 
BRANCH  10  11
ATOM     11  C   UNL     1       2.460   7.585  18.748  0.00  0.00    +0.000 A 
ATOM     12  C   UNL     1       2.055   7.584  20.096  0.00  0.00    +0.000 A 
ATOM     13  C   UNL     1       1.215   8.592  20.580  0.00  0.00    +0.000 A 
ATOM     14  C   UNL     1       0.771   9.607  19.727  0.00  0.00    +0.000 A 
ATOM     15 CL   UNL     1      -0.272  10.876  20.339  0.00  0.00    +0.000 Cl
ATOM     16  C   UNL     1       1.166   9.613  18.386  0.00  0.00    +0.000 A 
ATOM     17  C   UNL     1       2.008   8.611  17.899  0.00  0.00    +0.000 A 
ENDBRANCH  10  11
ENDBRANCH   9  10
ENDBRANCH   4   9
BRANCH   4  18
ATOM     18  C   UNL     1       4.699   3.218  19.384  0.00  0.00    +0.000 C 
BRANCH  18  19
ATOM     19  N   UNL     1       3.264   2.936  19.230  0.00  0.00    +0.000 N 
ATOM     20  C   UNL     1       2.328   2.980  20.194  0.00  0.00    +0.000 A 
ATOM     21  C   UNL     1       1.115   2.664  19.624  0.00  0.00    +0.000 A 
ATOM     22  N   UNL     1       1.292   2.413  18.313  0.00  0.00    +0.000 NA
ATOM     23  C   UNL     1       2.610   2.581  18.102  0.00  0.00    +0.000 A 
ENDBRANCH  18  19
ENDBRANCH   4  18
TORSDOF 7
ENDMDL
MODEL 2
REMARK VINA RESULT:      -7.2      2.261      4.143
REMARK  Name = 
REMARK  7 active torsions:
REMARK  status: ('A' for Active; 'I' for Inactive)
REMARK    1  A    between atoms: O_1  and  C_2
REMARK    2  A    between atoms: C_2  and  C_3
REMARK    3  A    between atoms: C_6  and  C_7
REMARK    4  A    between atoms: C_6  and  C_16
REMARK    5  A    between atoms: C_7  and  C_8
REMARK    6  A    between atoms: C_8  and  C_9
REMARK    7  A    between atoms: C_16  and  N_17
REMARK                            x       y       z     vdW  Elec       q    Type
REMARK                         _______ _______ _______ _____ _____    ______ ____
ROOT
ATOM      1  C   UNL     1       2.319   2.332  19.703  0.00  0.00    +0.000 C 
ATOM      2  C   UNL     1       3.759   2.557  20.052  0.00  0.00    +0.000 C 
ATOM      3  O   UNL     1       3.988   3.864  19.628  0.00  0.00    +0.000 OA
ATOM      4  C   UNL     1       3.247   3.940  18.423  0.00  0.00    +0.000 C 
ATOM      5  O   UNL     1       2.128   3.062  18.513  0.00  0.00    +0.000 OA
ENDROOT
BRANCH   1   6
ATOM      6  C   UNL     1       1.390   2.834  20.825  0.00  0.00    +0.000 C 
BRANCH   6   7
ATOM      7  O   UNL     1       2.129   3.036  22.000  0.00  0.00    +0.000 OA
ATOM      8  H   UNL     1       1.484   2.972  22.753  0.00  0.00    +0.000 HD
ENDBRANCH   6   7
ENDBRANCH   1   6
BRANCH   4   9
ATOM      9  C   UNL     1       2.763   5.394  18.180  0.00  0.00    +0.000 C 
BRANCH   9  10
ATOM     10  C   UNL     1       3.000   6.326  19.371  0.00  0.00    +0.000 C 
BRANCH  10  11
ATOM     11  C   UNL     1       2.200   7.601  19.269  0.00  0.00    +0.000 A 
ATOM     12  C   UNL     1       1.580   8.143  20.410  0.00  0.00    +0.000 A 
ATOM     13  C   UNL     1       0.864   9.341  20.321  0.00  0.00    +0.000 A 
ATOM     14  C   UNL     1       0.759  10.007  19.096  0.00  0.00    +0.000 A 
ATOM     15 CL   UNL     1      -0.130  11.515  18.989  0.00  0.00    +0.000 Cl
ATOM     16  C   UNL     1       1.369   9.473  17.957  0.00  0.00    +0.000 A 
ATOM     17  C   UNL     1       2.088   8.279  18.042  0.00  0.00    +0.000 A 
ENDBRANCH  10  11
ENDBRANCH   9  10
ENDBRANCH   4   9
BRANCH   4  18
ATOM     18  C   UNL     1       4.153   3.523  17.224  0.00  0.00    +0.000 C 
BRANCH  18  19
ATOM     19  N   UNL     1       5.225   4.503  16.997  0.00  0.00    +0.000 N 
ATOM     20  C   UNL     1       6.346   4.653  17.724  0.00  0.00    +0.000 A 
ATOM     21  C   UNL     1       7.085   5.670  17.163  0.00  0.00    +0.000 A 
ATOM     22  N   UNL     1       6.425   6.163  16.097  0.00  0.00    +0.000 NA
ATOM     23  C   UNL     1       5.294   5.438  16.022  0.00  0.00    +0.000 A 
ENDBRANCH  18  19
ENDBRANCH   4  18
TORSDOF 7
ENDMDL
MODEL 3
REMARK VINA RESULT:      -7.1      2.214      4.322
REMARK  Name = 
REMARK  7 active torsions:
REMARK  status: ('A' for Active; 'I' for Inactive)
REMARK    1  A    between atoms: O_1  and  C_2
REMARK    2  A    between atoms: C_2  and  C_3
REMARK    3  A    between atoms: C_6  and  C_7
REMARK    4  A    between atoms: C_6  and  C_16
REMARK    5  A    between atoms: C_7  and  C_8
REMARK    6  A    between atoms: C_8  and  C_9
REMARK    7  A    between atoms: C_16  and  N_17
REMARK                            x       y       z     vdW  Elec       q    Type
REMARK                         _______ _______ _______ _____ _____    ______ ____
ROOT
ATOM      1  C   UNL     1       2.761   2.037  18.332  0.00  0.00    +0.000 C 
ATOM      2  C   UNL     1       3.995   2.225  19.161  0.00  0.00    +0.000 C 
ATOM      3  O   UNL     1       4.166   3.607  19.168  0.00  0.00    +0.000 OA
ATOM      4  C   UNL     1       3.805   3.976  17.848  0.00  0.00    +0.000 C 
ATOM      5  O   UNL     1       2.831   3.056  17.361  0.00  0.00    +0.000 OA
ENDROOT
BRANCH   1   6
ATOM      6  C   UNL     1       1.489   2.167  19.191  0.00  0.00    +0.000 C 
BRANCH   6   7
ATOM      7  O   UNL     1       1.832   2.559  20.494  0.00  0.00    +0.000 OA
ATOM      8  H   UNL     1       1.423   1.892  21.106  0.00  0.00    +0.000 HD
ENDBRANCH   6   7
ENDBRANCH   1   6
BRANCH   4   9
ATOM      9  C   UNL     1       3.229   5.417  17.832  0.00  0.00    +0.000 C 
BRANCH   9  10
ATOM     10  C   UNL     1       3.077   6.032  19.225  0.00  0.00    +0.000 C 
BRANCH  10  11
ATOM     11  C   UNL     1       2.354   7.356  19.192  0.00  0.00    +0.000 A 
ATOM     12  C   UNL     1       2.295   8.103  18.001  0.00  0.00    +0.000 A 
ATOM     13  C   UNL     1       1.599   9.315  17.963  0.00  0.00    +0.000 A 
ATOM     14  C   UNL     1       0.958   9.793  19.111  0.00  0.00    +0.000 A 
ATOM     15 CL   UNL     1       0.077  11.308  19.058  0.00  0.00    +0.000 Cl
ATOM     16  C   UNL     1       1.015   9.060  20.299  0.00  0.00    +0.000 A 
ATOM     17  C   UNL     1       1.706   7.846  20.340  0.00  0.00    +0.000 A 
ENDBRANCH  10  11
ENDBRANCH   9  10
ENDBRANCH   4   9
BRANCH   4  18
ATOM     18  C   UNL     1       5.067   3.947  16.933  0.00  0.00    +0.000 C 
BRANCH  18  19
ATOM     19  N   UNL     1       5.961   5.079  17.218  0.00  0.00    +0.000 N 
ATOM     20  C   UNL     1       6.833   5.178  18.237  0.00  0.00    +0.000 A 
ATOM     21  C   UNL     1       7.481   6.387  18.127  0.00  0.00    +0.000 A 
ATOM     22  N   UNL     1       7.011   7.047  17.051  0.00  0.00    +0.000 NA
ATOM     23  C   UNL     1       6.084   6.229  16.519  0.00  0.00    +0.000 A 
ENDBRANCH  18  19
ENDBRANCH   4  18
TORSDOF 7
ENDMDL
MODEL 4
REMARK VINA RESULT:      -7.1      0.946      1.250
REMARK  Name = 
REMARK  7 active torsions:
REMARK  status: ('A' for Active; 'I' for Inactive)
REMARK    1  A    between atoms: O_1  and  C_2
REMARK    2  A    between atoms: C_2  and  C_3
REMARK    3  A    between atoms: C_6  and  C_7
REMARK    4  A    between atoms: C_6  and  C_16
REMARK    5  A    between atoms: C_7  and  C_8
REMARK    6  A    between atoms: C_8  and  C_9
REMARK    7  A    between atoms: C_16  and  N_17
REMARK                            x       y       z     vdW  Elec       q    Type
REMARK                         _______ _______ _______ _____ _____    ______ ____
ROOT
ATOM      1  C   UNL     1       6.596   4.558  17.840  0.00  0.00    +0.000 C 
ATOM      2  C   UNL     1       5.830   4.468  16.555  0.00  0.00    +0.000 C 
ATOM      3  O   UNL     1       4.644   5.139  16.844  0.00  0.00    +0.000 OA
ATOM      4  C   UNL     1       4.374   4.743  18.177  0.00  0.00    +0.000 C 
ATOM      5  O   UNL     1       5.609   4.489  18.843  0.00  0.00    +0.000 OA
ENDROOT
BRANCH   1   6
ATOM      6  C   UNL     1       7.389   5.876  17.923  0.00  0.00    +0.000 C 
BRANCH   6   7
ATOM      7  O   UNL     1       7.472   6.463  16.651  0.00  0.00    +0.000 OA
ATOM      8  H   UNL     1       7.740   5.740  16.024  0.00  0.00    +0.000 HD
ENDBRANCH   6   7
ENDBRANCH   1   6
BRANCH   4   9
ATOM      9  C   UNL     1       3.589   5.856  18.920  0.00  0.00    +0.000 C 
BRANCH   9  10
ATOM     10  C   UNL     1       3.140   7.002  18.010  0.00  0.00    +0.000 C 
BRANCH  10  11
ATOM     11  C   UNL     1       2.189   7.946  18.702  0.00  0.00    +0.000 A 
ATOM     12  C   UNL     1       1.926   7.806  20.077  0.00  0.00    +0.000 A 
ATOM     13  C   UNL     1       1.067   8.701  20.725  0.00  0.00    +0.000 A 
ATOM     14  C   UNL     1       0.463   9.738  20.007  0.00  0.00    +0.000 A 
ATOM     15 CL   UNL     1      -0.604  10.865  20.824  0.00  0.00    +0.000 Cl
ATOM     16  C   UNL     1       0.716   9.881  18.640  0.00  0.00    +0.000 A 
ATOM     17  C   UNL     1       1.576   8.993  17.990  0.00  0.00    +0.000 A 
ENDBRANCH  10  11
ENDBRANCH   9  10
ENDBRANCH   4   9
BRANCH   4  18
ATOM     18  C   UNL     1       3.499   3.452  18.173  0.00  0.00    +0.000 C 
BRANCH  18  19
ATOM     19  N   UNL     1       2.852   3.239  19.476  0.00  0.00    +0.000 N 
ATOM     20  C   UNL     1       1.563   3.474  19.781  0.00  0.00    +0.000 A 
ATOM     21  C   UNL     1       1.368   3.125  21.099  0.00  0.00    +0.000 A 
ATOM     22  N   UNL     1       2.530   2.685  21.619  0.00  0.00    +0.000 NA
ATOM     23  C   UNL     1       3.417   2.770  20.610  0.00  0.00    +0.000 A 
ENDBRANCH  18  19
ENDBRANCH   4  18
TORSDOF 7
ENDMDL
MODEL 5
REMARK VINA RESULT:      -7.0      0.516      1.324
REMARK  Name = 
REMARK  7 active torsions:
REMARK  status: ('A' for Active; 'I' for Inactive)
REMARK    1  A    between atoms: O_1  and  C_2
REMARK    2  A    between atoms: C_2  and  C_3
REMARK    3  A    between atoms: C_6  and  C_7
REMARK    4  A    between atoms: C_6  and  C_16
REMARK    5  A    between atoms: C_7  and  C_8
REMARK    6  A    between atoms: C_8  and  C_9
REMARK    7  A    between atoms: C_16  and  N_17
REMARK                            x       y       z     vdW  Elec       q    Type
REMARK                         _______ _______ _______ _____ _____    ______ ____
ROOT
ATOM      1  C   UNL     1       6.932   5.349  18.139  0.00  0.00    +0.000 C 
ATOM      2  C   UNL     1       6.248   4.496  17.114  0.00  0.00    +0.000 C 
ATOM      3  O   UNL     1       4.897   4.711  17.374  0.00  0.00    +0.000 OA
ATOM      4  C   UNL     1       4.852   4.770  18.789  0.00  0.00    +0.000 C 
ATOM      5  O   UNL     1       6.093   5.283  19.269  0.00  0.00    +0.000 OA
ENDROOT
BRANCH   1   6
ATOM      6  C   UNL     1       7.091   6.797  17.641  0.00  0.00    +0.000 C 
BRANCH   6   7
ATOM      7  O   UNL     1       7.719   6.804  16.386  0.00  0.00    +0.000 OA
ATOM      8  H   UNL     1       7.205   7.436  15.817  0.00  0.00    +0.000 HD
ENDBRANCH   6   7
ENDBRANCH   1   6
BRANCH   4   9
ATOM      9  C   UNL     1       3.686   5.683  19.253  0.00  0.00    +0.000 C 
BRANCH   9  10
ATOM     10  C   UNL     1       3.138   6.588  18.146  0.00  0.00    +0.000 C 
BRANCH  10  11
ATOM     11  C   UNL     1       2.308   7.723  18.691  0.00  0.00    +0.000 A 
ATOM     12  C   UNL     1       1.884   8.763  17.844  0.00  0.00    +0.000 A 
ATOM     13  C   UNL     1       1.089   9.800  18.344  0.00  0.00    +0.000 A 
ATOM     14  C   UNL     1       0.713   9.809  19.691  0.00  0.00    +0.000 A 
ATOM     15 CL   UNL     1      -0.293  11.103  20.313  0.00  0.00    +0.000 Cl
ATOM     16  C   UNL     1       1.134   8.781  20.540  0.00  0.00    +0.000 A 
ATOM     17  C   UNL     1       1.924   7.742  20.044  0.00  0.00    +0.000 A 
ENDBRANCH  10  11
ENDBRANCH   9  10
ENDBRANCH   4   9
BRANCH   4  18
ATOM     18  C   UNL     1       4.610   3.342  19.365  0.00  0.00    +0.000 C 
BRANCH  18  19
ATOM     19  N   UNL     1       3.182   2.992  19.347  0.00  0.00    +0.000 N 
ATOM     20  C   UNL     1       2.474   2.557  18.289  0.00  0.00    +0.000 A 
ATOM     21  C   UNL     1       1.181   2.331  18.706  0.00  0.00    +0.000 A 
ATOM     22  N   UNL     1       1.077   2.634  20.015  0.00  0.00    +0.000 NA
ATOM     23  C   UNL     1       2.308   3.038  20.377  0.00  0.00    +0.000 A 
ENDBRANCH  18  19
ENDBRANCH   4  18
TORSDOF 7
ENDMDL
MODEL 6
REMARK VINA RESULT:      -7.0      2.127      4.075
REMARK  Name = 
REMARK  7 active torsions:
REMARK  status: ('A' for Active; 'I' for Inactive)
REMARK    1  A    between atoms: O_1  and  C_2
REMARK    2  A    between atoms: C_2  and  C_3
REMARK    3  A    between atoms: C_6  and  C_7
REMARK    4  A    between atoms: C_6  and  C_16
REMARK    5  A    between atoms: C_7  and  C_8
REMARK    6  A    between atoms: C_8  and  C_9
REMARK    7  A    between atoms: C_16  and  N_17
REMARK                            x       y       z     vdW  Elec       q    Type
REMARK                         _______ _______ _______ _____ _____    ______ ____
ROOT
ATOM      1  C   UNL     1       4.031   2.544  18.651  0.00  0.00    +0.000 C 
ATOM      2  C   UNL     1       4.230   3.162  20.002  0.00  0.00    +0.000 C 
ATOM      3  O   UNL     1       3.538   4.367  19.904  0.00  0.00    +0.000 OA
ATOM      4  C   UNL     1       3.822   4.788  18.581  0.00  0.00    +0.000 C 
ATOM      5  O   UNL     1       4.017   3.637  17.762  0.00  0.00    +0.000 OA
ENDROOT
BRANCH   1   6
ATOM      6  C   UNL     1       2.710   1.754  18.589  0.00  0.00    +0.000 C 
BRANCH   6   7
ATOM      7  O   UNL     1       2.084   1.970  17.353  0.00  0.00    +0.000 OA
ATOM      8  H   UNL     1       2.748   2.434  16.778  0.00  0.00    +0.000 HD
ENDBRANCH   6   7
ENDBRANCH   1   6
BRANCH   4   9
ATOM      9  C   UNL     1       2.652   5.641  18.026  0.00  0.00    +0.000 C 
BRANCH   9  10
ATOM     10  C   UNL     1       3.011   7.116  17.820  0.00  0.00    +0.000 C 
BRANCH  10  11
ATOM     11  C   UNL     1       2.179   8.035  18.678  0.00  0.00    +0.000 A 
ATOM     12  C   UNL     1       1.626   9.208  18.133  0.00  0.00    +0.000 A 
ATOM     13  C   UNL     1       0.829  10.044  18.922  0.00  0.00    +0.000 A 
ATOM     14  C   UNL     1       0.580   9.720  20.259  0.00  0.00    +0.000 A 
ATOM     15 CL   UNL     1      -0.429  10.764  21.243  0.00  0.00    +0.000 Cl
ATOM     16  C   UNL     1       1.129   8.558  20.810  0.00  0.00    +0.000 A 
ATOM     17  C   UNL     1       1.922   7.718  20.024  0.00  0.00    +0.000 A 
ENDBRANCH  10  11
ENDBRANCH   9  10
ENDBRANCH   4   9
BRANCH   4  18
ATOM     18  C   UNL     1       5.109   5.668  18.577  0.00  0.00    +0.000 C 
BRANCH  18  19
ATOM     19  N   UNL     1       6.021   5.278  17.491  0.00  0.00    +0.000 N 
ATOM     20  C   UNL     1       5.841   5.490  16.175  0.00  0.00    +0.000 A 
ATOM     21  C   UNL     1       6.935   4.985  15.509  0.00  0.00    +0.000 A 
ATOM     22  N   UNL     1       7.790   4.449  16.401  0.00  0.00    +0.000 NA
ATOM     23  C   UNL     1       7.206   4.637  17.599  0.00  0.00    +0.000 A 
ENDBRANCH  18  19
ENDBRANCH   4  18
TORSDOF 7
ENDMDL
MODEL 7
REMARK VINA RESULT:      -7.0      0.985      1.224
REMARK  Name = 
REMARK  7 active torsions:
REMARK  status: ('A' for Active; 'I' for Inactive)
REMARK    1  A    between atoms: O_1  and  C_2
REMARK    2  A    between atoms: C_2  and  C_3
REMARK    3  A    between atoms: C_6  and  C_7
REMARK    4  A    between atoms: C_6  and  C_16
REMARK    5  A    between atoms: C_7  and  C_8
REMARK    6  A    between atoms: C_8  and  C_9
REMARK    7  A    between atoms: C_16  and  N_17
REMARK                            x       y       z     vdW  Elec       q    Type
REMARK                         _______ _______ _______ _____ _____    ______ ____
ROOT
ATOM      1  C   UNL     1       6.621   4.657  17.758  0.00  0.00    +0.000 C 
ATOM      2  C   UNL     1       6.301   4.147  16.386  0.00  0.00    +0.000 C 
ATOM      3  O   UNL     1       5.017   4.635  16.157  0.00  0.00    +0.000 OA
ATOM      4  C   UNL     1       4.397   4.499  17.424  0.00  0.00    +0.000 C 
ATOM      5  O   UNL     1       5.389   4.630  18.440  0.00  0.00    +0.000 OA
ENDROOT
BRANCH   1   6
ATOM      6  C   UNL     1       7.199   6.084  17.700  0.00  0.00    +0.000 C 
BRANCH   6   7
ATOM      7  O   UNL     1       7.408   6.459  16.365  0.00  0.00    +0.000 OA
ATOM      8  H   UNL     1       8.035   7.229  16.383  0.00  0.00    +0.000 HD
ENDBRANCH   6   7
ENDBRANCH   1   6
BRANCH   4   9
ATOM      9  C   UNL     1       3.304   5.584  17.606  0.00  0.00    +0.000 C 
BRANCH   9  10
ATOM     10  C   UNL     1       3.339   6.266  18.977  0.00  0.00    +0.000 C 
BRANCH  10  11
ATOM     11  C   UNL     1       2.416   7.457  19.049  0.00  0.00    +0.000 A 
ATOM     12  C   UNL     1       1.824   7.824  20.271  0.00  0.00    +0.000 A 
ATOM     13  C   UNL     1       0.993   8.946  20.343  0.00  0.00    +0.000 A 
ATOM     14  C   UNL     1       0.744   9.710  19.199  0.00  0.00    +0.000 A 
ATOM     15 CL   UNL     1      -0.290  11.124  19.294  0.00  0.00    +0.000 Cl
ATOM     16  C   UNL     1       1.325   9.351  17.980  0.00  0.00    +0.000 A 
ATOM     17  C   UNL     1       2.159   8.233  17.904  0.00  0.00    +0.000 A 
ENDBRANCH  10  11
ENDBRANCH   9  10
ENDBRANCH   4   9
BRANCH   4  18
ATOM     18  C   UNL     1       3.715   3.100  17.525  0.00  0.00    +0.000 C 
BRANCH  18  19
ATOM     19  N   UNL     1       3.080   2.908  18.837  0.00  0.00    +0.000 N 
ATOM     20  C   UNL     1       3.705   2.750  20.017  0.00  0.00    +0.000 A 
ATOM     21  C   UNL     1       2.744   2.617  20.994  0.00  0.00    +0.000 A 
ATOM     22  N   UNL     1       1.523   2.679  20.428  0.00  0.00    +0.000 NA
ATOM     23  C   UNL     1       1.758   2.852  19.114  0.00  0.00    +0.000 A 
ENDBRANCH  18  19
ENDBRANCH   4  18
TORSDOF 7
ENDMDL
MODEL 8
REMARK VINA RESULT:      -7.0      2.262      4.070
REMARK  Name = 
REMARK  7 active torsions:
REMARK  status: ('A' for Active; 'I' for Inactive)
REMARK    1  A    between atoms: O_1  and  C_2
REMARK    2  A    between atoms: C_2  and  C_3
REMARK    3  A    between atoms: C_6  and  C_7
REMARK    4  A    between atoms: C_6  and  C_16
REMARK    5  A    between atoms: C_7  and  C_8
REMARK    6  A    between atoms: C_8  and  C_9
REMARK    7  A    between atoms: C_16  and  N_17
REMARK                            x       y       z     vdW  Elec       q    Type
REMARK                         _______ _______ _______ _____ _____    ______ ____
ROOT
ATOM      1  C   UNL     1       2.769   3.218  18.105  0.00  0.00    +0.000 C 
ATOM      2  C   UNL     1       3.486   2.959  19.395  0.00  0.00    +0.000 C 
ATOM      3  O   UNL     1       4.082   4.186  19.678  0.00  0.00    +0.000 OA
ATOM      4  C   UNL     1       4.494   4.640  18.400  0.00  0.00    +0.000 C 
ATOM      5  O   UNL     1       3.598   4.126  17.417  0.00  0.00    +0.000 OA
ENDROOT
BRANCH   1   6
ATOM      6  C   UNL     1       1.371   3.814  18.355  0.00  0.00    +0.000 C 
BRANCH   6   7
ATOM      7  O   UNL     1       1.098   3.826  19.731  0.00  0.00    +0.000 OA
ATOM      8  H   UNL     1       0.180   3.461  19.840  0.00  0.00    +0.000 HD
ENDBRANCH   6   7
ENDBRANCH   1   6
BRANCH   4   9
ATOM      9  C   UNL     1       4.499   6.190  18.356  0.00  0.00    +0.000 C 
BRANCH   9  10
ATOM     10  C   UNL     1       3.342   6.785  17.548  0.00  0.00    +0.000 C 
BRANCH  10  11
ATOM     11  C   UNL     1       2.461   7.681  18.382  0.00  0.00    +0.000 A 
ATOM     12  C   UNL     1       2.207   7.372  19.730  0.00  0.00    +0.000 A 
ATOM     13  C   UNL     1       1.414   8.220  20.510  0.00  0.00    +0.000 A 
ATOM     14  C   UNL     1       0.868   9.381  19.954  0.00  0.00    +0.000 A 
ATOM     15 CL   UNL     1      -0.115  10.448  20.937  0.00  0.00    +0.000 Cl
ATOM     16  C   UNL     1       1.113   9.694  18.613  0.00  0.00    +0.000 A 
ATOM     17  C   UNL     1       1.908   8.851  17.832  0.00  0.00    +0.000 A 
ENDBRANCH  10  11
ENDBRANCH   9  10
ENDBRANCH   4   9
BRANCH   4  18
ATOM     18  C   UNL     1       5.943   4.141  18.110  0.00  0.00    +0.000 C 
BRANCH  18  19
ATOM     19  N   UNL     1       6.345   4.438  16.727  0.00  0.00    +0.000 N 
ATOM     20  C   UNL     1       6.019   3.735  15.627  0.00  0.00    +0.000 A 
ATOM     21  C   UNL     1       6.585   4.361  14.540  0.00  0.00    +0.000 A 
ATOM     22  N   UNL     1       7.270   5.444  14.956  0.00  0.00    +0.000 NA
ATOM     23  C   UNL     1       7.111   5.463  16.293  0.00  0.00    +0.000 A 
ENDBRANCH  18  19
ENDBRANCH   4  18
TORSDOF 7
ENDMDL
MODEL 9
REMARK VINA RESULT:      -7.0      2.136      3.952
REMARK  Name = 
REMARK  7 active torsions:
REMARK  status: ('A' for Active; 'I' for Inactive)
REMARK    1  A    between atoms: O_1  and  C_2
REMARK    2  A    between atoms: C_2  and  C_3
REMARK    3  A    between atoms: C_6  and  C_7
REMARK    4  A    between atoms: C_6  and  C_16
REMARK    5  A    between atoms: C_7  and  C_8
REMARK    6  A    between atoms: C_8  and  C_9
REMARK    7  A    between atoms: C_16  and  N_17
REMARK                            x       y       z     vdW  Elec       q    Type
REMARK                         _______ _______ _______ _____ _____    ______ ____
ROOT
ATOM      1  C   UNL     1       4.072   2.716  18.485  0.00  0.00    +0.000 C 
ATOM      2  C   UNL     1       4.428   3.325  19.808  0.00  0.00    +0.000 C 
ATOM      3  O   UNL     1       3.744   4.537  19.793  0.00  0.00    +0.000 OA
ATOM      4  C   UNL     1       3.882   4.962  18.448  0.00  0.00    +0.000 C 
ATOM      5  O   UNL     1       3.971   3.814  17.608  0.00  0.00    +0.000 OA
ENDROOT
BRANCH   1   6
ATOM      6  C   UNL     1       2.743   1.941  18.569  0.00  0.00    +0.000 C 
BRANCH   6   7
ATOM      7  O   UNL     1       2.096   1.970  17.325  0.00  0.00    +0.000 OA
ATOM      8  H   UNL     1       1.591   2.825  17.289  0.00  0.00    +0.000 HD
ENDBRANCH   6   7
ENDBRANCH   1   6
BRANCH   4   9
ATOM      9  C   UNL     1       2.667   5.832  18.032  0.00  0.00    +0.000 C 
BRANCH   9  10
ATOM     10  C   UNL     1       3.001   7.318  17.875  0.00  0.00    +0.000 C 
BRANCH  10  11
ATOM     11  C   UNL     1       2.056   8.203  18.650  0.00  0.00    +0.000 A 
ATOM     12  C   UNL     1       1.845   7.985  20.023  0.00  0.00    +0.000 A 
ATOM     13  C   UNL     1       0.992   8.825  20.747  0.00  0.00    +0.000 A 
ATOM     14  C   UNL     1       0.344   9.886  20.109  0.00  0.00    +0.000 A 
ATOM     15 CL   UNL     1      -0.716  10.945  21.021  0.00  0.00    +0.000 Cl
ATOM     16  C   UNL     1       0.546  10.108  18.743  0.00  0.00    +0.000 A 
ATOM     17  C   UNL     1       1.399   9.274  18.017  0.00  0.00    +0.000 A 
ENDBRANCH  10  11
ENDBRANCH   9  10
ENDBRANCH   4   9
BRANCH   4  18
ATOM     18  C   UNL     1       5.171   5.828  18.303  0.00  0.00    +0.000 C 
BRANCH  18  19
ATOM     19  N   UNL     1       6.010   5.357  17.191  0.00  0.00    +0.000 N 
ATOM     20  C   UNL     1       5.767   5.516  15.878  0.00  0.00    +0.000 A 
ATOM     21  C   UNL     1       6.807   4.942  15.181  0.00  0.00    +0.000 A 
ATOM     22  N   UNL     1       7.690   4.417  16.052  0.00  0.00    +0.000 NA
ATOM     23  C   UNL     1       7.177   4.680  17.268  0.00  0.00    +0.000 A 
ENDBRANCH  18  19
ENDBRANCH   4  18
TORSDOF 7
ENDMDL
