MODEL 1
REMARK VINA RESULT:      -8.0      0.000      0.000
REMARK  Name = 
REMARK  5 active torsions:
REMARK  status: ('A' for Active; 'I' for Inactive)
REMARK    1  A    between atoms: C_2  and  C_4
REMARK    2  A    between atoms: C_10  and  C_11
REMARK    3  A    between atoms: C_11  and  N_12
REMARK    4  A    between atoms: C_17  and  C_18
REMARK    5  A    between atoms: N_20  and  O_21
REMARK                            x       y       z     vdW  Elec       q    Type
REMARK                         _______ _______ _______ _____ _____    ______ ____
ROOT
ATOM      1  N   UNL     1       3.398   4.220  18.811  0.00  0.00    +0.000 N 
ATOM      2  C   UNL     1       2.859   3.160  19.506  0.00  0.00    +0.000 A 
ATOM      3  C   UNL     1       2.018   3.663  20.470  0.00  0.00    +0.000 A 
ATOM      4  C   UNL     1       1.975   5.071  20.306  0.00  0.00    +0.000 A 
ATOM      5  C   UNL     1       1.307   6.099  20.984  0.00  0.00    +0.000 A 
ATOM      6  C   UNL     1       1.495   7.383  20.494  0.00  0.00    +0.000 A 
ATOM      7  N   UNL     1       2.231   7.696  19.396  0.00  0.00    +0.000 NA
ATOM      8  C   UNL     1       2.880   6.702  18.744  0.00  0.00    +0.000 A 
ATOM      9  C   UNL     1       2.789   5.393  19.215  0.00  0.00    +0.000 A 
ENDROOT
BRANCH   6  10
ATOM     10  C   UNL     1       0.878   8.532  21.224  0.00  0.00    +0.000 C 
ATOM     11  O   UNL     1      -0.093   9.148  20.795  0.00  0.00    +0.000 OA
ATOM     12  N   UNL     1       1.467   8.831  22.428  0.00  0.00    +0.000 N 
ATOM     13  H   UNL     1       2.216   8.271  22.824  0.00  0.00    +0.000 HD
BRANCH  12  14
ATOM     14  O   UNL     1       0.852   9.826  23.216  0.00  0.00    +0.000 OA
ATOM     15  H   UNL     1       1.477   9.903  23.971  0.00  0.00    +0.000 HD
ENDBRANCH  12  14
ENDBRANCH   6  10
BRANCH   1  16
ATOM     16  C   UNL     1       4.447   4.081  17.794  0.00  0.00    +0.000 C 
BRANCH  16  23
ATOM     17  C   UNL     1       6.127   5.888  16.978  0.00  0.00    +0.000 A 
ATOM     18  C   UNL     1       7.248   6.699  17.245  0.00  0.00    +0.000 A 
ATOM     19  C   UNL     1       7.853   6.674  18.493  0.00  0.00    +0.000 A 
ATOM     20  F   UNL     1       8.929   7.438  18.719  0.00  0.00    +0.000 F 
ATOM     21  C   UNL     1       7.361   5.869  19.504  0.00  0.00    +0.000 A 
ATOM     22  C   UNL     1       6.249   5.065  19.256  0.00  0.00    +0.000 A 
ATOM     23  C   UNL     1       5.601   5.054  17.996  0.00  0.00    +0.000 A 
BRANCH  17  25
ATOM     24  N   UNL     1       5.654   4.908  14.785  0.00  0.00    +0.000 N 
ATOM     25  C   UNL     1       5.522   5.984  15.618  0.00  0.00    +0.000 C 
ATOM     26  O   UNL     1       4.925   6.977  15.234  0.00  0.00    +0.000 OA
ATOM     27  H   UNL     1       5.251   4.992  13.859  0.00  0.00    +0.000 HD
ATOM     28  H   UNL     1       6.020   4.009  15.061  0.00  0.00    +0.000 HD
ENDBRANCH  17  25
ENDBRANCH  16  23
ENDBRANCH   1  16
TORSDOF 5
ENDMDL
MODEL 2
REMARK VINA RESULT:      -7.9      3.331      5.015
REMARK  Name = 
REMARK  5 active torsions:
REMARK  status: ('A' for Active; 'I' for Inactive)
REMARK    1  A    between atoms: C_2  and  C_4
REMARK    2  A    between atoms: C_10  and  C_11
REMARK    3  A    between atoms: C_11  and  N_12
REMARK    4  A    between atoms: C_17  and  C_18
REMARK    5  A    between atoms: N_20  and  O_21
REMARK                            x       y       z     vdW  Elec       q    Type
REMARK                         _______ _______ _______ _____ _____    ______ ____
ROOT
ATOM      1  N   UNL     1       3.055   6.866  19.059  0.00  0.00    +0.000 N 
ATOM      2  C   UNL     1       3.633   7.063  17.824  0.00  0.00    +0.000 A 
ATOM      3  C   UNL     1       3.006   8.127  17.222  0.00  0.00    +0.000 A 
ATOM      4  C   UNL     1       2.072   8.653  18.150  0.00  0.00    +0.000 A 
ATOM      5  C   UNL     1       1.158   9.714  18.100  0.00  0.00    +0.000 A 
ATOM      6  C   UNL     1       0.420   9.945  19.252  0.00  0.00    +0.000 A 
ATOM      7  N   UNL     1       0.556   9.254  20.414  0.00  0.00    +0.000 NA
ATOM      8  C   UNL     1       1.436   8.226  20.460  0.00  0.00    +0.000 A 
ATOM      9  C   UNL     1       2.169   7.894  19.322  0.00  0.00    +0.000 A 
ENDROOT
BRANCH   6  10
ATOM     10  C   UNL     1      -0.631  11.007  19.235  0.00  0.00    +0.000 C 
ATOM     11  O   UNL     1      -1.261  11.335  20.237  0.00  0.00    +0.000 OA
ATOM     12  N   UNL     1      -0.823  11.608  18.016  0.00  0.00    +0.000 N 
ATOM     13  H   UNL     1      -0.246  11.397  17.206  0.00  0.00    +0.000 HD
BRANCH  12  14
ATOM     14  O   UNL     1      -1.716  12.699  17.968  0.00  0.00    +0.000 OA
ATOM     15  H   UNL     1      -2.185  12.540  17.119  0.00  0.00    +0.000 HD
ENDBRANCH  12  14
ENDBRANCH   6  10
BRANCH   1  16
ATOM     16  C   UNL     1       3.368   5.732  19.936  0.00  0.00    +0.000 C 
BRANCH  16  23
ATOM     17  C   UNL     1       3.096   3.510  18.617  0.00  0.00    +0.000 A 
ATOM     18  C   UNL     1       2.294   2.404  18.275  0.00  0.00    +0.000 A 
ATOM     19  C   UNL     1       1.033   2.248  18.833  0.00  0.00    +0.000 A 
ATOM     20  F   UNL     1       0.281   1.200  18.478  0.00  0.00    +0.000 F 
ATOM     21  C   UNL     1       0.546   3.162  19.749  0.00  0.00    +0.000 A 
ATOM     22  C   UNL     1       1.331   4.259  20.103  0.00  0.00    +0.000 A 
ATOM     23  C   UNL     1       2.622   4.462  19.555  0.00  0.00    +0.000 A 
BRANCH  17  25
ATOM     24  N   UNL     1       5.536   3.408  18.791  0.00  0.00    +0.000 N 
ATOM     25  C   UNL     1       4.446   3.598  17.988  0.00  0.00    +0.000 C 
ATOM     26  O   UNL     1       4.602   3.834  16.800  0.00  0.00    +0.000 OA
ATOM     27  H   UNL     1       6.446   3.484  18.354  0.00  0.00    +0.000 HD
ATOM     28  H   UNL     1       5.496   3.088  19.747  0.00  0.00    +0.000 HD
ENDBRANCH  17  25
ENDBRANCH  16  23
ENDBRANCH   1  16
TORSDOF 5
ENDMDL
MODEL 3
REMARK VINA RESULT:      -7.9      3.212      7.541
REMARK  Name = 
REMARK  5 active torsions:
REMARK  status: ('A' for Active; 'I' for Inactive)
REMARK    1  A    between atoms: C_2  and  C_4
REMARK    2  A    between atoms: C_10  and  C_11
REMARK    3  A    between atoms: C_11  and  N_12
REMARK    4  A    between atoms: C_17  and  C_18
REMARK    5  A    between atoms: N_20  and  O_21
REMARK                            x       y       z     vdW  Elec       q    Type
REMARK                         _______ _______ _______ _____ _____    ______ ____
ROOT
ATOM      1  N   UNL     1       5.984   5.162  18.227  0.00  0.00    +0.000 N 
ATOM      2  C   UNL     1       6.722   6.323  18.299  0.00  0.00    +0.000 A 
ATOM      3  C   UNL     1       7.287   6.549  17.067  0.00  0.00    +0.000 A 
ATOM      4  C   UNL     1       6.813   5.541  16.188  0.00  0.00    +0.000 A 
ATOM      5  C   UNL     1       7.042   5.258  14.836  0.00  0.00    +0.000 A 
ATOM      6  C   UNL     1       6.352   4.175  14.309  0.00  0.00    +0.000 A 
ATOM      7  N   UNL     1       5.455   3.419  14.992  0.00  0.00    +0.000 NA
ATOM      8  C   UNL     1       5.237   3.690  16.301  0.00  0.00    +0.000 A 
ATOM      9  C   UNL     1       5.940   4.725  16.916  0.00  0.00    +0.000 A 
ENDROOT
BRANCH   6  10
ATOM     10  C   UNL     1       6.618   3.769  12.896  0.00  0.00    +0.000 C 
ATOM     11  O   UNL     1       7.306   4.437  12.131  0.00  0.00    +0.000 OA
ATOM     12  N   UNL     1       6.053   2.574  12.525  0.00  0.00    +0.000 N 
ATOM     13  H   UNL     1       5.554   1.978  13.180  0.00  0.00    +0.000 HD
BRANCH  12  14
ATOM     14  O   UNL     1       6.371   2.081  11.242  0.00  0.00    +0.000 OA
ATOM     15  H   UNL     1       7.337   1.920  11.319  0.00  0.00    +0.000 HD
ENDBRANCH  12  14
ENDBRANCH   6  10
BRANCH   1  16
ATOM     16  C   UNL     1       5.347   4.526  19.386  0.00  0.00    +0.000 C 
BRANCH  16  23
ATOM     17  C   UNL     1       2.805   4.764  18.899  0.00  0.00    +0.000 A 
ATOM     18  C   UNL     1       1.557   4.147  18.686  0.00  0.00    +0.000 A 
ATOM     19  C   UNL     1       1.450   2.764  18.661  0.00  0.00    +0.000 A 
ATOM     20  F   UNL     1       0.251   2.199  18.476  0.00  0.00    +0.000 F 
ATOM     21  C   UNL     1       2.566   1.964  18.827  0.00  0.00    +0.000 A 
ATOM     22  C   UNL     1       3.809   2.561  19.033  0.00  0.00    +0.000 A 
ATOM     23  C   UNL     1       3.966   3.969  19.071  0.00  0.00    +0.000 A 
BRANCH  17  25
ATOM     24  N   UNL     1       2.558   6.903  20.065  0.00  0.00    +0.000 N 
ATOM     25  C   UNL     1       2.841   6.256  18.895  0.00  0.00    +0.000 C 
ATOM     26  O   UNL     1       3.108   6.903  17.894  0.00  0.00    +0.000 OA
ATOM     27  H   UNL     1       2.572   7.916  20.045  0.00  0.00    +0.000 HD
ATOM     28  H   UNL     1       2.449   6.450  20.960  0.00  0.00    +0.000 HD
ENDBRANCH  17  25
ENDBRANCH  16  23
ENDBRANCH   1  16
TORSDOF 5
ENDMDL
MODEL 4
REMARK VINA RESULT:      -7.8      3.318      7.497
REMARK  Name = 
REMARK  5 active torsions:
REMARK  status: ('A' for Active; 'I' for Inactive)
REMARK    1  A    between atoms: C_2  and  C_4
REMARK    2  A    between atoms: C_10  and  C_11
REMARK    3  A    between atoms: C_11  and  N_12
REMARK    4  A    between atoms: C_17  and  C_18
REMARK    5  A    between atoms: N_20  and  O_21
REMARK                            x       y       z     vdW  Elec       q    Type
REMARK                         _______ _______ _______ _____ _____    ______ ____
ROOT
ATOM      1  N   UNL     1       5.313   4.516  18.680  0.00  0.00    +0.000 N 
ATOM      2  C   UNL     1       6.402   5.048  19.335  0.00  0.00    +0.000 A 
ATOM      3  C   UNL     1       7.389   5.280  18.407  0.00  0.00    +0.000 A 
ATOM      4  C   UNL     1       6.858   4.959  17.131  0.00  0.00    +0.000 A 
ATOM      5  C   UNL     1       7.386   4.988  15.834  0.00  0.00    +0.000 A 
ATOM      6  C   UNL     1       6.524   4.622  14.810  0.00  0.00    +0.000 A 
ATOM      7  N   UNL     1       5.218   4.289  14.976  0.00  0.00    +0.000 NA
ATOM      8  C   UNL     1       4.709   4.256  16.231  0.00  0.00    +0.000 A 
ATOM      9  C   UNL     1       5.532   4.552  17.316  0.00  0.00    +0.000 A 
ENDROOT
BRANCH   6  10
ATOM     10  C   UNL     1       7.051   4.550  13.414  0.00  0.00    +0.000 C 
ATOM     11  O   UNL     1       7.816   5.390  12.948  0.00  0.00    +0.000 OA
ATOM     12  N   UNL     1       6.635   3.456  12.697  0.00  0.00    +0.000 N 
ATOM     13  H   UNL     1       6.070   2.717  13.106  0.00  0.00    +0.000 HD
BRANCH  12  14
ATOM     14  O   UNL     1       7.196   3.273  11.416  0.00  0.00    +0.000 OA
ATOM     15  H   UNL     1       7.120   4.173  11.030  0.00  0.00    +0.000 HD
ENDBRANCH  12  14
ENDBRANCH   6  10
BRANCH   1  16
ATOM     16  C   UNL     1       4.115   4.012  19.363  0.00  0.00    +0.000 C 
BRANCH  16  23
ATOM     17  C   UNL     1       2.086   4.932  20.701  0.00  0.00    +0.000 A 
ATOM     18  C   UNL     1       1.236   6.013  21.007  0.00  0.00    +0.000 A 
ATOM     19  C   UNL     1       1.452   7.261  20.441  0.00  0.00    +0.000 A 
ATOM     20  F   UNL     1       0.620   8.269  20.731  0.00  0.00    +0.000 F 
ATOM     21  C   UNL     1       2.514   7.476  19.582  0.00  0.00    +0.000 A 
ATOM     22  C   UNL     1       3.368   6.417  19.275  0.00  0.00    +0.000 A 
ATOM     23  C   UNL     1       3.183   5.124  19.824  0.00  0.00    +0.000 A 
BRANCH  17  25
ATOM     24  N   UNL     1       0.846   2.824  20.799  0.00  0.00    +0.000 N 
ATOM     25  C   UNL     1       1.798   3.626  21.362  0.00  0.00    +0.000 C 
ATOM     26  O   UNL     1       2.376   3.262  22.374  0.00  0.00    +0.000 OA
ATOM     27  H   UNL     1       0.650   1.946  21.265  0.00  0.00    +0.000 HD
ATOM     28  H   UNL     1       0.412   2.989  19.902  0.00  0.00    +0.000 HD
ENDBRANCH  17  25
ENDBRANCH  16  23
ENDBRANCH   1  16
TORSDOF 5
ENDMDL
MODEL 5
REMARK VINA RESULT:      -7.8      3.238      4.770
REMARK  Name = 
REMARK  5 active torsions:
REMARK  status: ('A' for Active; 'I' for Inactive)
REMARK    1  A    between atoms: C_2  and  C_4
REMARK    2  A    between atoms: C_10  and  C_11
REMARK    3  A    between atoms: C_11  and  N_12
REMARK    4  A    between atoms: C_17  and  C_18
REMARK    5  A    between atoms: N_20  and  O_21
REMARK                            x       y       z     vdW  Elec       q    Type
REMARK                         _______ _______ _______ _____ _____    ______ ____
ROOT
ATOM      1  N   UNL     1       2.630   7.214  19.343  0.00  0.00    +0.000 N 
ATOM      2  C   UNL     1       2.716   7.604  18.025  0.00  0.00    +0.000 A 
ATOM      3  C   UNL     1       1.875   8.675  17.839  0.00  0.00    +0.000 A 
ATOM      4  C   UNL     1       1.319   9.005  19.101  0.00  0.00    +0.000 A 
ATOM      5  C   UNL     1       0.410   9.982  19.527  0.00  0.00    +0.000 A 
ATOM      6  C   UNL     1       0.129  10.012  20.886  0.00  0.00    +0.000 A 
ATOM      7  N   UNL     1       0.701   9.202  21.814  0.00  0.00    +0.000 NA
ATOM      8  C   UNL     1       1.576   8.255  21.402  0.00  0.00    +0.000 A 
ATOM      9  C   UNL     1       1.861   8.124  20.044  0.00  0.00    +0.000 A 
ENDROOT
BRANCH   6  10
ATOM     10  C   UNL     1      -0.896  10.974  21.390  0.00  0.00    +0.000 C 
ATOM     11  O   UNL     1      -1.524  11.725  20.649  0.00  0.00    +0.000 OA
ATOM     12  N   UNL     1      -1.103  10.936  22.747  0.00  0.00    +0.000 N 
ATOM     13  H   UNL     1      -0.647  10.258  23.351  0.00  0.00    +0.000 HD
BRANCH  12  14
ATOM     14  O   UNL     1      -2.145  11.735  23.263  0.00  0.00    +0.000 OA
ATOM     15  H   UNL     1      -2.540  12.108  22.444  0.00  0.00    +0.000 HD
ENDBRANCH  12  14
ENDBRANCH   6  10
BRANCH   1  16
ATOM     16  C   UNL     1       3.281   6.015  19.884  0.00  0.00    +0.000 C 
BRANCH  16  23
ATOM     17  C   UNL     1       3.015   3.835  18.495  0.00  0.00    +0.000 A 
ATOM     18  C   UNL     1       2.240   2.707  18.162  0.00  0.00    +0.000 A 
ATOM     19  C   UNL     1       1.030   2.471  18.797  0.00  0.00    +0.000 A 
ATOM     20  F   UNL     1       0.301   1.404  18.450  0.00  0.00    +0.000 F 
ATOM     21  C   UNL     1       0.567   3.326  19.781  0.00  0.00    +0.000 A 
ATOM     22  C   UNL     1       1.326   4.444  20.126  0.00  0.00    +0.000 A 
ATOM     23  C   UNL     1       2.566   4.727  19.501  0.00  0.00    +0.000 A 
BRANCH  17  25
ATOM     24  N   UNL     1       5.444   3.545  18.391  0.00  0.00    +0.000 N 
ATOM     25  C   UNL     1       4.313   4.010  17.780  0.00  0.00    +0.000 C 
ATOM     26  O   UNL     1       4.393   4.550  16.688  0.00  0.00    +0.000 OA
ATOM     27  H   UNL     1       6.320   3.682  17.902  0.00  0.00    +0.000 HD
ATOM     28  H   UNL     1       5.454   2.981  19.228  0.00  0.00    +0.000 HD
ENDBRANCH  17  25
ENDBRANCH  16  23
ENDBRANCH   1  16
TORSDOF 5
ENDMDL
MODEL 6
REMARK VINA RESULT:      -7.8      4.236      7.641
REMARK  Name = 
REMARK  5 active torsions:
REMARK  status: ('A' for Active; 'I' for Inactive)
REMARK    1  A    between atoms: C_2  and  C_4
REMARK    2  A    between atoms: C_10  and  C_11
REMARK    3  A    between atoms: C_11  and  N_12
REMARK    4  A    between atoms: C_17  and  C_18
REMARK    5  A    between atoms: N_20  and  O_21
REMARK                            x       y       z     vdW  Elec       q    Type
REMARK                         _______ _______ _______ _____ _____    ______ ____
ROOT
ATOM      1  N   UNL     1       4.833   5.540  18.040  0.00  0.00    +0.000 N 
ATOM      2  C   UNL     1       4.467   6.846  17.796  0.00  0.00    +0.000 A 
ATOM      3  C   UNL     1       4.761   7.135  16.485  0.00  0.00    +0.000 A 
ATOM      4  C   UNL     1       5.244   5.945  15.883  0.00  0.00    +0.000 A 
ATOM      5  C   UNL     1       5.697   5.633  14.595  0.00  0.00    +0.000 A 
ATOM      6  C   UNL     1       6.067   4.314  14.375  0.00  0.00    +0.000 A 
ATOM      7  N   UNL     1       5.977   3.319  15.295  0.00  0.00    +0.000 NA
ATOM      8  C   UNL     1       5.544   3.621  16.542  0.00  0.00    +0.000 A 
ATOM      9  C   UNL     1       5.212   4.939  16.855  0.00  0.00    +0.000 A 
ENDROOT
BRANCH   6  10
ATOM     10  C   UNL     1       6.638   3.936  13.048  0.00  0.00    +0.000 C 
ATOM     11  O   UNL     1       7.426   4.651  12.436  0.00  0.00    +0.000 OA
ATOM     12  N   UNL     1       6.235   2.712  12.574  0.00  0.00    +0.000 N 
ATOM     13  H   UNL     1       5.650   2.082  13.116  0.00  0.00    +0.000 HD
BRANCH  12  14
ATOM     14  O   UNL     1       6.836   2.250  11.385  0.00  0.00    +0.000 OA
ATOM     15  H   UNL     1       7.769   2.120  11.666  0.00  0.00    +0.000 HD
ENDBRANCH  12  14
ENDBRANCH   6  10
BRANCH   1  16
ATOM     16  C   UNL     1       4.797   4.917  19.368  0.00  0.00    +0.000 C 
BRANCH  16  23
ATOM     17  C   UNL     1       3.224   2.884  19.755  0.00  0.00    +0.000 A 
ATOM     18  C   UNL     1       1.923   2.395  19.984  0.00  0.00    +0.000 A 
ATOM     19  C   UNL     1       0.857   3.271  20.128  0.00  0.00    +0.000 A 
ATOM     20  F   UNL     1      -0.374   2.783  20.326  0.00  0.00    +0.000 F 
ATOM     21  C   UNL     1       1.049   4.639  20.067  0.00  0.00    +0.000 A 
ATOM     22  C   UNL     1       2.333   5.138  19.847  0.00  0.00    +0.000 A 
ATOM     23  C   UNL     1       3.451   4.282  19.689  0.00  0.00    +0.000 A 
BRANCH  17  25
ATOM     24  N   UNL     1       4.265   1.006  18.580  0.00  0.00    +0.000 N 
ATOM     25  C   UNL     1       4.321   1.881  19.629  0.00  0.00    +0.000 C 
ATOM     26  O   UNL     1       5.247   1.818  20.422  0.00  0.00    +0.000 OA
ATOM     27  H   UNL     1       5.008   0.321  18.514  0.00  0.00    +0.000 HD
ATOM     28  H   UNL     1       3.609   1.067  17.815  0.00  0.00    +0.000 HD
ENDBRANCH  17  25
ENDBRANCH  16  23
ENDBRANCH   1  16
TORSDOF 5
ENDMDL
MODEL 7
REMARK VINA RESULT:      -7.7      2.764      7.000
REMARK  Name = 
REMARK  5 active torsions:
REMARK  status: ('A' for Active; 'I' for Inactive)
REMARK    1  A    between atoms: C_2  and  C_4
REMARK    2  A    between atoms: C_10  and  C_11
REMARK    3  A    between atoms: C_11  and  N_12
REMARK    4  A    between atoms: C_17  and  C_18
REMARK    5  A    between atoms: N_20  and  O_21
REMARK                            x       y       z     vdW  Elec       q    Type
REMARK                         _______ _______ _______ _____ _____    ______ ____
ROOT
ATOM      1  N   UNL     1       2.365   5.699  19.349  0.00  0.00    +0.000 N 
ATOM      2  C   UNL     1       1.501   4.794  18.774  0.00  0.00    +0.000 A 
ATOM      3  C   UNL     1       2.156   4.175  17.736  0.00  0.00    +0.000 A 
ATOM      4  C   UNL     1       3.491   4.656  17.728  0.00  0.00    +0.000 A 
ATOM      5  C   UNL     1       4.602   4.398  16.914  0.00  0.00    +0.000 A 
ATOM      6  C   UNL     1       5.777   5.055  17.250  0.00  0.00    +0.000 A 
ATOM      7  N   UNL     1       5.928   5.878  18.319  0.00  0.00    +0.000 NA
ATOM      8  C   UNL     1       4.853   6.132  19.103  0.00  0.00    +0.000 A 
ATOM      9  C   UNL     1       3.622   5.555  18.792  0.00  0.00    +0.000 A 
ENDROOT
BRANCH   6  10
ATOM     10  C   UNL     1       6.974   4.888  16.372  0.00  0.00    +0.000 C 
ATOM     11  O   UNL     1       7.942   4.204  16.691  0.00  0.00    +0.000 OA
ATOM     12  N   UNL     1       6.898   5.539  15.165  0.00  0.00    +0.000 N 
ATOM     13  H   UNL     1       6.064   6.036  14.864  0.00  0.00    +0.000 HD
BRANCH  12  14
ATOM     14  O   UNL     1       7.945   5.318  14.246  0.00  0.00    +0.000 OA
ATOM     15  H   UNL     1       7.693   5.913  13.505  0.00  0.00    +0.000 HD
ENDBRANCH  12  14
ENDBRANCH   6  10
BRANCH   1  16
ATOM     16  C   UNL     1       1.975   6.646  20.400  0.00  0.00    +0.000 C 
BRANCH  16  23
ATOM     17  C   UNL     1       1.092   9.080  20.622  0.00  0.00    +0.000 A 
ATOM     18  C   UNL     1       0.806  10.317  20.012  0.00  0.00    +0.000 A 
ATOM     19  C   UNL     1       1.092  10.524  18.670  0.00  0.00    +0.000 A 
ATOM     20  F   UNL     1       0.794  11.701  18.107  0.00  0.00    +0.000 F 
ATOM     21  C   UNL     1       1.680   9.530  17.909  0.00  0.00    +0.000 A 
ATOM     22  C   UNL     1       1.975   8.302  18.501  0.00  0.00    +0.000 A 
ATOM     23  C   UNL     1       1.696   8.044  19.866  0.00  0.00    +0.000 A 
BRANCH  17  25
ATOM     24  N   UNL     1      -0.483   8.514  22.408  0.00  0.00    +0.000 N 
ATOM     25  C   UNL     1       0.771   8.941  22.072  0.00  0.00    +0.000 C 
ATOM     26  O   UNL     1       1.580   9.196  22.951  0.00  0.00    +0.000 OA
ATOM     27  H   UNL     1      -0.693   8.437  23.396  0.00  0.00    +0.000 HD
ATOM     28  H   UNL     1      -1.167   8.166  21.752  0.00  0.00    +0.000 HD
ENDBRANCH  17  25
ENDBRANCH  16  23
ENDBRANCH   1  16
TORSDOF 5
ENDMDL
MODEL 8
REMARK VINA RESULT:      -7.7      4.109      7.635
REMARK  Name = 
REMARK  5 active torsions:
REMARK  status: ('A' for Active; 'I' for Inactive)
REMARK    1  A    between atoms: C_2  and  C_4
REMARK    2  A    between atoms: C_10  and  C_11
REMARK    3  A    between atoms: C_11  and  N_12
REMARK    4  A    between atoms: C_17  and  C_18
REMARK    5  A    between atoms: N_20  and  O_21
REMARK                            x       y       z     vdW  Elec       q    Type
REMARK                         _______ _______ _______ _____ _____    ______ ____
ROOT
ATOM      1  N   UNL     1       6.248   5.339  18.095  0.00  0.00    +0.000 N 
ATOM      2  C   UNL     1       6.702   6.634  17.979  0.00  0.00    +0.000 A 
ATOM      3  C   UNL     1       7.025   6.859  16.662  0.00  0.00    +0.000 A 
ATOM      4  C   UNL     1       6.679   5.692  15.933  0.00  0.00    +0.000 A 
ATOM      5  C   UNL     1       6.778   5.337  14.582  0.00  0.00    +0.000 A 
ATOM      6  C   UNL     1       6.290   4.084  14.237  0.00  0.00    +0.000 A 
ATOM      7  N   UNL     1       5.693   3.220  15.098  0.00  0.00    +0.000 NA
ATOM      8  C   UNL     1       5.601   3.561  16.405  0.00  0.00    +0.000 A 
ATOM      9  C   UNL     1       6.126   4.779  16.837  0.00  0.00    +0.000 A 
ENDROOT
BRANCH   6  10
ATOM     10  C   UNL     1       6.444   3.612  12.828  0.00  0.00    +0.000 C 
ATOM     11  O   UNL     1       7.102   4.222  11.991  0.00  0.00    +0.000 OA
ATOM     12  N   UNL     1       5.814   2.425  12.547  0.00  0.00    +0.000 N 
ATOM     13  H   UNL     1       5.339   1.876  13.258  0.00  0.00    +0.000 HD
BRANCH  12  14
ATOM     14  O   UNL     1       6.026   1.870  11.267  0.00  0.00    +0.000 OA
ATOM     15  H   UNL     1       6.070   0.909  11.468  0.00  0.00    +0.000 HD
ENDBRANCH  12  14
ENDBRANCH   6  10
BRANCH   1  16
ATOM     16  C   UNL     1       5.940   4.693  19.377  0.00  0.00    +0.000 C 
BRANCH  16  23
ATOM     17  C   UNL     1       3.766   3.352  19.856  0.00  0.00    +0.000 A 
ATOM     18  C   UNL     1       2.366   3.345  20.013  0.00  0.00    +0.000 A 
ATOM     19  C   UNL     1       1.642   4.526  19.936  0.00  0.00    +0.000 A 
ATOM     20  F   UNL     1       0.311   4.492  20.069  0.00  0.00    +0.000 F 
ATOM     21  C   UNL     1       2.279   5.735  19.723  0.00  0.00    +0.000 A 
ATOM     22  C   UNL     1       3.665   5.759  19.572  0.00  0.00    +0.000 A 
ATOM     23  C   UNL     1       4.445   4.578  19.638  0.00  0.00    +0.000 A 
BRANCH  17  25
ATOM     24  N   UNL     1       4.378   1.175  18.919  0.00  0.00    +0.000 N 
ATOM     25  C   UNL     1       4.475   2.045  19.969  0.00  0.00    +0.000 C 
ATOM     26  O   UNL     1       5.125   1.734  20.956  0.00  0.00    +0.000 OA
ATOM     27  H   UNL     1       4.853   0.285  19.015  0.00  0.00    +0.000 HD
ATOM     28  H   UNL     1       3.970   1.399  18.024  0.00  0.00    +0.000 HD
ENDBRANCH  17  25
ENDBRANCH  16  23
ENDBRANCH   1  16
TORSDOF 5
ENDMDL
MODEL 9
REMARK VINA RESULT:      -7.6      4.684      8.231
REMARK  Name = 
REMARK  5 active torsions:
REMARK  status: ('A' for Active; 'I' for Inactive)
REMARK    1  A    between atoms: C_2  and  C_4
REMARK    2  A    between atoms: C_10  and  C_11
REMARK    3  A    between atoms: C_11  and  N_12
REMARK    4  A    between atoms: C_17  and  C_18
REMARK    5  A    between atoms: N_20  and  O_21
REMARK                            x       y       z     vdW  Elec       q    Type
REMARK                         _______ _______ _______ _____ _____    ______ ____
ROOT
ATOM      1  N   UNL     1       1.034   9.626  19.440  0.00  0.00    +0.000 N 
ATOM      2  C   UNL     1       0.629   9.462  20.747  0.00  0.00    +0.000 A 
ATOM      3  C   UNL     1       1.039   8.220  21.170  0.00  0.00    +0.000 A 
ATOM      4  C   UNL     1       1.792   7.638  20.119  0.00  0.00    +0.000 A 
ATOM      5  C   UNL     1       2.446   6.408  19.969  0.00  0.00    +0.000 A 
ATOM      6  C   UNL     1       3.121   6.211  18.773  0.00  0.00    +0.000 A 
ATOM      7  N   UNL     1       3.225   7.131  17.780  0.00  0.00    +0.000 NA
ATOM      8  C   UNL     1       2.590   8.318  17.922  0.00  0.00    +0.000 A 
ATOM      9  C   UNL     1       1.839   8.564  19.071  0.00  0.00    +0.000 A 
ENDROOT
BRANCH   6  10
ATOM     10  C   UNL     1       3.767   4.888  18.518  0.00  0.00    +0.000 C 
ATOM     11  O   UNL     1       3.270   4.037  17.786  0.00  0.00    +0.000 OA
ATOM     12  N   UNL     1       4.974   4.706  19.145  0.00  0.00    +0.000 N 
ATOM     13  H   UNL     1       5.427   5.440  19.683  0.00  0.00    +0.000 HD
BRANCH  12  14
ATOM     14  O   UNL     1       5.686   3.526  18.844  0.00  0.00    +0.000 OA
ATOM     15  H   UNL     1       6.519   3.656  19.348  0.00  0.00    +0.000 HD
ENDBRANCH  12  14
ENDBRANCH   6  10
BRANCH   1  16
ATOM     16  C   UNL     1       0.658  10.773  18.607  0.00  0.00    +0.000 C 
BRANCH  16  23
ATOM     17  C   UNL     1      -1.716  11.782  18.920  0.00  0.00    +0.000 A 
ATOM     18  C   UNL     1      -3.098  11.713  18.657  0.00  0.00    +0.000 A 
ATOM     19  C   UNL     1      -3.610  10.716  17.839  0.00  0.00    +0.000 A 
ATOM     20  F   UNL     1      -4.929  10.658  17.618  0.00  0.00    +0.000 F 
ATOM     21  C   UNL     1      -2.775   9.784  17.250  0.00  0.00    +0.000 A 
ATOM     22  C   UNL     1      -1.404   9.844  17.497  0.00  0.00    +0.000 A 
ATOM     23  C   UNL     1      -0.837  10.840  18.329  0.00  0.00    +0.000 A 
BRANCH  17  25
ATOM     24  N   UNL     1      -1.010  14.108  19.214  0.00  0.00    +0.000 N 
ATOM     25  C   UNL     1      -1.241  12.893  19.796  0.00  0.00    +0.000 C 
ATOM     26  O   UNL     1      -1.052  12.749  20.994  0.00  0.00    +0.000 OA
ATOM     27  H   UNL     1      -0.675  14.849  19.817  0.00  0.00    +0.000 HD
ATOM     28  H   UNL     1      -1.256  14.346  18.265  0.00  0.00    +0.000 HD
ENDBRANCH  17  25
ENDBRANCH  16  23
ENDBRANCH   1  16
TORSDOF 5
ENDMDL
