MODEL 1
REMARK VINA RESULT:      -8.3      0.000      0.000
REMARK  Name = 
REMARK  8 active torsions:
REMARK  status: ('A' for Active; 'I' for Inactive)
REMARK    1  A    between atoms: C_1  and  O_2
REMARK    2  A    between atoms: O_2  and  C_3
REMARK    3  A    between atoms: C_6  and  C_7
REMARK    4  A    between atoms: N_8  and  N_9
REMARK    5  A    between atoms: C_10  and  C_12
REMARK    6  A    between atoms: C_15  and  C_16
REMARK    7  A    between atoms: C_16  and  N_17
REMARK    8  A    between atoms: C_21  and  O_22
REMARK                            x       y       z     vdW  Elec       q    Type
REMARK                         _______ _______ _______ _____ _____    ______ ____
ROOT
ATOM      1  C   UNL     1       6.285   5.830  17.738  0.00  0.00    +0.000 A 
ATOM      2  C   UNL     1       6.429   4.654  16.992  0.00  0.00    +0.000 A 
ATOM      3  C   UNL     1       5.305   3.881  16.673  0.00  0.00    +0.000 A 
ATOM      4  C   UNL     1       4.020   4.250  17.112  0.00  0.00    +0.000 A 
ATOM      5  C   UNL     1       3.896   5.393  17.914  0.00  0.00    +0.000 A 
ATOM      6  C   UNL     1       5.017   6.175  18.224  0.00  0.00    +0.000 A 
ENDROOT
BRANCH   1   8
ATOM      7  N   UNL     1       7.459   7.925  17.306  0.00  0.00    +0.000 N 
ATOM      8  C   UNL     1       7.435   6.738  18.032  0.00  0.00    +0.000 C 
ATOM      9  O   UNL     1       8.242   6.420  18.901  0.00  0.00    +0.000 OA
ATOM     10  H   UNL     1       6.687   8.184  16.705  0.00  0.00    +0.000 HD
BRANCH   7  12
ATOM     11  C   UNL     1       8.165   9.854  18.262  0.00  0.00    +0.000 C 
ATOM     12  N   UNL     1       8.460   8.826  17.529  0.00  0.00    +0.000 NA
BRANCH  11  16
ATOM     13  C   UNL     1      11.096  12.857  19.109  0.00  0.00    +0.000 A 
ATOM     14  C   UNL     1      10.939  11.767  19.967  0.00  0.00    +0.000 A 
ATOM     15  C   UNL     1       9.990  10.780  19.693  0.00  0.00    +0.000 A 
ATOM     16  C   UNL     1       9.175  10.890  18.564  0.00  0.00    +0.000 A 
ATOM     17  C   UNL     1       9.312  11.993  17.711  0.00  0.00    +0.000 A 
ATOM     18  C   UNL     1      10.271  12.975  17.986  0.00  0.00    +0.000 A 
BRANCH  13  20
ATOM     19  C   UNL     1      11.792  15.118  19.131  0.00  0.00    +0.000 C 
ATOM     20  O   UNL     1      12.046  13.765  19.491  0.00  0.00    +0.000 OA
ENDBRANCH  13  20
ENDBRANCH  11  16
ENDBRANCH   7  12
ENDBRANCH   1   8
BRANCH   4  21
ATOM     21  C   UNL     1       2.780   3.497  16.641  0.00  0.00    +0.000 C 
BRANCH  21  22
ATOM     22  N   UNL     1       2.344   2.451  17.568  0.00  0.00    +0.000 NA
ATOM     23  C   UNL     1       3.429   1.759  18.269  0.00  0.00    +0.000 C 
ATOM     24  C   UNL     1       3.815   2.302  19.653  0.00  0.00    +0.000 C 
ATOM     25  C   UNL     1       2.604   2.571  20.536  0.00  0.00    +0.000 C 
ATOM     26  C   UNL     1       1.615   3.465  19.803  0.00  0.00    +0.000 C 
ATOM     27  C   UNL     1       1.239   2.855  18.441  0.00  0.00    +0.000 C 
BRANCH  26  28
ATOM     28  O   UNL     1       0.449   3.636  20.609  0.00  0.00    +0.000 OA
ATOM     29  H   UNL     1       0.586   3.159  21.446  0.00  0.00    +0.000 HD
ENDBRANCH  26  28
ENDBRANCH  21  22
ENDBRANCH   4  21
TORSDOF 7
ENDMDL
MODEL 2
REMARK VINA RESULT:      -8.0      1.219      1.509
REMARK  Name = 
REMARK  8 active torsions:
REMARK  status: ('A' for Active; 'I' for Inactive)
REMARK    1  A    between atoms: C_1  and  O_2
REMARK    2  A    between atoms: O_2  and  C_3
REMARK    3  A    between atoms: C_6  and  C_7
REMARK    4  A    between atoms: N_8  and  N_9
REMARK    5  A    between atoms: C_10  and  C_12
REMARK    6  A    between atoms: C_15  and  C_16
REMARK    7  A    between atoms: C_16  and  N_17
REMARK    8  A    between atoms: C_21  and  O_22
REMARK                            x       y       z     vdW  Elec       q    Type
REMARK                         _______ _______ _______ _____ _____    ______ ____
ROOT
ATOM      1  C   UNL     1       6.424   5.779  17.968  0.00  0.00    +0.000 A 
ATOM      2  C   UNL     1       5.681   5.954  16.793  0.00  0.00    +0.000 A 
ATOM      3  C   UNL     1       4.593   5.115  16.518  0.00  0.00    +0.000 A 
ATOM      4  C   UNL     1       4.239   4.072  17.394  0.00  0.00    +0.000 A 
ATOM      5  C   UNL     1       5.029   3.866  18.533  0.00  0.00    +0.000 A 
ATOM      6  C   UNL     1       6.111   4.710  18.817  0.00  0.00    +0.000 A 
ENDROOT
BRANCH   1   8
ATOM      7  N   UNL     1       7.499   7.961  17.772  0.00  0.00    +0.000 N 
ATOM      8  C   UNL     1       7.538   6.698  18.354  0.00  0.00    +0.000 C 
ATOM      9  O   UNL     1       8.371   6.318  19.173  0.00  0.00    +0.000 OA
ATOM     10  H   UNL     1       6.708   8.253  17.213  0.00  0.00    +0.000 HD
BRANCH   7  12
ATOM     11  C   UNL     1       8.194  10.117  17.835  0.00  0.00    +0.000 C 
ATOM     12  N   UNL     1       8.464   8.874  18.089  0.00  0.00    +0.000 NA
BRANCH  11  16
ATOM     13  C   UNL     1      11.011  13.226  18.688  0.00  0.00    +0.000 A 
ATOM     14  C   UNL     1      11.281  11.909  19.068  0.00  0.00    +0.000 A 
ATOM     15  C   UNL     1      10.370  10.889  18.787  0.00  0.00    +0.000 A 
ATOM     16  C   UNL     1       9.169  11.186  18.138  0.00  0.00    +0.000 A 
ATOM     17  C   UNL     1       8.882  12.508  17.773  0.00  0.00    +0.000 A 
ATOM     18  C   UNL     1       9.802  13.526  18.051  0.00  0.00    +0.000 A 
BRANCH  13  20
ATOM     19  C   UNL     1      11.502  15.327  19.656  0.00  0.00    +0.000 C 
ATOM     20  O   UNL     1      11.971  14.138  19.032  0.00  0.00    +0.000 OA
ENDBRANCH  13  20
ENDBRANCH  11  16
ENDBRANCH   7  12
ENDBRANCH   1   8
BRANCH   4  21
ATOM     21  C   UNL     1       2.968   3.258  17.176  0.00  0.00    +0.000 C 
BRANCH  21  22
ATOM     22  N   UNL     1       1.765   3.893  17.716  0.00  0.00    +0.000 NA
ATOM     23  C   UNL     1       0.864   2.989  18.437  0.00  0.00    +0.000 C 
ATOM     24  C   UNL     1       1.047   2.899  19.959  0.00  0.00    +0.000 C 
ATOM     25  C   UNL     1       1.177   4.267  20.615  0.00  0.00    +0.000 C 
ATOM     26  C   UNL     1       2.277   5.068  19.932  0.00  0.00    +0.000 C 
ATOM     27  C   UNL     1       2.022   5.153  18.417  0.00  0.00    +0.000 C 
BRANCH  26  28
ATOM     28  O   UNL     1       2.327   6.376  20.501  0.00  0.00    +0.000 OA
ATOM     29  H   UNL     1       3.245   6.554  20.772  0.00  0.00    +0.000 HD
ENDBRANCH  26  28
ENDBRANCH  21  22
ENDBRANCH   4  21
TORSDOF 7
ENDMDL
MODEL 3
REMARK VINA RESULT:      -7.9      1.327      1.781
REMARK  Name = 
REMARK  8 active torsions:
REMARK  status: ('A' for Active; 'I' for Inactive)
REMARK    1  A    between atoms: C_1  and  O_2
REMARK    2  A    between atoms: O_2  and  C_3
REMARK    3  A    between atoms: C_6  and  C_7
REMARK    4  A    between atoms: N_8  and  N_9
REMARK    5  A    between atoms: C_10  and  C_12
REMARK    6  A    between atoms: C_15  and  C_16
REMARK    7  A    between atoms: C_16  and  N_17
REMARK    8  A    between atoms: C_21  and  O_22
REMARK                            x       y       z     vdW  Elec       q    Type
REMARK                         _______ _______ _______ _____ _____    ______ ____
ROOT
ATOM      1  C   UNL     1       6.226   5.851  17.379  0.00  0.00    +0.000 A 
ATOM      2  C   UNL     1       6.234   5.108  18.567  0.00  0.00    +0.000 A 
ATOM      3  C   UNL     1       5.265   4.120  18.784  0.00  0.00    +0.000 A 
ATOM      4  C   UNL     1       4.256   3.869  17.836  0.00  0.00    +0.000 A 
ATOM      5  C   UNL     1       4.219   4.663  16.681  0.00  0.00    +0.000 A 
ATOM      6  C   UNL     1       5.193   5.644  16.456  0.00  0.00    +0.000 A 
ENDROOT
BRANCH   1   8
ATOM      7  N   UNL     1       7.426   7.892  17.974  0.00  0.00    +0.000 N 
ATOM      8  C   UNL     1       7.286   6.855  17.056  0.00  0.00    +0.000 C 
ATOM      9  O   UNL     1       7.983   6.689  16.059  0.00  0.00    +0.000 OA
ATOM     10  H   UNL     1       6.910   7.890  18.844  0.00  0.00    +0.000 HD
BRANCH   7  12
ATOM     11  C   UNL     1       8.273   9.938  18.450  0.00  0.00    +0.000 C 
ATOM     12  N   UNL     1       8.387   8.840  17.770  0.00  0.00    +0.000 NA
BRANCH  11  16
ATOM     13  C   UNL     1      11.139  13.094  18.055  0.00  0.00    +0.000 A 
ATOM     14  C   UNL     1       9.846  13.252  17.552  0.00  0.00    +0.000 A 
ATOM     15  C   UNL     1       8.904  12.230  17.684  0.00  0.00    +0.000 A 
ATOM     16  C   UNL     1       9.258  11.030  18.305  0.00  0.00    +0.000 A 
ATOM     17  C   UNL     1      10.560  10.856  18.792  0.00  0.00    +0.000 A 
ATOM     18  C   UNL     1      11.499  11.887  18.665  0.00  0.00    +0.000 A 
BRANCH  13  20
ATOM     19  C   UNL     1      11.775  15.278  18.706  0.00  0.00    +0.000 C 
ATOM     20  O   UNL     1      11.975  14.157  17.852  0.00  0.00    +0.000 OA
ENDBRANCH  13  20
ENDBRANCH  11  16
ENDBRANCH   7  12
ENDBRANCH   1   8
BRANCH   4  21
ATOM     21  C   UNL     1       3.295   2.697  18.000  0.00  0.00    +0.000 C 
BRANCH  21  22
ATOM     22  N   UNL     1       1.984   3.084  18.525  0.00  0.00    +0.000 NA
ATOM     23  C   UNL     1       1.391   2.127  19.465  0.00  0.00    +0.000 C 
ATOM     24  C   UNL     1       1.647   2.376  20.958  0.00  0.00    +0.000 C 
ATOM     25  C   UNL     1       1.421   3.827  21.357  0.00  0.00    +0.000 C 
ATOM     26  C   UNL     1       2.234   4.746  20.456  0.00  0.00    +0.000 C 
ATOM     27  C   UNL     1       1.911   4.476  18.976  0.00  0.00    +0.000 C 
BRANCH  26  28
ATOM     28  O   UNL     1       1.945   6.105  20.787  0.00  0.00    +0.000 OA
ATOM     29  H   UNL     1       0.985   6.240  20.701  0.00  0.00    +0.000 HD
ENDBRANCH  26  28
ENDBRANCH  21  22
ENDBRANCH   4  21
TORSDOF 7
ENDMDL
MODEL 4
REMARK VINA RESULT:      -7.8      8.221      9.592
REMARK  Name = 
REMARK  8 active torsions:
REMARK  status: ('A' for Active; 'I' for Inactive)
REMARK    1  A    between atoms: C_1  and  O_2
REMARK    2  A    between atoms: O_2  and  C_3
REMARK    3  A    between atoms: C_6  and  C_7
REMARK    4  A    between atoms: N_8  and  N_9
REMARK    5  A    between atoms: C_10  and  C_12
REMARK    6  A    between atoms: C_15  and  C_16
REMARK    7  A    between atoms: C_16  and  N_17
REMARK    8  A    between atoms: C_21  and  O_22
REMARK                            x       y       z     vdW  Elec       q    Type
REMARK                         _______ _______ _______ _____ _____    ______ ____
ROOT
ATOM      1  C   UNL     1       1.218   9.552  19.523  0.00  0.00    +0.000 A 
ATOM      2  C   UNL     1       1.719   9.452  18.219  0.00  0.00    +0.000 A 
ATOM      3  C   UNL     1       2.342   8.271  17.793  0.00  0.00    +0.000 A 
ATOM      4  C   UNL     1       2.500   7.178  18.663  0.00  0.00    +0.000 A 
ATOM      5  C   UNL     1       2.054   7.312  19.986  0.00  0.00    +0.000 A 
ATOM      6  C   UNL     1       1.421   8.487  20.411  0.00  0.00    +0.000 A 
ENDROOT
BRANCH   1   8
ATOM      7  N   UNL     1      -0.565  10.491  20.899  0.00  0.00    +0.000 N 
ATOM      8  C   UNL     1       0.468  10.752  20.003  0.00  0.00    +0.000 C 
ATOM      9  O   UNL     1       0.822  11.867  19.631  0.00  0.00    +0.000 OA
ATOM     10  H   UNL     1      -0.712   9.561  21.268  0.00  0.00    +0.000 HD
BRANCH   7  12
ATOM     11  C   UNL     1      -1.147  11.771  22.676  0.00  0.00    +0.000 C 
ATOM     12  N   UNL     1      -1.287  11.532  21.409  0.00  0.00    +0.000 NA
BRANCH  11  16
ATOM     13  C   UNL     1      -3.304  14.957  24.553  0.00  0.00    +0.000 A 
ATOM     14  C   UNL     1      -1.953  15.114  24.237  0.00  0.00    +0.000 A 
ATOM     15  C   UNL     1      -1.245  14.082  23.618  0.00  0.00    +0.000 A 
ATOM     16  C   UNL     1      -1.883  12.873  23.329  0.00  0.00    +0.000 A 
ATOM     17  C   UNL     1      -3.233  12.701  23.665  0.00  0.00    +0.000 A 
ATOM     18  C   UNL     1      -3.940  13.742  24.278  0.00  0.00    +0.000 A 
BRANCH  13  20
ATOM     19  C   UNL     1      -5.004  16.601  24.503  0.00  0.00    +0.000 C 
ATOM     20  O   UNL     1      -3.884  16.031  25.171  0.00  0.00    +0.000 OA
ENDBRANCH  13  20
ENDBRANCH  11  16
ENDBRANCH   7  12
ENDBRANCH   1   8
BRANCH   4  21
ATOM     21  C   UNL     1       3.039   5.843  18.161  0.00  0.00    +0.000 C 
BRANCH  21  22
ATOM     22  N   UNL     1       2.528   4.689  18.902  0.00  0.00    +0.000 NA
ATOM     23  C   UNL     1       1.700   3.770  18.114  0.00  0.00    +0.000 C 
ATOM     24  C   UNL     1       2.416   2.570  17.475  0.00  0.00    +0.000 C 
ATOM     25  C   UNL     1       3.346   1.858  18.447  0.00  0.00    +0.000 C 
ATOM     26  C   UNL     1       4.308   2.857  19.072  0.00  0.00    +0.000 C 
ATOM     27  C   UNL     1       3.536   4.017  19.726  0.00  0.00    +0.000 C 
BRANCH  26  28
ATOM     28  O   UNL     1       5.115   2.190  20.043  0.00  0.00    +0.000 OA
ATOM     29  H   UNL     1       4.523   1.770  20.693  0.00  0.00    +0.000 HD
ENDBRANCH  26  28
ENDBRANCH  21  22
ENDBRANCH   4  21
TORSDOF 7
ENDMDL
MODEL 5
REMARK VINA RESULT:      -7.8      8.095      9.429
REMARK  Name = 
REMARK  8 active torsions:
REMARK  status: ('A' for Active; 'I' for Inactive)
REMARK    1  A    between atoms: C_1  and  O_2
REMARK    2  A    between atoms: O_2  and  C_3
REMARK    3  A    between atoms: C_6  and  C_7
REMARK    4  A    between atoms: N_8  and  N_9
REMARK    5  A    between atoms: C_10  and  C_12
REMARK    6  A    between atoms: C_15  and  C_16
REMARK    7  A    between atoms: C_16  and  N_17
REMARK    8  A    between atoms: C_21  and  O_22
REMARK                            x       y       z     vdW  Elec       q    Type
REMARK                         _______ _______ _______ _____ _____    ______ ____
ROOT
ATOM      1  C   UNL     1       1.295   9.369  19.496  0.00  0.00    +0.000 A 
ATOM      2  C   UNL     1       1.775   9.231  18.188  0.00  0.00    +0.000 A 
ATOM      3  C   UNL     1       2.389   8.037  17.786  0.00  0.00    +0.000 A 
ATOM      4  C   UNL     1       2.558   6.968  18.684  0.00  0.00    +0.000 A 
ATOM      5  C   UNL     1       2.133   7.141  20.009  0.00  0.00    +0.000 A 
ATOM      6  C   UNL     1       1.509   8.329  20.411  0.00  0.00    +0.000 A 
ENDROOT
BRANCH   1   8
ATOM      7  N   UNL     1      -0.470  10.350  20.866  0.00  0.00    +0.000 N 
ATOM      8  C   UNL     1       0.555  10.584  19.954  0.00  0.00    +0.000 C 
ATOM      9  O   UNL     1       0.910  11.688  19.551  0.00  0.00    +0.000 OA
ATOM     10  H   UNL     1      -0.618   9.430  21.259  0.00  0.00    +0.000 HD
BRANCH   7  12
ATOM     11  C   UNL     1      -1.117  11.608  22.636  0.00  0.00    +0.000 C 
ATOM     12  N   UNL     1      -1.182  11.407  21.356  0.00  0.00    +0.000 NA
BRANCH  11  16
ATOM     13  C   UNL     1      -3.218  14.846  24.489  0.00  0.00    +0.000 A 
ATOM     14  C   UNL     1      -3.875  13.643  24.222  0.00  0.00    +0.000 A 
ATOM     15  C   UNL     1      -3.194  12.580  23.624  0.00  0.00    +0.000 A 
ATOM     16  C   UNL     1      -1.850  12.723  23.271  0.00  0.00    +0.000 A 
ATOM     17  C   UNL     1      -1.191  13.935  23.515  0.00  0.00    +0.000 A 
ATOM     18  C   UNL     1      -1.876  14.994  24.121  0.00  0.00    +0.000 A 
BRANCH  13  20
ATOM     19  C   UNL     1      -3.550  17.156  24.873  0.00  0.00    +0.000 C 
ATOM     20  O   UNL     1      -3.993  15.817  25.061  0.00  0.00    +0.000 OA
ENDBRANCH  13  20
ENDBRANCH  11  16
ENDBRANCH   7  12
ENDBRANCH   1   8
BRANCH   4  21
ATOM     21  C   UNL     1       3.086   5.618  18.211  0.00  0.00    +0.000 C 
BRANCH  21  22
ATOM     22  N   UNL     1       2.564   4.484  18.976  0.00  0.00    +0.000 NA
ATOM     23  C   UNL     1       1.725   3.559  18.209  0.00  0.00    +0.000 C 
ATOM     24  C   UNL     1       2.425   2.340  17.593  0.00  0.00    +0.000 C 
ATOM     25  C   UNL     1       3.351   1.636  18.576  0.00  0.00    +0.000 C 
ATOM     26  C   UNL     1       4.326   2.638  19.178  0.00  0.00    +0.000 C 
ATOM     27  C   UNL     1       3.567   3.818  19.811  0.00  0.00    +0.000 C 
BRANCH  26  28
ATOM     28  O   UNL     1       5.127   1.981  20.161  0.00  0.00    +0.000 OA
ATOM     29  H   UNL     1       4.724   2.134  21.033  0.00  0.00    +0.000 HD
ENDBRANCH  26  28
ENDBRANCH  21  22
ENDBRANCH   4  21
TORSDOF 7
ENDMDL
MODEL 6
REMARK VINA RESULT:      -7.7      1.384      1.719
REMARK  Name = 
REMARK  8 active torsions:
REMARK  status: ('A' for Active; 'I' for Inactive)
REMARK    1  A    between atoms: C_1  and  O_2
REMARK    2  A    between atoms: O_2  and  C_3
REMARK    3  A    between atoms: C_6  and  C_7
REMARK    4  A    between atoms: N_8  and  N_9
REMARK    5  A    between atoms: C_10  and  C_12
REMARK    6  A    between atoms: C_15  and  C_16
REMARK    7  A    between atoms: C_16  and  N_17
REMARK    8  A    between atoms: C_21  and  O_22
REMARK                            x       y       z     vdW  Elec       q    Type
REMARK                         _______ _______ _______ _____ _____    ______ ____
ROOT
ATOM      1  C   UNL     1       6.547   6.261  17.903  0.00  0.00    +0.000 A 
ATOM      2  C   UNL     1       5.510   6.698  17.069  0.00  0.00    +0.000 A 
ATOM      3  C   UNL     1       4.422   5.857  16.800  0.00  0.00    +0.000 A 
ATOM      4  C   UNL     1       4.359   4.557  17.334  0.00  0.00    +0.000 A 
ATOM      5  C   UNL     1       5.434   4.106  18.113  0.00  0.00    +0.000 A 
ATOM      6  C   UNL     1       6.517   4.949  18.394  0.00  0.00    +0.000 A 
ENDROOT
BRANCH   1   8
ATOM      7  N   UNL     1       7.648   8.435  17.770  0.00  0.00    +0.000 N 
ATOM      8  C   UNL     1       7.686   7.147  18.295  0.00  0.00    +0.000 C 
ATOM      9  O   UNL     1       8.537   6.719  19.070  0.00  0.00    +0.000 OA
ATOM     10  H   UNL     1       6.846   8.762  17.250  0.00  0.00    +0.000 HD
BRANCH   7  12
ATOM     11  C   UNL     1       8.417  10.566  17.813  0.00  0.00    +0.000 C 
ATOM     12  N   UNL     1       8.636   9.319  18.097  0.00  0.00    +0.000 NA
BRANCH  11  16
ATOM     13  C   UNL     1      11.344  13.557  18.716  0.00  0.00    +0.000 A 
ATOM     14  C   UNL     1      10.009  13.747  19.080  0.00  0.00    +0.000 A 
ATOM     15  C   UNL     1       9.051  12.773  18.795  0.00  0.00    +0.000 A 
ATOM     16  C   UNL     1       9.421  11.605  18.123  0.00  0.00    +0.000 A 
ATOM     17  C   UNL     1      10.754  11.418  17.735  0.00  0.00    +0.000 A 
ATOM     18  C   UNL     1      11.713  12.395  18.031  0.00  0.00    +0.000 A 
BRANCH  13  20
ATOM     19  C   UNL     1      11.661  15.566  19.924  0.00  0.00    +0.000 C 
ATOM     20  O   UNL     1      12.186  14.587  19.035  0.00  0.00    +0.000 OA
ENDBRANCH  13  20
ENDBRANCH  11  16
ENDBRANCH   7  12
ENDBRANCH   1   8
BRANCH   4  21
ATOM     21  C   UNL     1       3.111   3.697  17.167  0.00  0.00    +0.000 C 
BRANCH  21  22
ATOM     22  N   UNL     1       1.937   4.228  17.861  0.00  0.00    +0.000 NA
ATOM     23  C   UNL     1       0.887   3.242  18.137  0.00  0.00    +0.000 C 
ATOM     24  C   UNL     1       0.926   2.558  19.511  0.00  0.00    +0.000 C 
ATOM     25  C   UNL     1       1.138   3.544  20.652  0.00  0.00    +0.000 C 
ATOM     26  C   UNL     1       2.370   4.396  20.379  0.00  0.00    +0.000 C 
ATOM     27  C   UNL     1       2.260   5.083  19.006  0.00  0.00    +0.000 C 
BRANCH  26  28
ATOM     28  O   UNL     1       2.505   5.372  21.413  0.00  0.00    +0.000 OA
ATOM     29  H   UNL     1       2.791   4.916  22.224  0.00  0.00    +0.000 HD
ENDBRANCH  26  28
ENDBRANCH  21  22
ENDBRANCH   4  21
TORSDOF 7
ENDMDL
MODEL 7
REMARK VINA RESULT:      -7.6      1.134      1.745
REMARK  Name = 
REMARK  8 active torsions:
REMARK  status: ('A' for Active; 'I' for Inactive)
REMARK    1  A    between atoms: C_1  and  O_2
REMARK    2  A    between atoms: O_2  and  C_3
REMARK    3  A    between atoms: C_6  and  C_7
REMARK    4  A    between atoms: N_8  and  N_9
REMARK    5  A    between atoms: C_10  and  C_12
REMARK    6  A    between atoms: C_15  and  C_16
REMARK    7  A    between atoms: C_16  and  N_17
REMARK    8  A    between atoms: C_21  and  O_22
REMARK                            x       y       z     vdW  Elec       q    Type
REMARK                         _______ _______ _______ _____ _____    ______ ____
ROOT
ATOM      1  C   UNL     1       5.968   5.744  17.721  0.00  0.00    +0.000 A 
ATOM      2  C   UNL     1       4.785   6.193  17.122  0.00  0.00    +0.000 A 
ATOM      3  C   UNL     1       3.694   5.325  16.981  0.00  0.00    +0.000 A 
ATOM      4  C   UNL     1       3.769   3.987  17.410  0.00  0.00    +0.000 A 
ATOM      5  C   UNL     1       4.980   3.530  17.948  0.00  0.00    +0.000 A 
ATOM      6  C   UNL     1       6.068   4.399  18.102  0.00  0.00    +0.000 A 
ENDROOT
BRANCH   1   8
ATOM      7  N   UNL     1       7.192   7.782  17.172  0.00  0.00    +0.000 N 
ATOM      8  C   UNL     1       7.130   6.649  17.977  0.00  0.00    +0.000 C 
ATOM      9  O   UNL     1       7.912   6.377  18.884  0.00  0.00    +0.000 OA
ATOM     10  H   UNL     1       6.438   8.014  16.539  0.00  0.00    +0.000 HD
BRANCH   7  12
ATOM     11  C   UNL     1       7.993   9.631  18.208  0.00  0.00    +0.000 C 
ATOM     12  N   UNL     1       8.206   8.678  17.355  0.00  0.00    +0.000 NA
BRANCH  11  16
ATOM     13  C   UNL     1      10.975  12.593  19.026  0.00  0.00    +0.000 A 
ATOM     14  C   UNL     1      10.208  12.671  17.861  0.00  0.00    +0.000 A 
ATOM     15  C   UNL     1       9.229  11.712  17.592  0.00  0.00    +0.000 A 
ATOM     16  C   UNL     1       9.025  10.654  18.481  0.00  0.00    +0.000 A 
ATOM     17  C   UNL     1       9.806  10.557  19.640  0.00  0.00    +0.000 A 
ATOM     18  C   UNL     1      10.781  11.525  19.909  0.00  0.00    +0.000 A 
BRANCH  13  20
ATOM     19  C   UNL     1      12.333  14.218  17.972  0.00  0.00    +0.000 C 
ATOM     20  O   UNL     1      11.912  13.579  19.171  0.00  0.00    +0.000 OA
ENDBRANCH  13  20
ENDBRANCH  11  16
ENDBRANCH   7  12
ENDBRANCH   1   8
BRANCH   4  21
ATOM     21  C   UNL     1       2.539   3.086  17.397  0.00  0.00    +0.000 C 
BRANCH  21  22
ATOM     22  N   UNL     1       1.500   3.499  18.342  0.00  0.00    +0.000 NA
ATOM     23  C   UNL     1       1.114   2.476  19.318  0.00  0.00    +0.000 C 
ATOM     24  C   UNL     1       1.835   2.508  20.673  0.00  0.00    +0.000 C 
ATOM     25  C   UNL     1       1.905   3.908  21.267  0.00  0.00    +0.000 C 
ATOM     26  C   UNL     1       2.506   4.872  20.254  0.00  0.00    +0.000 C 
ATOM     27  C   UNL     1       1.723   4.822  18.930  0.00  0.00    +0.000 C 
BRANCH  26  28
ATOM     28  O   UNL     1       2.485   6.194  20.793  0.00  0.00    +0.000 OA
ATOM     29  H   UNL     1       1.653   6.619  20.521  0.00  0.00    +0.000 HD
ENDBRANCH  26  28
ENDBRANCH  21  22
ENDBRANCH   4  21
TORSDOF 7
ENDMDL
MODEL 8
REMARK VINA RESULT:      -7.6      7.821      9.664
REMARK  Name = 
REMARK  8 active torsions:
REMARK  status: ('A' for Active; 'I' for Inactive)
REMARK    1  A    between atoms: C_1  and  O_2
REMARK    2  A    between atoms: O_2  and  C_3
REMARK    3  A    between atoms: C_6  and  C_7
REMARK    4  A    between atoms: N_8  and  N_9
REMARK    5  A    between atoms: C_10  and  C_12
REMARK    6  A    between atoms: C_15  and  C_16
REMARK    7  A    between atoms: C_16  and  N_17
REMARK    8  A    between atoms: C_21  and  O_22
REMARK                            x       y       z     vdW  Elec       q    Type
REMARK                         _______ _______ _______ _____ _____    ______ ____
ROOT
ATOM      1  C   UNL     1       1.460   9.033  19.329  0.00  0.00    +0.000 A 
ATOM      2  C   UNL     1       1.652   7.937  20.178  0.00  0.00    +0.000 A 
ATOM      3  C   UNL     1       2.391   6.829  19.741  0.00  0.00    +0.000 A 
ATOM      4  C   UNL     1       2.931   6.782  18.442  0.00  0.00    +0.000 A 
ATOM      5  C   UNL     1       2.676   7.856  17.579  0.00  0.00    +0.000 A 
ATOM      6  C   UNL     1       1.948   8.970  18.017  0.00  0.00    +0.000 A 
ENDROOT
BRANCH   1   8
ATOM      7  N   UNL     1       0.376  10.301  21.110  0.00  0.00    +0.000 N 
ATOM      8  C   UNL     1       0.757  10.276  19.772  0.00  0.00    +0.000 C 
ATOM      9  O   UNL     1       0.602  11.194  18.971  0.00  0.00    +0.000 OA
ATOM     10  H   UNL     1       0.658   9.567  21.746  0.00  0.00    +0.000 HD
BRANCH   7  12
ATOM     11  C   UNL     1      -1.075  11.218  22.589  0.00  0.00    +0.000 C 
ATOM     12  N   UNL     1      -0.249  11.408  21.607  0.00  0.00    +0.000 NA
BRANCH  11  16
ATOM     13  C   UNL     1      -3.215  14.483  24.346  0.00  0.00    +0.000 A 
ATOM     14  C   UNL     1      -1.885  14.646  23.951  0.00  0.00    +0.000 A 
ATOM     15  C   UNL     1      -1.184  13.587  23.371  0.00  0.00    +0.000 A 
ATOM     16  C   UNL     1      -1.805  12.348  23.200  0.00  0.00    +0.000 A 
ATOM     17  C   UNL     1      -3.132  12.171  23.615  0.00  0.00    +0.000 A 
ATOM     18  C   UNL     1      -3.833  13.238  24.189  0.00  0.00    +0.000 A 
BRANCH  13  20
ATOM     19  C   UNL     1      -4.353  16.530  24.012  0.00  0.00    +0.000 C 
ATOM     20  O   UNL     1      -3.791  15.585  24.916  0.00  0.00    +0.000 OA
ENDBRANCH  13  20
ENDBRANCH  11  16
ENDBRANCH   7  12
ENDBRANCH   1   8
BRANCH   4  21
ATOM     21  C   UNL     1       3.859   5.650  18.016  0.00  0.00    +0.000 C 
BRANCH  21  22
ATOM     22  N   UNL     1       4.948   6.084  17.139  0.00  0.00    +0.000 NA
ATOM     23  C   UNL     1       6.211   6.373  17.825  0.00  0.00    +0.000 C 
ATOM     24  C   UNL     1       7.232   5.229  17.903  0.00  0.00    +0.000 C 
ATOM     25  C   UNL     1       7.421   4.519  16.570  0.00  0.00    +0.000 C 
ATOM     26  C   UNL     1       6.072   4.073  16.024  0.00  0.00    +0.000 C 
ATOM     27  C   UNL     1       5.103   5.266  15.935  0.00  0.00    +0.000 C 
BRANCH  26  28
ATOM     28  O   UNL     1       6.257   3.488  14.734  0.00  0.00    +0.000 OA
ATOM     29  H   UNL     1       6.481   2.548  14.857  0.00  0.00    +0.000 HD
ENDBRANCH  26  28
ENDBRANCH  21  22
ENDBRANCH   4  21
TORSDOF 7
ENDMDL
MODEL 9
REMARK VINA RESULT:      -7.5      7.831      9.348
REMARK  Name = 
REMARK  8 active torsions:
REMARK  status: ('A' for Active; 'I' for Inactive)
REMARK    1  A    between atoms: C_1  and  O_2
REMARK    2  A    between atoms: O_2  and  C_3
REMARK    3  A    between atoms: C_6  and  C_7
REMARK    4  A    between atoms: N_8  and  N_9
REMARK    5  A    between atoms: C_10  and  C_12
REMARK    6  A    between atoms: C_15  and  C_16
REMARK    7  A    between atoms: C_16  and  N_17
REMARK    8  A    between atoms: C_21  and  O_22
REMARK                            x       y       z     vdW  Elec       q    Type
REMARK                         _______ _______ _______ _____ _____    ______ ____
ROOT
ATOM      1  C   UNL     1       1.267   9.163  19.591  0.00  0.00    +0.000 A 
ATOM      2  C   UNL     1       1.638   9.084  18.243  0.00  0.00    +0.000 A 
ATOM      3  C   UNL     1       2.299   7.946  17.761  0.00  0.00    +0.000 A 
ATOM      4  C   UNL     1       2.624   6.877  18.616  0.00  0.00    +0.000 A 
ATOM      5  C   UNL     1       2.305   6.995  19.976  0.00  0.00    +0.000 A 
ATOM      6  C   UNL     1       1.635   8.127  20.459  0.00  0.00    +0.000 A 
ENDROOT
BRANCH   1   8
ATOM      7  N   UNL     1       0.766  10.651  21.459  0.00  0.00    +0.000 N 
ATOM      8  C   UNL     1       0.484  10.313  20.139  0.00  0.00    +0.000 C 
ATOM      9  O   UNL     1      -0.303  10.906  19.405  0.00  0.00    +0.000 OA
ATOM     10  H   UNL     1       1.524  10.208  21.960  0.00  0.00    +0.000 HD
BRANCH   7  12
ATOM     11  C   UNL     1      -1.037  11.454  22.573  0.00  0.00    +0.000 C 
ATOM     12  N   UNL     1       0.115  11.706  22.032  0.00  0.00    +0.000 NA
BRANCH  11  16
ATOM     13  C   UNL     1      -3.345  14.542  24.434  0.00  0.00    +0.000 A 
ATOM     14  C   UNL     1      -2.035  14.795  24.021  0.00  0.00    +0.000 A 
ATOM     15  C   UNL     1      -1.279  13.795  23.407  0.00  0.00    +0.000 A 
ATOM     16  C   UNL     1      -1.826  12.523  23.219  0.00  0.00    +0.000 A 
ATOM     17  C   UNL     1      -3.131  12.255  23.652  0.00  0.00    +0.000 A 
ATOM     18  C   UNL     1      -3.888  13.264  24.260  0.00  0.00    +0.000 A 
BRANCH  13  20
ATOM     19  C   UNL     1      -4.785  16.402  24.188  0.00  0.00    +0.000 C 
ATOM     20  O   UNL     1      -3.979  15.594  25.036  0.00  0.00    +0.000 OA
ENDBRANCH  13  20
ENDBRANCH  11  16
ENDBRANCH   7  12
ENDBRANCH   1   8
BRANCH   4  21
ATOM     21  C   UNL     1       3.204   5.578  18.068  0.00  0.00    +0.000 C 
BRANCH  21  22
ATOM     22  N   UNL     1       2.197   4.542  17.828  0.00  0.00    +0.000 NA
ATOM     23  C   UNL     1       2.706   3.329  17.180  0.00  0.00    +0.000 C 
ATOM     24  C   UNL     1       3.128   2.178  18.105  0.00  0.00    +0.000 C 
ATOM     25  C   UNL     1       2.101   1.893  19.193  0.00  0.00    +0.000 C 
ATOM     26  C   UNL     1       1.779   3.173  19.950  0.00  0.00    +0.000 C 
ATOM     27  C   UNL     1       1.330   4.279  18.978  0.00  0.00    +0.000 C 
BRANCH  26  28
ATOM     28  O   UNL     1       0.753   2.908  20.907  0.00  0.00    +0.000 OA
ATOM     29  H   UNL     1       1.139   2.377  21.626  0.00  0.00    +0.000 HD
ENDBRANCH  26  28
ENDBRANCH  21  22
ENDBRANCH   4  21
TORSDOF 7
ENDMDL
