MODEL 1
REMARK VINA RESULT:      -8.7      0.000      0.000
REMARK  Name = 
REMARK  7 active torsions:
REMARK  status: ('A' for Active; 'I' for Inactive)
REMARK    1  A    between atoms: C_2  and  C_3
REMARK    2  A    between atoms: C_3  and  S_20
REMARK    3  A    between atoms: N_4  and  N_5
REMARK    4  A    between atoms: N_5  and  C_6
REMARK    5  A    between atoms: C_8  and  C_9
REMARK    6  A    between atoms: C_14  and  C_15
REMARK    7  A    between atoms: S_20  and  C_23
REMARK                            x       y       z     vdW  Elec       q    Type
REMARK                         _______ _______ _______ _____ _____    ______ ____
ROOT
ATOM      1  N   UNL     1       1.523   7.526  21.070  0.00  0.00    +0.000 N 
ATOM      2  H   UNL     1       1.562   7.410  22.085  0.00  0.00    +0.000 HD
ENDROOT
BRANCH   1   3
ATOM      3  C   UNL     1       2.015   6.442  20.314  0.00  0.00    +0.000 A 
ATOM      4  C   UNL     1       2.962   6.630  19.297  0.00  0.00    +0.000 A 
ATOM      5  C   UNL     1       3.399   5.574  18.487  0.00  0.00    +0.000 A 
ATOM      6  C   UNL     1       2.865   4.295  18.699  0.00  0.00    +0.000 A 
ATOM      7  C   UNL     1       1.893   4.078  19.688  0.00  0.00    +0.000 A 
ATOM      8  C   UNL     1       1.475   5.160  20.487  0.00  0.00    +0.000 A 
BRANCH   5   9
ATOM      9  C   UNL     1       4.410   5.813  17.392  0.00  0.00    +0.000 C 
ATOM     10  F   UNL     1       4.225   6.987  16.727  0.00  0.00    +0.000 F 
ATOM     11  F   UNL     1       5.686   5.846  17.864  0.00  0.00    +0.000 F 
ATOM     12  F   UNL     1       4.383   4.837  16.445  0.00  0.00    +0.000 F 
ENDBRANCH   5   9
BRANCH   7  13
ATOM     13  C   UNL     1       1.276   2.711  19.880  0.00  0.00    +0.000 C 
ATOM     14  F   UNL     1       0.140   2.523  19.155  0.00  0.00    +0.000 F 
ATOM     15  F   UNL     1       2.120   1.704  19.523  0.00  0.00    +0.000 F 
ATOM     16  F   UNL     1       0.935   2.475  21.176  0.00  0.00    +0.000 F 
ENDBRANCH   7  13
ENDBRANCH   1   3
BRANCH   1  18
ATOM     17  C   UNL     1       0.890   9.763  21.059  0.00  0.00    +0.000 C 
ATOM     18  N   UNL     1       1.382   8.727  20.443  0.00  0.00    +0.000 NA
BRANCH  17  19
ATOM     19  S   UNL     1       0.667  11.295  20.255  0.00  0.00    +0.000 S 
ATOM     20  O   UNL     1       0.580  12.303  21.296  0.00  0.00    +0.000 OA
ATOM     21  O   UNL     1       1.680  11.370  19.217  0.00  0.00    +0.000 OA
BRANCH  19  22
ATOM     22  C   UNL     1      -0.923  11.216  19.456  0.00  0.00    +0.000 A 
ATOM     23  C   UNL     1      -1.944  12.084  19.862  0.00  0.00    +0.000 A 
ATOM     24  C   UNL     1      -3.176  12.053  19.204  0.00  0.00    +0.000 A 
ATOM     25  C   UNL     1      -3.377  11.170  18.142  0.00  0.00    +0.000 A 
ATOM     26 CL   UNL     1      -4.893  11.143  17.330  0.00  0.00    +0.000 Cl
ATOM     27  C   UNL     1      -2.353  10.318  17.727  0.00  0.00    +0.000 A 
ATOM     28  C   UNL     1      -1.117  10.342  18.379  0.00  0.00    +0.000 A 
ENDBRANCH  19  22
ENDBRANCH  17  19
BRANCH  17  30
ATOM     29  N   UNL     1       0.274   9.594  23.573  0.00  0.00    +0.000 NA
ATOM     30  C   UNL     1       0.511   9.677  22.439  0.00  0.00    +0.000 C 
ENDBRANCH  17  30
ENDBRANCH   1  18
TORSDOF 7
ENDMDL
MODEL 2
REMARK VINA RESULT:      -8.7      0.161      3.270
REMARK  Name = 
REMARK  7 active torsions:
REMARK  status: ('A' for Active; 'I' for Inactive)
REMARK    1  A    between atoms: C_2  and  C_3
REMARK    2  A    between atoms: C_3  and  S_20
REMARK    3  A    between atoms: N_4  and  N_5
REMARK    4  A    between atoms: N_5  and  C_6
REMARK    5  A    between atoms: C_8  and  C_9
REMARK    6  A    between atoms: C_14  and  C_15
REMARK    7  A    between atoms: S_20  and  C_23
REMARK                            x       y       z     vdW  Elec       q    Type
REMARK                         _______ _______ _______ _____ _____    ______ ____
ROOT
ATOM      1  N   UNL     1       1.482   7.623  21.107  0.00  0.00    +0.000 N 
ATOM      2  H   UNL     1       1.622   7.478  22.110  0.00  0.00    +0.000 HD
ENDROOT
BRANCH   1   3
ATOM      3  C   UNL     1       1.856   6.544  20.278  0.00  0.00    +0.000 A 
ATOM      4  C   UNL     1       1.372   5.248  20.502  0.00  0.00    +0.000 A 
ATOM      5  C   UNL     1       1.796   4.156  19.734  0.00  0.00    +0.000 A 
ATOM      6  C   UNL     1       2.738   4.370  18.719  0.00  0.00    +0.000 A 
ATOM      7  C   UNL     1       3.266   5.650  18.487  0.00  0.00    +0.000 A 
ATOM      8  C   UNL     1       2.818   6.728  19.275  0.00  0.00    +0.000 A 
BRANCH   5   9
ATOM      9  C   UNL     1       1.265   2.770  20.011  0.00  0.00    +0.000 C 
ATOM     10  F   UNL     1       0.955   2.556  21.319  0.00  0.00    +0.000 F 
ATOM     11  F   UNL     1       0.132   2.500  19.308  0.00  0.00    +0.000 F 
ATOM     12  F   UNL     1       2.158   1.800  19.674  0.00  0.00    +0.000 F 
ENDBRANCH   5   9
BRANCH   7  13
ATOM     13  C   UNL     1       4.323   5.871  17.430  0.00  0.00    +0.000 C 
ATOM     14  F   UNL     1       4.370   4.884  16.494  0.00  0.00    +0.000 F 
ATOM     15  F   UNL     1       4.137   7.031  16.743  0.00  0.00    +0.000 F 
ATOM     16  F   UNL     1       5.576   5.944  17.958  0.00  0.00    +0.000 F 
ENDBRANCH   7  13
ENDBRANCH   1   3
BRANCH   1  18
ATOM     17  C   UNL     1       0.820   9.849  21.185  0.00  0.00    +0.000 C 
ATOM     18  N   UNL     1       1.321   8.844  20.527  0.00  0.00    +0.000 NA
BRANCH  17  19
ATOM     19  S   UNL     1       0.569  11.407  20.441  0.00  0.00    +0.000 S 
ATOM     20  O   UNL     1       0.388  12.360  21.521  0.00  0.00    +0.000 OA
ATOM     21  O   UNL     1       1.626  11.573  19.460  0.00  0.00    +0.000 OA
BRANCH  19  22
ATOM     22  C   UNL     1      -0.975  11.301  19.561  0.00  0.00    +0.000 A 
ATOM     23  C   UNL     1      -2.038  12.138  19.925  0.00  0.00    +0.000 A 
ATOM     24  C   UNL     1      -3.234  12.086  19.204  0.00  0.00    +0.000 A 
ATOM     25  C   UNL     1      -3.357  11.214  18.122  0.00  0.00    +0.000 A 
ATOM     26 CL   UNL     1      -4.829  11.161  17.233  0.00  0.00    +0.000 Cl
ATOM     27  C   UNL     1      -2.292  10.393  17.749  0.00  0.00    +0.000 A 
ATOM     28  C   UNL     1      -1.093  10.438  18.464  0.00  0.00    +0.000 A 
ENDBRANCH  19  22
ENDBRANCH  17  19
BRANCH  17  30
ATOM     29  N   UNL     1       0.225   9.569  23.695  0.00  0.00    +0.000 NA
ATOM     30  C   UNL     1       0.452   9.706  22.564  0.00  0.00    +0.000 C 
ENDBRANCH  17  30
ENDBRANCH   1  18
TORSDOF 7
ENDMDL
MODEL 3
REMARK VINA RESULT:      -8.7      0.142      1.009
REMARK  Name = 
REMARK  7 active torsions:
REMARK  status: ('A' for Active; 'I' for Inactive)
REMARK    1  A    between atoms: C_2  and  C_3
REMARK    2  A    between atoms: C_3  and  S_20
REMARK    3  A    between atoms: N_4  and  N_5
REMARK    4  A    between atoms: N_5  and  C_6
REMARK    5  A    between atoms: C_8  and  C_9
REMARK    6  A    between atoms: C_14  and  C_15
REMARK    7  A    between atoms: S_20  and  C_23
REMARK                            x       y       z     vdW  Elec       q    Type
REMARK                         _______ _______ _______ _____ _____    ______ ____
ROOT
ATOM      1  N   UNL     1       1.512   7.566  20.970  0.00  0.00    +0.000 N 
ATOM      2  H   UNL     1       1.556   7.484  21.989  0.00  0.00    +0.000 HD
ENDROOT
BRANCH   1   3
ATOM      3  C   UNL     1       2.012   6.461  20.249  0.00  0.00    +0.000 A 
ATOM      4  C   UNL     1       2.955   6.623  19.225  0.00  0.00    +0.000 A 
ATOM      5  C   UNL     1       3.400   5.544  18.450  0.00  0.00    +0.000 A 
ATOM      6  C   UNL     1       2.878   4.269  18.706  0.00  0.00    +0.000 A 
ATOM      7  C   UNL     1       1.909   4.076  19.704  0.00  0.00    +0.000 A 
ATOM      8  C   UNL     1       1.484   5.181  20.467  0.00  0.00    +0.000 A 
BRANCH   5   9
ATOM      9  C   UNL     1       4.406   5.755  17.345  0.00  0.00    +0.000 C 
ATOM     10  F   UNL     1       4.388   4.779  16.396  0.00  0.00    +0.000 F 
ATOM     11  F   UNL     1       4.208   6.927  16.681  0.00  0.00    +0.000 F 
ATOM     12  F   UNL     1       5.683   5.799  17.813  0.00  0.00    +0.000 F 
ENDBRANCH   5   9
BRANCH   7  13
ATOM     13  C   UNL     1       1.305   2.711  19.942  0.00  0.00    +0.000 C 
ATOM     14  F   UNL     1       1.046   2.454  21.253  0.00  0.00    +0.000 F 
ATOM     15  F   UNL     1       0.124   2.544  19.286  0.00  0.00    +0.000 F 
ATOM     16  F   UNL     1       2.117   1.705  19.517  0.00  0.00    +0.000 F 
ENDBRANCH   7  13
ENDBRANCH   1   3
BRANCH   1  18
ATOM     17  C   UNL     1       0.890   9.804  20.895  0.00  0.00    +0.000 C 
ATOM     18  N   UNL     1       1.358   8.743  20.303  0.00  0.00    +0.000 NA
BRANCH  17  19
ATOM     19  S   UNL     1       0.650  11.306  20.041  0.00  0.00    +0.000 S 
ATOM     20  O   UNL     1       0.576  12.350  21.047  0.00  0.00    +0.000 OA
ATOM     21  O   UNL     1       1.645  11.348  18.986  0.00  0.00    +0.000 OA
BRANCH  19  22
ATOM     22  C   UNL     1      -0.952  11.195  19.271  0.00  0.00    +0.000 A 
ATOM     23  C   UNL     1      -1.989  12.029  19.707  0.00  0.00    +0.000 A 
ATOM     24  C   UNL     1      -3.232  11.974  19.072  0.00  0.00    +0.000 A 
ATOM     25  C   UNL     1      -3.429  11.101  18.002  0.00  0.00    +0.000 A 
ATOM     26 CL   UNL     1      -4.959  11.044  17.217  0.00  0.00    +0.000 Cl
ATOM     27  C   UNL     1      -2.390  10.282  17.555  0.00  0.00    +0.000 A 
ATOM     28  C   UNL     1      -1.144  10.331  18.185  0.00  0.00    +0.000 A 
ENDBRANCH  19  22
ENDBRANCH  17  19
BRANCH  17  30
ATOM     29  N   UNL     1       0.285   9.671  23.414  0.00  0.00    +0.000 NA
ATOM     30  C   UNL     1       0.553   9.771  22.288  0.00  0.00    +0.000 C 
ENDBRANCH  17  30
ENDBRANCH   1  18
TORSDOF 7
ENDMDL
MODEL 4
REMARK VINA RESULT:      -8.6      0.114      1.140
REMARK  Name = 
REMARK  7 active torsions:
REMARK  status: ('A' for Active; 'I' for Inactive)
REMARK    1  A    between atoms: C_2  and  C_3
REMARK    2  A    between atoms: C_3  and  S_20
REMARK    3  A    between atoms: N_4  and  N_5
REMARK    4  A    between atoms: N_5  and  C_6
REMARK    5  A    between atoms: C_8  and  C_9
REMARK    6  A    between atoms: C_14  and  C_15
REMARK    7  A    between atoms: S_20  and  C_23
REMARK                            x       y       z     vdW  Elec       q    Type
REMARK                         _______ _______ _______ _____ _____    ______ ____
ROOT
ATOM      1  N   UNL     1       1.459   7.570  21.087  0.00  0.00    +0.000 N 
ATOM      2  H   UNL     1       1.465   7.429  22.100  0.00  0.00    +0.000 HD
ENDROOT
BRANCH   1   3
ATOM      3  C   UNL     1       1.970   6.503  20.321  0.00  0.00    +0.000 A 
ATOM      4  C   UNL     1       2.902   6.720  19.296  0.00  0.00    +0.000 A 
ATOM      5  C   UNL     1       3.357   5.679  18.476  0.00  0.00    +0.000 A 
ATOM      6  C   UNL     1       2.859   4.386  18.687  0.00  0.00    +0.000 A 
ATOM      7  C   UNL     1       1.902   4.139  19.685  0.00  0.00    +0.000 A 
ATOM      8  C   UNL     1       1.465   5.206  20.493  0.00  0.00    +0.000 A 
BRANCH   5   9
ATOM      9  C   UNL     1       4.350   5.949  17.372  0.00  0.00    +0.000 C 
ATOM     10  F   UNL     1       4.108   7.103  16.691  0.00  0.00    +0.000 F 
ATOM     11  F   UNL     1       5.626   6.047  17.836  0.00  0.00    +0.000 F 
ATOM     12  F   UNL     1       4.364   4.959  16.438  0.00  0.00    +0.000 F 
ENDBRANCH   5   9
BRANCH   7  13
ATOM     13  C   UNL     1       1.322   2.756  19.876  0.00  0.00    +0.000 C 
ATOM     14  F   UNL     1       0.921   2.508  21.152  0.00  0.00    +0.000 F 
ATOM     15  F   UNL     1       0.233   2.536  19.090  0.00  0.00    +0.000 F 
ATOM     16  F   UNL     1       2.213   1.774  19.566  0.00  0.00    +0.000 F 
ENDBRANCH   7  13
ENDBRANCH   1   3
BRANCH   1  18
ATOM     17  C   UNL     1       0.873   9.819  21.123  0.00  0.00    +0.000 C 
ATOM     18  N   UNL     1       1.343   8.787  20.486  0.00  0.00    +0.000 NA
BRANCH  17  19
ATOM     19  S   UNL     1       0.682  11.372  20.352  0.00  0.00    +0.000 S 
ATOM     20  O   UNL     1       0.553  12.352  21.415  0.00  0.00    +0.000 OA
ATOM     21  O   UNL     1       1.735  11.474  19.358  0.00  0.00    +0.000 OA
BRANCH  19  22
ATOM     22  C   UNL     1      -0.875  11.316  19.489  0.00  0.00    +0.000 A 
ATOM     23  C   UNL     1      -1.063  10.384  18.461  0.00  0.00    +0.000 A 
ATOM     24  C   UNL     1      -2.300  10.309  17.816  0.00  0.00    +0.000 A 
ATOM     25  C   UNL     1      -3.340  11.154  18.206  0.00  0.00    +0.000 A 
ATOM     26 CL   UNL     1      -4.864  11.052  17.414  0.00  0.00    +0.000 Cl
ATOM     27  C   UNL     1      -3.158  12.071  19.242  0.00  0.00    +0.000 A 
ATOM     28  C   UNL     1      -1.924  12.152  19.893  0.00  0.00    +0.000 A 
ENDBRANCH  19  22
ENDBRANCH  17  19
BRANCH  17  30
ATOM     29  N   UNL     1       0.138   9.685  23.608  0.00  0.00    +0.000 NA
ATOM     30  C   UNL     1       0.491   9.712  22.502  0.00  0.00    +0.000 C 
ENDBRANCH  17  30
ENDBRANCH   1  18
TORSDOF 7
ENDMDL
MODEL 5
REMARK VINA RESULT:      -8.6      0.174      3.374
REMARK  Name = 
REMARK  7 active torsions:
REMARK  status: ('A' for Active; 'I' for Inactive)
REMARK    1  A    between atoms: C_2  and  C_3
REMARK    2  A    between atoms: C_3  and  S_20
REMARK    3  A    between atoms: N_4  and  N_5
REMARK    4  A    between atoms: N_5  and  C_6
REMARK    5  A    between atoms: C_8  and  C_9
REMARK    6  A    between atoms: C_14  and  C_15
REMARK    7  A    between atoms: S_20  and  C_23
REMARK                            x       y       z     vdW  Elec       q    Type
REMARK                         _______ _______ _______ _____ _____    ______ ____
ROOT
ATOM      1  N   UNL     1       1.531   7.661  21.074  0.00  0.00    +0.000 N 
ATOM      2  H   UNL     1       1.665   7.504  22.076  0.00  0.00    +0.000 HD
ENDROOT
BRANCH   1   3
ATOM      3  C   UNL     1       1.895   6.587  20.236  0.00  0.00    +0.000 A 
ATOM      4  C   UNL     1       1.405   5.292  20.452  0.00  0.00    +0.000 A 
ATOM      5  C   UNL     1       1.821   4.203  19.675  0.00  0.00    +0.000 A 
ATOM      6  C   UNL     1       2.760   4.420  18.657  0.00  0.00    +0.000 A 
ATOM      7  C   UNL     1       3.294   5.698  18.433  0.00  0.00    +0.000 A 
ATOM      8  C   UNL     1       2.855   6.773  19.230  0.00  0.00    +0.000 A 
BRANCH   5   9
ATOM      9  C   UNL     1       1.284   2.818  19.943  0.00  0.00    +0.000 C 
ATOM     10  F   UNL     1       0.215   2.488  19.167  0.00  0.00    +0.000 F 
ATOM     11  F   UNL     1       2.217   1.850  19.728  0.00  0.00    +0.000 F 
ATOM     12  F   UNL     1       0.873   2.666  21.231  0.00  0.00    +0.000 F 
ENDBRANCH   5   9
BRANCH   7  13
ATOM     13  C   UNL     1       4.349   5.922  17.373  0.00  0.00    +0.000 C 
ATOM     14  F   UNL     1       4.400   4.932  16.441  0.00  0.00    +0.000 F 
ATOM     15  F   UNL     1       4.156   7.079  16.683  0.00  0.00    +0.000 F 
ATOM     16  F   UNL     1       5.602   6.004  17.900  0.00  0.00    +0.000 F 
ENDBRANCH   7  13
ENDBRANCH   1   3
BRANCH   1  18
ATOM     17  C   UNL     1       0.860   9.885  21.161  0.00  0.00    +0.000 C 
ATOM     18  N   UNL     1       1.385   8.890  20.506  0.00  0.00    +0.000 NA
BRANCH  17  19
ATOM     19  S   UNL     1       0.629  11.452  20.430  0.00  0.00    +0.000 S 
ATOM     20  O   UNL     1       0.456  12.397  21.518  0.00  0.00    +0.000 OA
ATOM     21  O   UNL     1       1.691  11.615  19.454  0.00  0.00    +0.000 OA
BRANCH  19  22
ATOM     22  C   UNL     1      -0.913  11.371  19.544  0.00  0.00    +0.000 A 
ATOM     23  C   UNL     1      -1.075  10.430  18.520  0.00  0.00    +0.000 A 
ATOM     24  C   UNL     1      -2.300  10.336  17.857  0.00  0.00    +0.000 A 
ATOM     25  C   UNL     1      -3.357  11.170  18.226  0.00  0.00    +0.000 A 
ATOM     26 CL   UNL     1      -4.867  11.044  17.411  0.00  0.00    +0.000 Cl
ATOM     27  C   UNL     1      -3.202  12.096  19.258  0.00  0.00    +0.000 A 
ATOM     28  C   UNL     1      -1.979  12.196  19.927  0.00  0.00    +0.000 A 
ENDBRANCH  19  22
ENDBRANCH  17  19
BRANCH  17  30
ATOM     29  N   UNL     1       0.157   9.649  23.647  0.00  0.00    +0.000 NA
ATOM     30  C   UNL     1       0.449   9.722  22.525  0.00  0.00    +0.000 C 
ENDBRANCH  17  30
ENDBRANCH   1  18
TORSDOF 7
ENDMDL
MODEL 6
REMARK VINA RESULT:      -8.6      1.082      1.596
REMARK  Name = 
REMARK  7 active torsions:
REMARK  status: ('A' for Active; 'I' for Inactive)
REMARK    1  A    between atoms: C_2  and  C_3
REMARK    2  A    between atoms: C_3  and  S_20
REMARK    3  A    between atoms: N_4  and  N_5
REMARK    4  A    between atoms: N_5  and  C_6
REMARK    5  A    between atoms: C_8  and  C_9
REMARK    6  A    between atoms: C_14  and  C_15
REMARK    7  A    between atoms: S_20  and  C_23
REMARK                            x       y       z     vdW  Elec       q    Type
REMARK                         _______ _______ _______ _____ _____    ______ ____
ROOT
ATOM      1  N   UNL     1       2.033   7.091  20.167  0.00  0.00    +0.000 N 
ATOM      2  H   UNL     1       2.056   6.853  21.161  0.00  0.00    +0.000 HD
ENDROOT
BRANCH   1   3
ATOM      3  C   UNL     1       2.546   6.109  19.294  0.00  0.00    +0.000 A 
ATOM      4  C   UNL     1       3.506   6.425  18.322  0.00  0.00    +0.000 A 
ATOM      5  C   UNL     1       3.964   5.476  17.398  0.00  0.00    +0.000 A 
ATOM      6  C   UNL     1       3.438   4.178  17.447  0.00  0.00    +0.000 A 
ATOM      7  C   UNL     1       2.453   3.837  18.387  0.00  0.00    +0.000 A 
ATOM      8  C   UNL     1       2.015   4.812  19.303  0.00  0.00    +0.000 A 
BRANCH   5   9
ATOM      9  C   UNL     1       4.988   5.852  16.356  0.00  0.00    +0.000 C 
ATOM     10  F   UNL     1       6.241   6.027  16.860  0.00  0.00    +0.000 F 
ATOM     11  F   UNL     1       5.105   4.910  15.380  0.00  0.00    +0.000 F 
ATOM     12  F   UNL     1       4.675   7.015  15.722  0.00  0.00    +0.000 F 
ENDBRANCH   5   9
BRANCH   7  13
ATOM     13  C   UNL     1       1.845   2.453  18.403  0.00  0.00    +0.000 C 
ATOM     14  F   UNL     1       2.128   1.749  19.533  0.00  0.00    +0.000 F 
ATOM     15  F   UNL     1       0.487   2.480  18.307  0.00  0.00    +0.000 F 
ATOM     16  F   UNL     1       2.279   1.685  17.366  0.00  0.00    +0.000 F 
ENDBRANCH   7  13
ENDBRANCH   1   3
BRANCH   1  18
ATOM     17  C   UNL     1       0.967   9.156  20.130  0.00  0.00    +0.000 C 
ATOM     18  N   UNL     1       1.896   8.359  19.688  0.00  0.00    +0.000 NA
BRANCH  17  19
ATOM     19  S   UNL     1       0.755  10.767  19.495  0.00  0.00    +0.000 S 
ATOM     20  O   UNL     1       0.833  11.674  20.626  0.00  0.00    +0.000 OA
ATOM     21  O   UNL     1       1.660  10.891  18.367  0.00  0.00    +0.000 OA
BRANCH  19  22
ATOM     22  C   UNL     1      -0.909  10.844  18.866  0.00  0.00    +0.000 A 
ATOM     23  C   UNL     1      -1.806  11.781  19.395  0.00  0.00    +0.000 A 
ATOM     24  C   UNL     1      -3.097  11.872  18.869  0.00  0.00    +0.000 A 
ATOM     25  C   UNL     1      -3.480  11.040  17.816  0.00  0.00    +0.000 A 
ATOM     26 CL   UNL     1      -5.069  11.163  17.166  0.00  0.00    +0.000 Cl
ATOM     27  C   UNL     1      -2.581  10.119  17.277  0.00  0.00    +0.000 A 
ATOM     28  C   UNL     1      -1.287  10.022  17.797  0.00  0.00    +0.000 A 
ENDBRANCH  19  22
ENDBRANCH  17  19
BRANCH  17  30
ATOM     29  N   UNL     1      -0.624   8.315  21.998  0.00  0.00    +0.000 NA
ATOM     30  C   UNL     1       0.075   8.730  21.169  0.00  0.00    +0.000 C 
ENDBRANCH  17  30
ENDBRANCH   1  18
TORSDOF 7
ENDMDL
MODEL 7
REMARK VINA RESULT:      -8.6      0.785      1.192
REMARK  Name = 
REMARK  7 active torsions:
REMARK  status: ('A' for Active; 'I' for Inactive)
REMARK    1  A    between atoms: C_2  and  C_3
REMARK    2  A    between atoms: C_3  and  S_20
REMARK    3  A    between atoms: N_4  and  N_5
REMARK    4  A    between atoms: N_5  and  C_6
REMARK    5  A    between atoms: C_8  and  C_9
REMARK    6  A    between atoms: C_14  and  C_15
REMARK    7  A    between atoms: S_20  and  C_23
REMARK                            x       y       z     vdW  Elec       q    Type
REMARK                         _______ _______ _______ _____ _____    ______ ____
ROOT
ATOM      1  N   UNL     1       1.894   7.230  20.506  0.00  0.00    +0.000 N 
ATOM      2  H   UNL     1       1.912   7.114  21.522  0.00  0.00    +0.000 HD
ENDROOT
BRANCH   1   3
ATOM      3  C   UNL     1       2.350   6.124  19.759  0.00  0.00    +0.000 A 
ATOM      4  C   UNL     1       3.297   6.272  18.736  0.00  0.00    +0.000 A 
ATOM      5  C   UNL     1       3.699   5.195  17.936  0.00  0.00    +0.000 A 
ATOM      6  C   UNL     1       3.128   3.935  18.164  0.00  0.00    +0.000 A 
ATOM      7  C   UNL     1       2.154   3.757  19.160  0.00  0.00    +0.000 A 
ATOM      8  C   UNL     1       1.773   4.860  19.949  0.00  0.00    +0.000 A 
BRANCH   5   9
ATOM      9  C   UNL     1       4.711   5.392  16.834  0.00  0.00    +0.000 C 
ATOM     10  F   UNL     1       4.573   6.574  16.172  0.00  0.00    +0.000 F 
ATOM     11  F   UNL     1       5.991   5.367  17.296  0.00  0.00    +0.000 F 
ATOM     12  F   UNL     1       4.634   4.420  15.885  0.00  0.00    +0.000 F 
ENDBRANCH   5   9
BRANCH   7  13
ATOM     13  C   UNL     1       1.497   2.412  19.368  0.00  0.00    +0.000 C 
ATOM     14  F   UNL     1       0.336   2.262  18.674  0.00  0.00    +0.000 F 
ATOM     15  F   UNL     1       2.297   1.378  18.991  0.00  0.00    +0.000 F 
ATOM     16  F   UNL     1       1.183   2.187  20.674  0.00  0.00    +0.000 F 
ENDBRANCH   7  13
ENDBRANCH   1   3
BRANCH   1  18
ATOM     17  C   UNL     1       0.980   9.353  20.261  0.00  0.00    +0.000 C 
ATOM     18  N   UNL     1       1.818   8.435  19.875  0.00  0.00    +0.000 NA
BRANCH  17  19
ATOM     19  S   UNL     1       0.844  10.884  19.436  0.00  0.00    +0.000 S 
ATOM     20  O   UNL     1       0.996  11.916  20.446  0.00  0.00    +0.000 OA
ATOM     21  O   UNL     1       1.729  10.817  18.288  0.00  0.00    +0.000 OA
BRANCH  19  22
ATOM     22  C   UNL     1      -0.827  10.979  18.827  0.00  0.00    +0.000 A 
ATOM     23  C   UNL     1      -1.246  10.102  17.818  0.00  0.00    +0.000 A 
ATOM     24  C   UNL     1      -2.570  10.146  17.372  0.00  0.00    +0.000 A 
ATOM     25  C   UNL     1      -3.466  11.051  17.942  0.00  0.00    +0.000 A 
ATOM     26 CL   UNL     1      -5.097  11.095  17.397  0.00  0.00    +0.000 Cl
ATOM     27  C   UNL     1      -3.053  11.912  18.960  0.00  0.00    +0.000 A 
ATOM     28  C   UNL     1      -1.731  11.875  19.411  0.00  0.00    +0.000 A 
ENDBRANCH  19  22
ENDBRANCH  17  19
BRANCH  17  30
ATOM     29  N   UNL     1      -0.548   8.881  22.304  0.00  0.00    +0.000 NA
ATOM     30  C   UNL     1       0.130   9.132  21.395  0.00  0.00    +0.000 C 
ENDBRANCH  17  30
ENDBRANCH   1  18
TORSDOF 7
ENDMDL
MODEL 8
REMARK VINA RESULT:      -8.6      0.864      3.360
REMARK  Name = 
REMARK  7 active torsions:
REMARK  status: ('A' for Active; 'I' for Inactive)
REMARK    1  A    between atoms: C_2  and  C_3
REMARK    2  A    between atoms: C_3  and  S_20
REMARK    3  A    between atoms: N_4  and  N_5
REMARK    4  A    between atoms: N_5  and  C_6
REMARK    5  A    between atoms: C_8  and  C_9
REMARK    6  A    between atoms: C_14  and  C_15
REMARK    7  A    between atoms: S_20  and  C_23
REMARK                            x       y       z     vdW  Elec       q    Type
REMARK                         _______ _______ _______ _____ _____    ______ ____
ROOT
ATOM      1  N   UNL     1       1.971   7.123  20.465  0.00  0.00    +0.000 N 
ATOM      2  H   UNL     1       2.087   6.933  21.463  0.00  0.00    +0.000 HD
ENDROOT
BRANCH   1   3
ATOM      3  C   UNL     1       2.324   6.067  19.599  0.00  0.00    +0.000 A 
ATOM      4  C   UNL     1       1.815   4.773  19.779  0.00  0.00    +0.000 A 
ATOM      5  C   UNL     1       2.218   3.700  18.974  0.00  0.00    +0.000 A 
ATOM      6  C   UNL     1       3.165   3.931  17.966  0.00  0.00    +0.000 A 
ATOM      7  C   UNL     1       3.718   5.207  17.779  0.00  0.00    +0.000 A 
ATOM      8  C   UNL     1       3.290   6.266  18.603  0.00  0.00    +0.000 A 
BRANCH   5   9
ATOM      9  C   UNL     1       1.661   2.316  19.203  0.00  0.00    +0.000 C 
ATOM     10  F   UNL     1       0.453   2.110  18.610  0.00  0.00    +0.000 F 
ATOM     11  F   UNL     1       2.483   1.341  18.728  0.00  0.00    +0.000 F 
ATOM     12  F   UNL     1       1.480   2.047  20.524  0.00  0.00    +0.000 F 
ENDBRANCH   5   9
BRANCH   7  13
ATOM     13  C   UNL     1       4.779   5.444  16.729  0.00  0.00    +0.000 C 
ATOM     14  F   UNL     1       4.653   6.639  16.090  0.00  0.00    +0.000 F 
ATOM     15  F   UNL     1       6.038   5.427  17.249  0.00  0.00    +0.000 F 
ATOM     16  F   UNL     1       4.763   4.495  15.753  0.00  0.00    +0.000 F 
ENDBRANCH   7  13
ENDBRANCH   1   3
BRANCH   1  18
ATOM     17  C   UNL     1       0.951   9.208  20.341  0.00  0.00    +0.000 C 
ATOM     18  N   UNL     1       1.861   8.372  19.932  0.00  0.00    +0.000 NA
BRANCH  17  19
ATOM     19  S   UNL     1       0.773  10.794  19.638  0.00  0.00    +0.000 S 
ATOM     20  O   UNL     1       0.833  11.745  20.734  0.00  0.00    +0.000 OA
ATOM     21  O   UNL     1       1.708  10.865  18.529  0.00  0.00    +0.000 OA
BRANCH  19  22
ATOM     22  C   UNL     1      -0.874  10.863  18.963  0.00  0.00    +0.000 A 
ATOM     23  C   UNL     1      -1.801  11.770  19.492  0.00  0.00    +0.000 A 
ATOM     24  C   UNL     1      -3.078  11.856  18.932  0.00  0.00    +0.000 A 
ATOM     25  C   UNL     1      -3.417  11.050  17.845  0.00  0.00    +0.000 A 
ATOM     26 CL   UNL     1      -4.988  11.166  17.154  0.00  0.00    +0.000 Cl
ATOM     27  C   UNL     1      -2.488  10.158  17.307  0.00  0.00    +0.000 A 
ATOM     28  C   UNL     1      -1.208  10.066  17.861  0.00  0.00    +0.000 A 
ENDBRANCH  19  22
ENDBRANCH  17  19
BRANCH  17  30
ATOM     29  N   UNL     1      -0.728   8.542  22.203  0.00  0.00    +0.000 NA
ATOM     30  C   UNL     1       0.052   8.846  21.398  0.00  0.00    +0.000 C 
ENDBRANCH  17  30
ENDBRANCH   1  18
TORSDOF 7
ENDMDL
MODEL 9
REMARK VINA RESULT:      -8.6      0.207      1.346
REMARK  Name = 
REMARK  7 active torsions:
REMARK  status: ('A' for Active; 'I' for Inactive)
REMARK    1  A    between atoms: C_2  and  C_3
REMARK    2  A    between atoms: C_3  and  S_20
REMARK    3  A    between atoms: N_4  and  N_5
REMARK    4  A    between atoms: N_5  and  C_6
REMARK    5  A    between atoms: C_8  and  C_9
REMARK    6  A    between atoms: C_14  and  C_15
REMARK    7  A    between atoms: S_20  and  C_23
REMARK                            x       y       z     vdW  Elec       q    Type
REMARK                         _______ _______ _______ _____ _____    ______ ____
ROOT
ATOM      1  N   UNL     1       1.493   7.669  20.950  0.00  0.00    +0.000 N 
ATOM      2  H   UNL     1       1.512   7.599  21.970  0.00  0.00    +0.000 HD
ENDROOT
BRANCH   1   3
ATOM      3  C   UNL     1       1.994   6.549  20.254  0.00  0.00    +0.000 A 
ATOM      4  C   UNL     1       2.937   6.689  19.226  0.00  0.00    +0.000 A 
ATOM      5  C   UNL     1       3.383   5.594  18.475  0.00  0.00    +0.000 A 
ATOM      6  C   UNL     1       2.862   4.324  18.759  0.00  0.00    +0.000 A 
ATOM      7  C   UNL     1       1.894   4.152  19.761  0.00  0.00    +0.000 A 
ATOM      8  C   UNL     1       1.467   5.273  20.499  0.00  0.00    +0.000 A 
BRANCH   5   9
ATOM      9  C   UNL     1       4.389   5.782  17.366  0.00  0.00    +0.000 C 
ATOM     10  F   UNL     1       5.680   5.807  17.799  0.00  0.00    +0.000 F 
ATOM     11  F   UNL     1       4.325   4.791  16.435  0.00  0.00    +0.000 F 
ATOM     12  F   UNL     1       4.199   6.947  16.690  0.00  0.00    +0.000 F 
ENDBRANCH   5   9
BRANCH   7  13
ATOM     13  C   UNL     1       1.290   2.793  20.029  0.00  0.00    +0.000 C 
ATOM     14  F   UNL     1       2.075   1.760  19.617  0.00  0.00    +0.000 F 
ATOM     15  F   UNL     1       1.053   2.580  21.352  0.00  0.00    +0.000 F 
ATOM     16  F   UNL     1       0.093   2.626  19.402  0.00  0.00    +0.000 F 
ENDBRANCH   7  13
ENDBRANCH   1   3
BRANCH   1  18
ATOM     17  C   UNL     1       0.886   9.909  20.829  0.00  0.00    +0.000 C 
ATOM     18  N   UNL     1       1.371   8.840  20.266  0.00  0.00    +0.000 NA
BRANCH  17  19
ATOM     19  S   UNL     1       0.687  11.404  19.952  0.00  0.00    +0.000 S 
ATOM     20  O   UNL     1       0.659  12.466  20.941  0.00  0.00    +0.000 OA
ATOM     21  O   UNL     1       1.672  11.394  18.886  0.00  0.00    +0.000 OA
BRANCH  19  22
ATOM     22  C   UNL     1      -0.926  11.334  19.200  0.00  0.00    +0.000 A 
ATOM     23  C   UNL     1      -1.155  10.456  18.134  0.00  0.00    +0.000 A 
ATOM     24  C   UNL     1      -2.433  10.368  17.575  0.00  0.00    +0.000 A 
ATOM     25  C   UNL     1      -3.472  11.145  18.089  0.00  0.00    +0.000 A 
ATOM     26 CL   UNL     1      -5.045  11.027  17.402  0.00  0.00    +0.000 Cl
ATOM     27  C   UNL     1      -3.248  12.008  19.163  0.00  0.00    +0.000 A 
ATOM     28  C   UNL     1      -1.973  12.101  19.728  0.00  0.00    +0.000 A 
ENDBRANCH  19  22
ENDBRANCH  17  19
BRANCH  17  30
ATOM     29  N   UNL     1       0.203   9.809  23.329  0.00  0.00    +0.000 NA
ATOM     30  C   UNL     1       0.493   9.892  22.208  0.00  0.00    +0.000 C 
ENDBRANCH  17  30
ENDBRANCH   1  18
TORSDOF 7
ENDMDL
