MODEL 1
REMARK VINA RESULT:      -8.4      0.000      0.000
REMARK  Name = 
REMARK  5 active torsions:
REMARK  status: ('A' for Active; 'I' for Inactive)
REMARK    1  A    between atoms: C_1  and  N_2
REMARK    2  A    between atoms: N_2  and  C_3
REMARK    3  A    between atoms: N_2  and  C_10
REMARK    4  A    between atoms: C_3  and  C_4
REMARK    5  A    between atoms: C_18  and  C_20
REMARK                            x       y       z     vdW  Elec       q    Type
REMARK                         _______ _______ _______ _____ _____    ______ ____
ROOT
ATOM      1  C   UNL     1       2.038   7.582  20.321  0.00  0.00    +0.000 C 
ATOM      2  C   UNL     1       1.397   6.279  20.847  0.00  0.00    +0.000 C 
ATOM      3  C   UNL     1       2.218   5.050  20.499  0.00  0.00    +0.000 C 
ATOM      4  O   UNL     1       2.500   5.003  19.106  0.00  0.00    +0.000 OA
ATOM      5  C   UNL     1       3.245   6.125  18.602  0.00  0.00    +0.000 C 
ATOM      6  C   UNL     1       4.667   6.173  19.215  0.00  0.00    +0.000 C 
ATOM      7  C   UNL     1       5.440   4.897  18.879  0.00  0.00    +0.000 C 
ATOM      8  N   UNL     1       5.503   4.726  17.434  0.00  0.00    +0.000 N 
ATOM      9  C   UNL     1       6.753   4.603  16.821  0.00  0.00    +0.000 C 
ATOM     10  O   UNL     1       7.795   4.515  17.477  0.00  0.00    +0.000 OA
ATOM     11  C   UNL     1       4.191   4.645  16.786  0.00  0.00    +0.000 C 
ATOM     12  C   UNL     1       3.388   5.912  17.078  0.00  0.00    +0.000 C 
ATOM     13  C   UNL     1       2.436   7.413  18.849  0.00  0.00    +0.000 C 
ENDROOT
BRANCH   9  14
ATOM     14  C   UNL     1       6.874   4.554  15.331  0.00  0.00    +0.000 A 
ATOM     15  C   UNL     1       6.098   3.636  14.631  0.00  0.00    +0.000 A 
ATOM     16  C   UNL     1       6.180   3.621  13.242  0.00  0.00    +0.000 A 
ATOM     17  C   UNL     1       7.035   4.512  12.602  0.00  0.00    +0.000 A 
ATOM     18  C   UNL     1       7.799   5.366  13.380  0.00  0.00    +0.000 A 
ATOM     19  N   UNL     1       7.755   5.394  14.727  0.00  0.00    +0.000 NA
ENDBRANCH   9  14
BRANCH   1  21
ATOM     20  C   UNL     1      -0.110   8.460  21.242  0.00  0.00    +0.000 C 
ATOM     21  N   UNL     1       1.173   8.739  20.616  0.00  0.00    +0.000 NA
BRANCH  21  22
ATOM     22  C   UNL     1       1.122   9.796  19.594  0.00  0.00    +0.000 C 
BRANCH  22  23
ATOM     23  C   UNL     1      -0.222  10.219  19.030  0.00  0.00    +0.000 A 
ATOM     24  C   UNL     1      -0.960  11.252  19.629  0.00  0.00    +0.000 A 
ATOM     25  C   UNL     1      -2.150  11.714  19.058  0.00  0.00    +0.000 A 
ATOM     26  C   UNL     1      -2.624  11.147  17.879  0.00  0.00    +0.000 A 
ATOM     27  C   UNL     1      -1.912  10.122  17.272  0.00  0.00    +0.000 A 
ATOM     28  C   UNL     1      -0.714   9.661  17.842  0.00  0.00    +0.000 A 
ENDBRANCH  22  23
ENDBRANCH  21  22
ENDBRANCH   1  21
TORSDOF 4
ENDMDL
MODEL 2
REMARK VINA RESULT:      -8.2      0.835      1.253
REMARK  Name = 
REMARK  5 active torsions:
REMARK  status: ('A' for Active; 'I' for Inactive)
REMARK    1  A    between atoms: C_1  and  N_2
REMARK    2  A    between atoms: N_2  and  C_3
REMARK    3  A    between atoms: N_2  and  C_10
REMARK    4  A    between atoms: C_3  and  C_4
REMARK    5  A    between atoms: C_18  and  C_20
REMARK                            x       y       z     vdW  Elec       q    Type
REMARK                         _______ _______ _______ _____ _____    ______ ____
ROOT
ATOM      1  C   UNL     1       2.269   7.208  20.252  0.00  0.00    +0.000 C 
ATOM      2  C   UNL     1       1.669   5.871  20.741  0.00  0.00    +0.000 C 
ATOM      3  C   UNL     1       2.504   4.674  20.318  0.00  0.00    +0.000 C 
ATOM      4  O   UNL     1       2.745   4.691  18.916  0.00  0.00    +0.000 OA
ATOM      5  C   UNL     1       3.452   5.849  18.439  0.00  0.00    +0.000 C 
ATOM      6  C   UNL     1       4.890   5.901  19.012  0.00  0.00    +0.000 C 
ATOM      7  C   UNL     1       5.678   4.656  18.600  0.00  0.00    +0.000 C 
ATOM      8  N   UNL     1       5.701   4.547  17.148  0.00  0.00    +0.000 N 
ATOM      9  C   UNL     1       6.935   4.475  16.494  0.00  0.00    +0.000 C 
ATOM     10  O   UNL     1       7.998   4.382  17.115  0.00  0.00    +0.000 OA
ATOM     11  C   UNL     1       4.373   4.466  16.535  0.00  0.00    +0.000 C 
ATOM     12  C   UNL     1       3.553   5.702  16.903  0.00  0.00    +0.000 C 
ATOM     13  C   UNL     1       2.626   7.108  18.763  0.00  0.00    +0.000 C 
ENDROOT
BRANCH   9  14
ATOM     14  C   UNL     1       7.012   4.491  15.001  0.00  0.00    +0.000 A 
ATOM     15  C   UNL     1       6.199   3.619  14.284  0.00  0.00    +0.000 A 
ATOM     16  C   UNL     1       6.241   3.665  12.894  0.00  0.00    +0.000 A 
ATOM     17  C   UNL     1       7.094   4.568  12.269  0.00  0.00    +0.000 A 
ATOM     18  C   UNL     1       7.896   5.373  13.060  0.00  0.00    +0.000 A 
ATOM     19  N   UNL     1       7.891   5.342  14.408  0.00  0.00    +0.000 NA
ENDBRANCH   9  14
BRANCH   1  21
ATOM     20  C   UNL     1       0.334   8.057  21.581  0.00  0.00    +0.000 C 
ATOM     21  N   UNL     1       1.390   8.333  20.620  0.00  0.00    +0.000 NA
BRANCH  21  22
ATOM     22  C   UNL     1       0.984   9.232  19.528  0.00  0.00    +0.000 C 
BRANCH  22  23
ATOM     23  C   UNL     1       0.255  10.520  19.860  0.00  0.00    +0.000 A 
ATOM     24  C   UNL     1       0.875  11.521  20.626  0.00  0.00    +0.000 A 
ATOM     25  C   UNL     1       0.247  12.750  20.850  0.00  0.00    +0.000 A 
ATOM     26  C   UNL     1      -1.014  12.998  20.317  0.00  0.00    +0.000 A 
ATOM     27  C   UNL     1      -1.646  12.021  19.560  0.00  0.00    +0.000 A 
ATOM     28  C   UNL     1      -1.015  10.788  19.328  0.00  0.00    +0.000 A 
ENDBRANCH  22  23
ENDBRANCH  21  22
ENDBRANCH   1  21
TORSDOF 4
ENDMDL
MODEL 3
REMARK VINA RESULT:      -7.9      1.444      2.164
REMARK  Name = 
REMARK  5 active torsions:
REMARK  status: ('A' for Active; 'I' for Inactive)
REMARK    1  A    between atoms: C_1  and  N_2
REMARK    2  A    between atoms: N_2  and  C_3
REMARK    3  A    between atoms: N_2  and  C_10
REMARK    4  A    between atoms: C_3  and  C_4
REMARK    5  A    between atoms: C_18  and  C_20
REMARK                            x       y       z     vdW  Elec       q    Type
REMARK                         _______ _______ _______ _____ _____    ______ ____
ROOT
ATOM      1  C   UNL     1       2.062   7.383  20.105  0.00  0.00    +0.000 C 
ATOM      2  C   UNL     1       1.537   6.056  20.696  0.00  0.00    +0.000 C 
ATOM      3  C   UNL     1       2.441   4.881  20.369  0.00  0.00    +0.000 C 
ATOM      4  O   UNL     1       2.690   4.802  18.971  0.00  0.00    +0.000 OA
ATOM      5  C   UNL     1       3.333   5.958  18.405  0.00  0.00    +0.000 C 
ATOM      6  C   UNL     1       4.762   6.137  18.975  0.00  0.00    +0.000 C 
ATOM      7  C   UNL     1       5.623   4.912  18.663  0.00  0.00    +0.000 C 
ATOM      8  N   UNL     1       5.660   4.691  17.224  0.00  0.00    +0.000 N 
ATOM      9  C   UNL     1       6.900   4.640  16.580  0.00  0.00    +0.000 C 
ATOM     10  O   UNL     1       7.963   4.657  17.208  0.00  0.00    +0.000 OA
ATOM     11  C   UNL     1       4.343   4.486  16.617  0.00  0.00    +0.000 C 
ATOM     12  C   UNL     1       3.452   5.698  16.886  0.00  0.00    +0.000 C 
ATOM     13  C   UNL     1       2.434   7.189  18.629  0.00  0.00    +0.000 C 
ENDROOT
BRANCH   9  14
ATOM     14  C   UNL     1       6.986   4.543  15.090  0.00  0.00    +0.000 A 
ATOM     15  C   UNL     1       6.154   3.643  14.433  0.00  0.00    +0.000 A 
ATOM     16  C   UNL     1       6.203   3.586  13.044  0.00  0.00    +0.000 A 
ATOM     17  C   UNL     1       7.084   4.418  12.360  0.00  0.00    +0.000 A 
ATOM     18  C   UNL     1       7.903   5.257  13.096  0.00  0.00    +0.000 A 
ATOM     19  N   UNL     1       7.891   5.325  14.443  0.00  0.00    +0.000 NA
ENDBRANCH   9  14
BRANCH   1  21
ATOM     20  C   UNL     1       0.789   9.363  19.274  0.00  0.00    +0.000 C 
ATOM     21  N   UNL     1       1.118   8.481  20.382  0.00  0.00    +0.000 NA
BRANCH  21  22
ATOM     22  C   UNL     1       1.279   9.174  21.670  0.00  0.00    +0.000 C 
BRANCH  22  23
ATOM     23  C   UNL     1       0.322  10.294  22.035  0.00  0.00    +0.000 A 
ATOM     24  C   UNL     1      -0.728  10.076  22.941  0.00  0.00    +0.000 A 
ATOM     25  C   UNL     1      -1.551  11.126  23.358  0.00  0.00    +0.000 A 
ATOM     26  C   UNL     1      -1.341  12.413  22.872  0.00  0.00    +0.000 A 
ATOM     27  C   UNL     1      -0.310  12.650  21.973  0.00  0.00    +0.000 A 
ATOM     28  C   UNL     1       0.521  11.597  21.558  0.00  0.00    +0.000 A 
ENDBRANCH  22  23
ENDBRANCH  21  22
ENDBRANCH   1  21
TORSDOF 4
ENDMDL
MODEL 4
REMARK VINA RESULT:      -7.8      2.477      4.915
REMARK  Name = 
REMARK  5 active torsions:
REMARK  status: ('A' for Active; 'I' for Inactive)
REMARK    1  A    between atoms: C_1  and  N_2
REMARK    2  A    between atoms: N_2  and  C_3
REMARK    3  A    between atoms: N_2  and  C_10
REMARK    4  A    between atoms: C_3  and  C_4
REMARK    5  A    between atoms: C_18  and  C_20
REMARK                            x       y       z     vdW  Elec       q    Type
REMARK                         _______ _______ _______ _____ _____    ______ ____
ROOT
ATOM      1  C   UNL     1       3.530   6.556  18.622  0.00  0.00    +0.000 C 
ATOM      2  C   UNL     1       4.524   6.022  19.677  0.00  0.00    +0.000 C 
ATOM      3  C   UNL     1       5.816   5.525  19.052  0.00  0.00    +0.000 C 
ATOM      4  O   UNL     1       5.554   4.586  18.017  0.00  0.00    +0.000 OA
ATOM      5  C   UNL     1       4.765   5.094  16.927  0.00  0.00    +0.000 C 
ATOM      6  C   UNL     1       5.519   6.211  16.163  0.00  0.00    +0.000 C 
ATOM      7  C   UNL     1       6.834   5.678  15.593  0.00  0.00    +0.000 C 
ATOM      8  N   UNL     1       6.567   4.542  14.721  0.00  0.00    +0.000 N 
ATOM      9  C   UNL     1       7.022   4.581  13.400  0.00  0.00    +0.000 C 
ATOM     10  O   UNL     1       7.742   5.494  12.984  0.00  0.00    +0.000 OA
ATOM     11  C   UNL     1       5.878   3.432  15.384  0.00  0.00    +0.000 C 
ATOM     12  C   UNL     1       4.544   3.913  15.953  0.00  0.00    +0.000 C 
ATOM     13  C   UNL     1       3.397   5.550  17.470  0.00  0.00    +0.000 C 
ENDROOT
BRANCH   9  14
ATOM     14  C   UNL     1       6.663   3.498  12.434  0.00  0.00    +0.000 A 
ATOM     15  C   UNL     1       7.689   2.790  11.817  0.00  0.00    +0.000 A 
ATOM     16  C   UNL     1       7.354   1.754  10.952  0.00  0.00    +0.000 A 
ATOM     17  C   UNL     1       6.012   1.465  10.725  0.00  0.00    +0.000 A 
ATOM     18  C   UNL     1       5.056   2.245  11.352  0.00  0.00    +0.000 A 
ATOM     19  N   UNL     1       5.347   3.265  12.182  0.00  0.00    +0.000 NA
ENDBRANCH   9  14
BRANCH   1  21
ATOM     20  C   UNL     1       1.921   8.371  19.214  0.00  0.00    +0.000 C 
ATOM     21  N   UNL     1       2.264   6.958  19.262  0.00  0.00    +0.000 NA
BRANCH  21  22
ATOM     22  C   UNL     1       1.942   6.307  20.542  0.00  0.00    +0.000 C 
BRANCH  22  23
ATOM     23  C   UNL     1       1.709   4.808  20.574  0.00  0.00    +0.000 A 
ATOM     24  C   UNL     1       1.007   4.167  19.540  0.00  0.00    +0.000 A 
ATOM     25  C   UNL     1       0.876   2.775  19.512  0.00  0.00    +0.000 A 
ATOM     26  C   UNL     1       1.440   2.001  20.521  0.00  0.00    +0.000 A 
ATOM     27  C   UNL     1       2.135   2.614  21.554  0.00  0.00    +0.000 A 
ATOM     28  C   UNL     1       2.272   4.011  21.580  0.00  0.00    +0.000 A 
ENDBRANCH  22  23
ENDBRANCH  21  22
ENDBRANCH   1  21
TORSDOF 4
ENDMDL
MODEL 5
REMARK VINA RESULT:      -7.6      0.710      1.030
REMARK  Name = 
REMARK  5 active torsions:
REMARK  status: ('A' for Active; 'I' for Inactive)
REMARK    1  A    between atoms: C_1  and  N_2
REMARK    2  A    between atoms: N_2  and  C_3
REMARK    3  A    between atoms: N_2  and  C_10
REMARK    4  A    between atoms: C_3  and  C_4
REMARK    5  A    between atoms: C_18  and  C_20
REMARK                            x       y       z     vdW  Elec       q    Type
REMARK                         _______ _______ _______ _____ _____    ______ ____
ROOT
ATOM      1  C   UNL     1       2.238   7.124  20.305  0.00  0.00    +0.000 C 
ATOM      2  C   UNL     1       1.691   5.784  20.844  0.00  0.00    +0.000 C 
ATOM      3  C   UNL     1       2.546   4.601  20.423  0.00  0.00    +0.000 C 
ATOM      4  O   UNL     1       2.742   4.590  19.014  0.00  0.00    +0.000 OA
ATOM      5  C   UNL     1       3.402   5.755  18.487  0.00  0.00    +0.000 C 
ATOM      6  C   UNL     1       4.855   5.861  19.013  0.00  0.00    +0.000 C 
ATOM      7  C   UNL     1       5.665   4.629  18.606  0.00  0.00    +0.000 C 
ATOM      8  N   UNL     1       5.645   4.485  17.156  0.00  0.00    +0.000 N 
ATOM      9  C   UNL     1       6.859   4.431  16.465  0.00  0.00    +0.000 C 
ATOM     10  O   UNL     1       7.943   4.383  17.054  0.00  0.00    +0.000 OA
ATOM     11  C   UNL     1       4.301   4.352  16.589  0.00  0.00    +0.000 C 
ATOM     12  C   UNL     1       3.459   5.573  16.953  0.00  0.00    +0.000 C 
ATOM     13  C   UNL     1       2.551   6.999  18.808  0.00  0.00    +0.000 C 
ENDROOT
BRANCH   9  14
ATOM     14  C   UNL     1       6.889   4.412  14.970  0.00  0.00    +0.000 A 
ATOM     15  C   UNL     1       7.705   5.325  14.310  0.00  0.00    +0.000 A 
ATOM     16  C   UNL     1       7.766   5.277  12.921  0.00  0.00    +0.000 A 
ATOM     17  C   UNL     1       7.007   4.332  12.240  0.00  0.00    +0.000 A 
ATOM     18  C   UNL     1       6.193   3.487  12.974  0.00  0.00    +0.000 A 
ATOM     19  N   UNL     1       6.099   3.518  14.319  0.00  0.00    +0.000 NA
ENDBRANCH   9  14
BRANCH   1  21
ATOM     20  C   UNL     1       0.005   7.877  21.129  0.00  0.00    +0.000 C 
ATOM     21  N   UNL     1       1.339   8.234  20.675  0.00  0.00    +0.000 NA
BRANCH  21  22
ATOM     22  C   UNL     1       1.378   9.424  19.811  0.00  0.00    +0.000 C 
BRANCH  22  23
ATOM     23  C   UNL     1       0.075  10.052  19.353  0.00  0.00    +0.000 A 
ATOM     24  C   UNL     1      -0.571  11.021  20.138  0.00  0.00    +0.000 A 
ATOM     25  C   UNL     1      -1.717  11.676  19.677  0.00  0.00    +0.000 A 
ATOM     26  C   UNL     1      -2.241  11.369  18.425  0.00  0.00    +0.000 A 
ATOM     27  C   UNL     1      -1.620  10.411  17.634  0.00  0.00    +0.000 A 
ATOM     28  C   UNL     1      -0.465   9.757  18.093  0.00  0.00    +0.000 A 
ENDBRANCH  22  23
ENDBRANCH  21  22
ENDBRANCH   1  21
TORSDOF 4
ENDMDL
MODEL 6
REMARK VINA RESULT:      -7.6      3.714      5.729
REMARK  Name = 
REMARK  5 active torsions:
REMARK  status: ('A' for Active; 'I' for Inactive)
REMARK    1  A    between atoms: C_1  and  N_2
REMARK    2  A    between atoms: N_2  and  C_3
REMARK    3  A    between atoms: N_2  and  C_10
REMARK    4  A    between atoms: C_3  and  C_4
REMARK    5  A    between atoms: C_18  and  C_20
REMARK                            x       y       z     vdW  Elec       q    Type
REMARK                         _______ _______ _______ _____ _____    ______ ____
ROOT
ATOM      1  C   UNL     1      -1.021  11.720  19.270  0.00  0.00    +0.000 C 
ATOM      2  C   UNL     1       0.122  12.619  19.792  0.00  0.00    +0.000 C 
ATOM      3  C   UNL     1       1.470  11.922  19.746  0.00  0.00    +0.000 C 
ATOM      4  O   UNL     1       1.415  10.662  20.404  0.00  0.00    +0.000 OA
ATOM      5  C   UNL     1       0.475   9.729  19.843  0.00  0.00    +0.000 C 
ATOM      6  C   UNL     1       0.880   9.322  18.405  0.00  0.00    +0.000 C 
ATOM      7  C   UNL     1       2.263   8.667  18.401  0.00  0.00    +0.000 C 
ATOM      8  N   UNL     1       2.261   7.511  19.287  0.00  0.00    +0.000 N 
ATOM      9  C   UNL     1       2.632   6.265  18.774  0.00  0.00    +0.000 C 
ATOM     10  O   UNL     1       3.073   6.136  17.628  0.00  0.00    +0.000 OA
ATOM     11  C   UNL     1       1.912   7.825  20.675  0.00  0.00    +0.000 C 
ATOM     12  C   UNL     1       0.526   8.464  20.731  0.00  0.00    +0.000 C 
ATOM     13  C   UNL     1      -0.939  10.335  19.924  0.00  0.00    +0.000 C 
ENDROOT
BRANCH   9  14
ATOM     14  C   UNL     1       2.524   5.029  19.609  0.00  0.00    +0.000 A 
ATOM     15  C   UNL     1       1.297   4.723  20.187  0.00  0.00    +0.000 A 
ATOM     16  C   UNL     1       1.187   3.551  20.928  0.00  0.00    +0.000 A 
ATOM     17  C   UNL     1       2.302   2.732  21.075  0.00  0.00    +0.000 A 
ATOM     18  C   UNL     1       3.494   3.133  20.496  0.00  0.00    +0.000 A 
ATOM     19  N   UNL     1       3.638   4.270  19.786  0.00  0.00    +0.000 NA
ENDBRANCH   9  14
BRANCH   1  21
ATOM     20  C   UNL     1      -2.538  13.175  20.617  0.00  0.00    +0.000 C 
ATOM     21  N   UNL     1      -2.319  12.408  19.401  0.00  0.00    +0.000 NA
BRANCH  21  22
ATOM     22  C   UNL     1      -3.503  11.666  18.940  0.00  0.00    +0.000 C 
BRANCH  22  23
ATOM     23  C   UNL     1      -3.499  11.048  17.554  0.00  0.00    +0.000 A 
ATOM     24  C   UNL     1      -4.218  11.637  16.502  0.00  0.00    +0.000 A 
ATOM     25  C   UNL     1      -4.138  11.131  15.201  0.00  0.00    +0.000 A 
ATOM     26  C   UNL     1      -3.340  10.023  14.931  0.00  0.00    +0.000 A 
ATOM     27  C   UNL     1      -2.623   9.424  15.958  0.00  0.00    +0.000 A 
ATOM     28  C   UNL     1      -2.698   9.935  17.263  0.00  0.00    +0.000 A 
ENDBRANCH  22  23
ENDBRANCH  21  22
ENDBRANCH   1  21
TORSDOF 4
ENDMDL
MODEL 7
REMARK VINA RESULT:      -7.5      0.997      1.705
REMARK  Name = 
REMARK  5 active torsions:
REMARK  status: ('A' for Active; 'I' for Inactive)
REMARK    1  A    between atoms: C_1  and  N_2
REMARK    2  A    between atoms: N_2  and  C_3
REMARK    3  A    between atoms: N_2  and  C_10
REMARK    4  A    between atoms: C_3  and  C_4
REMARK    5  A    between atoms: C_18  and  C_20
REMARK                            x       y       z     vdW  Elec       q    Type
REMARK                         _______ _______ _______ _____ _____    ______ ____
ROOT
ATOM      1  C   UNL     1       2.285   7.216  20.239  0.00  0.00    +0.000 C 
ATOM      2  C   UNL     1       1.728   5.886  20.792  0.00  0.00    +0.000 C 
ATOM      3  C   UNL     1       2.571   4.692  20.378  0.00  0.00    +0.000 C 
ATOM      4  O   UNL     1       2.764   4.666  18.970  0.00  0.00    +0.000 OA
ATOM      5  C   UNL     1       3.432   5.821  18.431  0.00  0.00    +0.000 C 
ATOM      6  C   UNL     1       4.887   5.918  18.952  0.00  0.00    +0.000 C 
ATOM      7  C   UNL     1       5.685   4.675  18.553  0.00  0.00    +0.000 C 
ATOM      8  N   UNL     1       5.660   4.519  17.105  0.00  0.00    +0.000 N 
ATOM      9  C   UNL     1       6.872   4.448  16.412  0.00  0.00    +0.000 C 
ATOM     10  O   UNL     1       7.957   4.395  16.998  0.00  0.00    +0.000 OA
ATOM     11  C   UNL     1       4.314   4.393  16.542  0.00  0.00    +0.000 C 
ATOM     12  C   UNL     1       3.484   5.625  16.898  0.00  0.00    +0.000 C 
ATOM     13  C   UNL     1       2.593   7.075  18.743  0.00  0.00    +0.000 C 
ENDROOT
BRANCH   9  14
ATOM     14  C   UNL     1       6.898   4.416  14.916  0.00  0.00    +0.000 A 
ATOM     15  C   UNL     1       7.693   5.340  14.246  0.00  0.00    +0.000 A 
ATOM     16  C   UNL     1       7.750   5.281  12.857  0.00  0.00    +0.000 A 
ATOM     17  C   UNL     1       7.009   4.313  12.187  0.00  0.00    +0.000 A 
ATOM     18  C   UNL     1       6.216   3.457  12.932  0.00  0.00    +0.000 A 
ATOM     19  N   UNL     1       6.126   3.499  14.276  0.00  0.00    +0.000 NA
ENDBRANCH   9  14
BRANCH   1  21
ATOM     20  C   UNL     1       0.255   8.026  21.447  0.00  0.00    +0.000 C 
ATOM     21  N   UNL     1       1.397   8.337  20.601  0.00  0.00    +0.000 NA
BRANCH  21  22
ATOM     22  C   UNL     1       1.107   9.312  19.539  0.00  0.00    +0.000 C 
BRANCH  22  23
ATOM     23  C   UNL     1       0.313  10.561  19.875  0.00  0.00    +0.000 A 
ATOM     24  C   UNL     1      -0.980  10.751  19.361  0.00  0.00    +0.000 A 
ATOM     25  C   UNL     1      -1.755  11.849  19.746  0.00  0.00    +0.000 A 
ATOM     26  C   UNL     1      -1.248  12.780  20.648  0.00  0.00    +0.000 A 
ATOM     27  C   UNL     1       0.029  12.613  21.165  0.00  0.00    +0.000 A 
ATOM     28  C   UNL     1       0.807  11.507  20.784  0.00  0.00    +0.000 A 
ENDBRANCH  22  23
ENDBRANCH  21  22
ENDBRANCH   1  21
TORSDOF 4
ENDMDL
MODEL 8
REMARK VINA RESULT:      -7.5      1.619      2.369
REMARK  Name = 
REMARK  5 active torsions:
REMARK  status: ('A' for Active; 'I' for Inactive)
REMARK    1  A    between atoms: C_1  and  N_2
REMARK    2  A    between atoms: N_2  and  C_3
REMARK    3  A    between atoms: N_2  and  C_10
REMARK    4  A    between atoms: C_3  and  C_4
REMARK    5  A    between atoms: C_18  and  C_20
REMARK                            x       y       z     vdW  Elec       q    Type
REMARK                         _______ _______ _______ _____ _____    ______ ____
ROOT
ATOM      1  C   UNL     1       2.198   7.189  20.113  0.00  0.00    +0.000 C 
ATOM      2  C   UNL     1       1.695   5.856  20.708  0.00  0.00    +0.000 C 
ATOM      3  C   UNL     1       2.587   4.684  20.335  0.00  0.00    +0.000 C 
ATOM      4  O   UNL     1       2.783   4.621  18.928  0.00  0.00    +0.000 OA
ATOM      5  C   UNL     1       3.404   5.783  18.351  0.00  0.00    +0.000 C 
ATOM      6  C   UNL     1       4.854   5.956  18.869  0.00  0.00    +0.000 C 
ATOM      7  C   UNL     1       5.702   4.735  18.512  0.00  0.00    +0.000 C 
ATOM      8  N   UNL     1       5.686   4.530  17.070  0.00  0.00    +0.000 N 
ATOM      9  C   UNL     1       6.901   4.486  16.380  0.00  0.00    +0.000 C 
ATOM     10  O   UNL     1       7.987   4.496  16.968  0.00  0.00    +0.000 OA
ATOM     11  C   UNL     1       4.347   4.331  16.511  0.00  0.00    +0.000 C 
ATOM     12  C   UNL     1       3.467   5.539  16.826  0.00  0.00    +0.000 C 
ATOM     13  C   UNL     1       2.515   7.011  18.622  0.00  0.00    +0.000 C 
ENDROOT
BRANCH   9  14
ATOM     14  C   UNL     1       6.931   4.406  14.887  0.00  0.00    +0.000 A 
ATOM     15  C   UNL     1       7.772   5.269  14.192  0.00  0.00    +0.000 A 
ATOM     16  C   UNL     1       7.832   5.164  12.806  0.00  0.00    +0.000 A 
ATOM     17  C   UNL     1       7.048   4.212  12.162  0.00  0.00    +0.000 A 
ATOM     18  C   UNL     1       6.211   3.419  12.929  0.00  0.00    +0.000 A 
ATOM     19  N   UNL     1       6.118   3.507  14.271  0.00  0.00    +0.000 NA
ENDBRANCH   9  14
BRANCH   1  21
ATOM     20  C   UNL     1       0.932   9.206  19.363  0.00  0.00    +0.000 C 
ATOM     21  N   UNL     1       1.265   8.284  20.437  0.00  0.00    +0.000 NA
BRANCH  21  22
ATOM     22  C   UNL     1       1.444   8.931  21.746  0.00  0.00    +0.000 C 
BRANCH  22  23
ATOM     23  C   UNL     1       0.517  10.064  22.146  0.00  0.00    +0.000 A 
ATOM     24  C   UNL     1       0.658  11.342  21.582  0.00  0.00    +0.000 A 
ATOM     25  C   UNL     1      -0.253  12.362  21.870  0.00  0.00    +0.000 A 
ATOM     26  C   UNL     1      -1.319  12.124  22.733  0.00  0.00    +0.000 A 
ATOM     27  C   UNL     1      -1.474  10.868  23.304  0.00  0.00    +0.000 A 
ATOM     28  C   UNL     1      -0.563   9.841  23.012  0.00  0.00    +0.000 A 
ENDBRANCH  22  23
ENDBRANCH  21  22
ENDBRANCH   1  21
TORSDOF 4
ENDMDL
MODEL 9
REMARK VINA RESULT:      -7.4      3.534     10.145
REMARK  Name = 
REMARK  5 active torsions:
REMARK  status: ('A' for Active; 'I' for Inactive)
REMARK    1  A    between atoms: C_1  and  N_2
REMARK    2  A    between atoms: N_2  and  C_3
REMARK    3  A    between atoms: N_2  and  C_10
REMARK    4  A    between atoms: C_3  and  C_4
REMARK    5  A    between atoms: C_18  and  C_20
REMARK                            x       y       z     vdW  Elec       q    Type
REMARK                         _______ _______ _______ _____ _____    ______ ____
ROOT
ATOM      1  C   UNL     1       2.242   7.762  19.444  0.00  0.00    +0.000 C 
ATOM      2  C   UNL     1       2.309   8.300  17.998  0.00  0.00    +0.000 C 
ATOM      3  C   UNL     1       1.930   9.769  17.911  0.00  0.00    +0.000 C 
ATOM      4  O   UNL     1       0.673  10.008  18.531  0.00  0.00    +0.000 OA
ATOM      5  C   UNL     1       0.615   9.673  19.929  0.00  0.00    +0.000 C 
ATOM      6  C   UNL     1       1.559  10.576  20.760  0.00  0.00    +0.000 C 
ATOM      7  C   UNL     1       1.170  12.047  20.606  0.00  0.00    +0.000 C 
ATOM      8  N   UNL     1      -0.217  12.234  21.010  0.00  0.00    +0.000 N 
ATOM      9  C   UNL     1      -0.510  13.166  22.010  0.00  0.00    +0.000 C 
ATOM     10  O   UNL     1       0.352  13.917  22.475  0.00  0.00    +0.000 OA
ATOM     11  C   UNL     1      -1.174  11.429  20.246  0.00  0.00    +0.000 C 
ATOM     12  C   UNL     1      -0.836   9.946  20.388  0.00  0.00    +0.000 C 
ATOM     13  C   UNL     1       0.913   8.171  20.095  0.00  0.00    +0.000 C 
ENDROOT
BRANCH   9  14
ATOM     14  C   UNL     1      -1.900  13.301  22.547  0.00  0.00    +0.000 A 
ATOM     15  C   UNL     1      -2.392  12.299  23.376  0.00  0.00    +0.000 A 
ATOM     16  C   UNL     1      -3.668  12.447  23.910  0.00  0.00    +0.000 A 
ATOM     17  C   UNL     1      -4.410  13.580  23.593  0.00  0.00    +0.000 A 
ATOM     18  C   UNL     1      -3.856  14.510  22.730  0.00  0.00    +0.000 A 
ATOM     19  N   UNL     1      -2.630  14.388  22.183  0.00  0.00    +0.000 NA
ENDBRANCH   9  14
BRANCH   1  21
ATOM     20  C   UNL     1       1.787   5.505  20.410  0.00  0.00    +0.000 C 
ATOM     21  N   UNL     1       2.544   6.319  19.472  0.00  0.00    +0.000 NA
BRANCH  21  22
ATOM     22  C   UNL     1       3.963   5.944  19.366  0.00  0.00    +0.000 C 
BRANCH  22  23
ATOM     23  C   UNL     1       4.512   5.492  18.025  0.00  0.00    +0.000 A 
ATOM     24  C   UNL     1       4.293   4.185  17.562  0.00  0.00    +0.000 A 
ATOM     25  C   UNL     1       4.709   3.792  16.287  0.00  0.00    +0.000 A 
ATOM     26  C   UNL     1       5.356   4.699  15.453  0.00  0.00    +0.000 A 
ATOM     27  C   UNL     1       5.586   5.996  15.892  0.00  0.00    +0.000 A 
ATOM     28  C   UNL     1       5.164   6.393  17.171  0.00  0.00    +0.000 A 
ENDBRANCH  22  23
ENDBRANCH  21  22
ENDBRANCH   1  21
TORSDOF 4
ENDMDL
