MODEL 1
REMARK VINA RESULT:      -6.5      0.000      0.000
REMARK  Name = 
REMARK  10 active torsions:
REMARK  status: ('A' for Active; 'I' for Inactive)
REMARK    1  A    between atoms: C_1  and  C_2
REMARK    2  A    between atoms: C_2  and  O_3
REMARK    3  A    between atoms: O_3  and  C_4
REMARK    4  A    between atoms: C_4  and  C_6
REMARK    5  A    between atoms: C_7  and  N_8
REMARK    6  A    between atoms: N_11  and  C_12
REMARK    7  A    between atoms: C_12  and  C_13
REMARK    8  A    between atoms: C_12  and  C_14
REMARK    9  A    between atoms: C_12  and  C_15
REMARK   10  A    between atoms: N_21  and  C_22
REMARK                            x       y       z     vdW  Elec       q    Type
REMARK                         _______ _______ _______ _____ _____    ______ ____
ROOT
ATOM      1  C   UNL     1       3.635   4.261  18.127  0.00  0.00    +0.000 A 
ATOM      2  C   UNL     1       3.943   5.065  19.235  0.00  0.00    +0.000 A 
ATOM      3  S   UNL     1       5.645   5.347  19.317  0.00  0.00    +0.000 S 
ATOM      4  C   UNL     1       5.879   4.850  17.732  0.00  0.00    +0.000 A 
ATOM      5  C   UNL     1       4.803   4.133  17.263  0.00  0.00    +0.000 A 
ATOM      6  C   UNL     1       4.907   3.440  15.926  0.00  0.00    +0.000 C 
ATOM      7  C   UNL     1       6.357   3.495  15.373  0.00  0.00    +0.000 C 
ATOM      8  N   UNL     1       7.057   4.785  15.558  0.00  0.00    +0.000 NA
ATOM      9  C   UNL     1       6.423   5.864  14.801  0.00  0.00    +0.000 C 
ATOM     10  C   UNL     1       7.160   5.107  17.000  0.00  0.00    +0.000 C 
ENDROOT
BRANCH   2  11
ATOM     11  N   UNL     1       3.167   5.587  20.288  0.00  0.00    +0.000 N 
ATOM     12  C   UNL     1       2.294   6.657  20.088  0.00  0.00    +0.000 C 
ATOM     13  O   UNL     1       2.000   7.130  18.995  0.00  0.00    +0.000 OA
ATOM     14  N   UNL     1       1.754   7.187  21.245  0.00  0.00    +0.000 N 
ATOM     15  H   UNL     1       2.969   4.965  21.060  0.00  0.00    +0.000 HD
ATOM     16  H   UNL     1       2.175   6.910  22.124  0.00  0.00    +0.000 HD
BRANCH  14  17
ATOM     17  C   UNL     1       1.010   8.480  21.217  0.00  0.00    +0.000 C 
ATOM     18  C   UNL     1      -0.506   8.269  21.419  0.00  0.00    +0.000 C 
ATOM     19  C   UNL     1       1.490   9.395  22.359  0.00  0.00    +0.000 C 
ATOM     20  C   UNL     1       1.257   9.233  19.891  0.00  0.00    +0.000 C 
ENDBRANCH  14  17
ENDBRANCH   2  11
BRANCH   1  21
ATOM     21  C   UNL     1       2.335   3.703  17.761  0.00  0.00    +0.000 C 
ATOM     22  O   UNL     1       1.516   4.338  17.097  0.00  0.00    +0.000 OA
BRANCH  21  23
ATOM     23  O   UNL     1       2.061   2.488  18.301  0.00  0.00    +0.000 OA
BRANCH  23  25
ATOM     24  C   UNL     1       1.239   2.704  20.539  0.00  0.00    +0.000 C 
ATOM     25  C   UNL     1       0.856   2.446  19.092  0.00  0.00    +0.000 C 
ENDBRANCH  23  25
ENDBRANCH  21  23
ENDBRANCH   1  21
TORSDOF 5
ENDMDL
MODEL 2
REMARK VINA RESULT:      -6.3      3.054      7.622
REMARK  Name = 
REMARK  10 active torsions:
REMARK  status: ('A' for Active; 'I' for Inactive)
REMARK    1  A    between atoms: C_1  and  C_2
REMARK    2  A    between atoms: C_2  and  O_3
REMARK    3  A    between atoms: O_3  and  C_4
REMARK    4  A    between atoms: C_4  and  C_6
REMARK    5  A    between atoms: C_7  and  N_8
REMARK    6  A    between atoms: N_11  and  C_12
REMARK    7  A    between atoms: C_12  and  C_13
REMARK    8  A    between atoms: C_12  and  C_14
REMARK    9  A    between atoms: C_12  and  C_15
REMARK   10  A    between atoms: N_21  and  C_22
REMARK                            x       y       z     vdW  Elec       q    Type
REMARK                         _______ _______ _______ _____ _____    ______ ____
ROOT
ATOM      1  C   UNL     1       5.660   4.638  17.803  0.00  0.00    +0.000 A 
ATOM      2  C   UNL     1       5.318   3.839  16.700  0.00  0.00    +0.000 A 
ATOM      3  S   UNL     1       3.642   3.428  16.755  0.00  0.00    +0.000 S 
ATOM      4  C   UNL     1       3.309   4.626  17.882  0.00  0.00    +0.000 A 
ATOM      5  C   UNL     1       4.455   5.074  18.497  0.00  0.00    +0.000 A 
ATOM      6  C   UNL     1       4.339   6.012  19.674  0.00  0.00    +0.000 C 
ATOM      7  C   UNL     1       2.865   6.159  20.136  0.00  0.00    +0.000 C 
ATOM      8  N   UNL     1       1.867   6.263  19.048  0.00  0.00    +0.000 NA
ATOM      9  C   UNL     1       2.042   7.483  18.261  0.00  0.00    +0.000 C 
ATOM     10  C   UNL     1       1.908   5.048  18.203  0.00  0.00    +0.000 C 
ENDROOT
BRANCH   2  11
ATOM     11  N   UNL     1       6.073   3.270  15.657  0.00  0.00    +0.000 N 
ATOM     12  C   UNL     1       6.025   3.783  14.360  0.00  0.00    +0.000 C 
ATOM     13  O   UNL     1       5.477   4.832  14.039  0.00  0.00    +0.000 OA
ATOM     14  N   UNL     1       6.655   3.005  13.407  0.00  0.00    +0.000 N 
ATOM     15  H   UNL     1       6.901   2.755  15.922  0.00  0.00    +0.000 HD
ATOM     16  H   UNL     1       6.910   2.061  13.671  0.00  0.00    +0.000 HD
BRANCH  14  17
ATOM     17  C   UNL     1       6.476   3.287  11.952  0.00  0.00    +0.000 C 
ATOM     18  C   UNL     1       7.138   4.621  11.545  0.00  0.00    +0.000 C 
ATOM     19  C   UNL     1       7.142   2.181  11.111  0.00  0.00    +0.000 C 
ATOM     20  C   UNL     1       4.979   3.313  11.573  0.00  0.00    +0.000 C 
ENDBRANCH  14  17
ENDBRANCH   2  11
BRANCH   1  21
ATOM     21  C   UNL     1       6.990   5.107  18.189  0.00  0.00    +0.000 C 
ATOM     22  O   UNL     1       7.457   4.897  19.307  0.00  0.00    +0.000 OA
BRANCH  21  23
ATOM     23  O   UNL     1       7.614   5.881  17.264  0.00  0.00    +0.000 OA
BRANCH  23  25
ATOM     24  C   UNL     1       7.979   8.192  17.771  0.00  0.00    +0.000 C 
ATOM     25  C   UNL     1       7.044   7.196  17.107  0.00  0.00    +0.000 C 
ENDBRANCH  23  25
ENDBRANCH  21  23
ENDBRANCH   1  21
TORSDOF 5
ENDMDL
MODEL 3
REMARK VINA RESULT:      -6.2      1.702      1.869
REMARK  Name = 
REMARK  10 active torsions:
REMARK  status: ('A' for Active; 'I' for Inactive)
REMARK    1  A    between atoms: C_1  and  C_2
REMARK    2  A    between atoms: C_2  and  O_3
REMARK    3  A    between atoms: O_3  and  C_4
REMARK    4  A    between atoms: C_4  and  C_6
REMARK    5  A    between atoms: C_7  and  N_8
REMARK    6  A    between atoms: N_11  and  C_12
REMARK    7  A    between atoms: C_12  and  C_13
REMARK    8  A    between atoms: C_12  and  C_14
REMARK    9  A    between atoms: C_12  and  C_15
REMARK   10  A    between atoms: N_21  and  C_22
REMARK                            x       y       z     vdW  Elec       q    Type
REMARK                         _______ _______ _______ _____ _____    ______ ____
ROOT
ATOM      1  C   UNL     1       3.210   5.049  17.993  0.00  0.00    +0.000 A 
ATOM      2  C   UNL     1       3.334   6.350  18.504  0.00  0.00    +0.000 A 
ATOM      3  S   UNL     1       4.946   6.929  18.283  0.00  0.00    +0.000 S 
ATOM      4  C   UNL     1       5.300   5.735  17.159  0.00  0.00    +0.000 A 
ATOM      5  C   UNL     1       4.395   4.701  17.217  0.00  0.00    +0.000 A 
ATOM      6  C   UNL     1       4.656   3.448  16.417  0.00  0.00    +0.000 C 
ATOM      7  C   UNL     1       6.076   3.465  15.790  0.00  0.00    +0.000 C 
ATOM      8  N   UNL     1       6.506   4.765  15.229  0.00  0.00    +0.000 NA
ATOM      9  C   UNL     1       5.685   5.165  14.086  0.00  0.00    +0.000 C 
ATOM     10  C   UNL     1       6.519   5.798  16.290  0.00  0.00    +0.000 C 
ENDROOT
BRANCH   2  11
ATOM     11  N   UNL     1       2.453   7.194  19.207  0.00  0.00    +0.000 N 
ATOM     12  C   UNL     1       1.916   8.339  18.616  0.00  0.00    +0.000 C 
ATOM     13  O   UNL     1       2.018   8.632  17.430  0.00  0.00    +0.000 OA
ATOM     14  N   UNL     1       1.233   9.171  19.484  0.00  0.00    +0.000 N 
ATOM     15  H   UNL     1       1.936   6.779  19.969  0.00  0.00    +0.000 HD
ATOM     16  H   UNL     1       1.348   9.003  20.476  0.00  0.00    +0.000 HD
BRANCH  14  17
ATOM     17  C   UNL     1       0.823  10.542  19.063  0.00  0.00    +0.000 C 
ATOM     18  C   UNL     1      -0.459  10.514  18.202  0.00  0.00    +0.000 C 
ATOM     19  C   UNL     1       0.514  11.408  20.298  0.00  0.00    +0.000 C 
ATOM     20  C   UNL     1       1.956  11.244  18.282  0.00  0.00    +0.000 C 
ENDBRANCH  14  17
ENDBRANCH   2  11
BRANCH   1  21
ATOM     21  C   UNL     1       2.051   4.163  18.077  0.00  0.00    +0.000 C 
ATOM     22  O   UNL     1       1.099   4.258  17.304  0.00  0.00    +0.000 OA
BRANCH  21  23
ATOM     23  O   UNL     1       2.058   3.312  19.135  0.00  0.00    +0.000 OA
BRANCH  23  25
ATOM     24  C   UNL     1       1.365   2.804  21.370  0.00  0.00    +0.000 C 
ATOM     25  C   UNL     1       1.007   3.547  20.094  0.00  0.00    +0.000 C 
ENDBRANCH  23  25
ENDBRANCH  21  23
ENDBRANCH   1  21
TORSDOF 5
ENDMDL
MODEL 4
REMARK VINA RESULT:      -6.1      2.958      4.873
REMARK  Name = 
REMARK  10 active torsions:
REMARK  status: ('A' for Active; 'I' for Inactive)
REMARK    1  A    between atoms: C_1  and  C_2
REMARK    2  A    between atoms: C_2  and  O_3
REMARK    3  A    between atoms: O_3  and  C_4
REMARK    4  A    between atoms: C_4  and  C_6
REMARK    5  A    between atoms: C_7  and  N_8
REMARK    6  A    between atoms: N_11  and  C_12
REMARK    7  A    between atoms: C_12  and  C_13
REMARK    8  A    between atoms: C_12  and  C_14
REMARK    9  A    between atoms: C_12  and  C_15
REMARK   10  A    between atoms: N_21  and  C_22
REMARK                            x       y       z     vdW  Elec       q    Type
REMARK                         _______ _______ _______ _____ _____    ______ ____
ROOT
ATOM      1  C   UNL     1       4.052   5.533  18.400  0.00  0.00    +0.000 A 
ATOM      2  C   UNL     1       2.975   6.380  18.089  0.00  0.00    +0.000 A 
ATOM      3  S   UNL     1       1.533   5.457  17.868  0.00  0.00    +0.000 S 
ATOM      4  C   UNL     1       2.193   4.107  18.613  0.00  0.00    +0.000 A 
ATOM      5  C   UNL     1       3.564   4.190  18.686  0.00  0.00    +0.000 A 
ATOM      6  C   UNL     1       4.350   2.987  19.150  0.00  0.00    +0.000 C 
ATOM      7  C   UNL     1       3.442   1.735  19.280  0.00  0.00    +0.000 C 
ATOM      8  N   UNL     1       2.107   1.978  19.871  0.00  0.00    +0.000 NA
ATOM      9  C   UNL     1       2.198   2.410  21.265  0.00  0.00    +0.000 C 
ATOM     10  C   UNL     1       1.351   2.944  19.041  0.00  0.00    +0.000 C 
ENDROOT
BRANCH   2  11
ATOM     11  N   UNL     1       2.881   7.764  17.851  0.00  0.00    +0.000 N 
ATOM     12  C   UNL     1       2.115   8.593  18.673  0.00  0.00    +0.000 C 
ATOM     13  O   UNL     1       1.600   8.251  19.732  0.00  0.00    +0.000 OA
ATOM     14  N   UNL     1       1.954   9.883  18.204  0.00  0.00    +0.000 N 
ATOM     15  H   UNL     1       3.640   8.192  17.340  0.00  0.00    +0.000 HD
ATOM     16  H   UNL     1       2.214  10.064  17.242  0.00  0.00    +0.000 HD
BRANCH  14  17
ATOM     17  C   UNL     1       0.965  10.806  18.833  0.00  0.00    +0.000 C 
ATOM     18  C   UNL     1      -0.476  10.497  18.373  0.00  0.00    +0.000 C 
ATOM     19  C   UNL     1       0.990  10.647  20.365  0.00  0.00    +0.000 C 
ATOM     20  C   UNL     1       1.305  12.280  18.519  0.00  0.00    +0.000 C 
ENDBRANCH  14  17
ENDBRANCH   2  11
BRANCH   1  21
ATOM     21  C   UNL     1       5.459   5.897  18.554  0.00  0.00    +0.000 C 
ATOM     22  O   UNL     1       6.105   5.595  19.557  0.00  0.00    +0.000 OA
BRANCH  21  23
ATOM     23  O   UNL     1       5.958   6.683  17.566  0.00  0.00    +0.000 OA
BRANCH  23  25
ATOM     24  C   UNL     1       7.818   8.187  17.670  0.00  0.00    +0.000 C 
ATOM     25  C   UNL     1       7.398   6.735  17.517  0.00  0.00    +0.000 C 
ENDBRANCH  23  25
ENDBRANCH  21  23
ENDBRANCH   1  21
TORSDOF 5
ENDMDL
MODEL 5
REMARK VINA RESULT:      -6.1      1.615      2.051
REMARK  Name = 
REMARK  10 active torsions:
REMARK  status: ('A' for Active; 'I' for Inactive)
REMARK    1  A    between atoms: C_1  and  C_2
REMARK    2  A    between atoms: C_2  and  O_3
REMARK    3  A    between atoms: O_3  and  C_4
REMARK    4  A    between atoms: C_4  and  C_6
REMARK    5  A    between atoms: C_7  and  N_8
REMARK    6  A    between atoms: N_11  and  C_12
REMARK    7  A    between atoms: C_12  and  C_13
REMARK    8  A    between atoms: C_12  and  C_14
REMARK    9  A    between atoms: C_12  and  C_15
REMARK   10  A    between atoms: N_21  and  C_22
REMARK                            x       y       z     vdW  Elec       q    Type
REMARK                         _______ _______ _______ _____ _____    ______ ____
ROOT
ATOM      1  C   UNL     1       2.906   5.013  18.281  0.00  0.00    +0.000 A 
ATOM      2  C   UNL     1       3.145   6.267  18.866  0.00  0.00    +0.000 A 
ATOM      3  S   UNL     1       4.820   6.671  18.753  0.00  0.00    +0.000 S 
ATOM      4  C   UNL     1       5.101   5.499  17.585  0.00  0.00    +0.000 A 
ATOM      5  C   UNL     1       4.085   4.572  17.546  0.00  0.00    +0.000 A 
ATOM      6  C   UNL     1       4.250   3.337  16.693  0.00  0.00    +0.000 C 
ATOM      7  C   UNL     1       5.695   3.223  16.137  0.00  0.00    +0.000 C 
ATOM      8  N   UNL     1       6.295   4.492  15.667  0.00  0.00    +0.000 NA
ATOM      9  C   UNL     1       5.585   5.036  14.509  0.00  0.00    +0.000 C 
ATOM     10  C   UNL     1       6.364   5.466  16.781  0.00  0.00    +0.000 C 
ENDROOT
BRANCH   2  11
ATOM     11  N   UNL     1       2.325   7.170  19.569  0.00  0.00    +0.000 N 
ATOM     12  C   UNL     1       1.751   8.274  18.938  0.00  0.00    +0.000 C 
ATOM     13  O   UNL     1       1.763   8.479  17.729  0.00  0.00    +0.000 OA
ATOM     14  N   UNL     1       1.142   9.175  19.792  0.00  0.00    +0.000 N 
ATOM     15  H   UNL     1       1.866   6.818  20.398  0.00  0.00    +0.000 HD
ATOM     16  H   UNL     1       1.331   9.080  20.782  0.00  0.00    +0.000 HD
BRANCH  14  17
ATOM     17  C   UNL     1       0.708  10.517  19.302  0.00  0.00    +0.000 C 
ATOM     18  C   UNL     1       1.801  11.191  18.445  0.00  0.00    +0.000 C 
ATOM     19  C   UNL     1      -0.539  10.379  18.410  0.00  0.00    +0.000 C 
ATOM     20  C   UNL     1       0.330  11.441  20.481  0.00  0.00    +0.000 C 
ENDBRANCH  14  17
ENDBRANCH   2  11
BRANCH   1  21
ATOM     21  C   UNL     1       1.654   4.260  18.262  0.00  0.00    +0.000 C 
ATOM     22  O   UNL     1       1.079   3.976  17.213  0.00  0.00    +0.000 OA
BRANCH  21  23
ATOM     23  O   UNL     1       1.125   4.000  19.485  0.00  0.00    +0.000 OA
BRANCH  23  25
ATOM     24  C   UNL     1       1.737   2.891  21.517  0.00  0.00    +0.000 C 
ATOM     25  C   UNL     1       1.487   2.715  20.029  0.00  0.00    +0.000 C 
ENDBRANCH  23  25
ENDBRANCH  21  23
ENDBRANCH   1  21
TORSDOF 5
ENDMDL
MODEL 6
REMARK VINA RESULT:      -6.1      2.755      4.745
REMARK  Name = 
REMARK  10 active torsions:
REMARK  status: ('A' for Active; 'I' for Inactive)
REMARK    1  A    between atoms: C_1  and  C_2
REMARK    2  A    between atoms: C_2  and  O_3
REMARK    3  A    between atoms: O_3  and  C_4
REMARK    4  A    between atoms: C_4  and  C_6
REMARK    5  A    between atoms: C_7  and  N_8
REMARK    6  A    between atoms: N_11  and  C_12
REMARK    7  A    between atoms: C_12  and  C_13
REMARK    8  A    between atoms: C_12  and  C_14
REMARK    9  A    between atoms: C_12  and  C_15
REMARK   10  A    between atoms: N_21  and  C_22
REMARK                            x       y       z     vdW  Elec       q    Type
REMARK                         _______ _______ _______ _____ _____    ______ ____
ROOT
ATOM      1  C   UNL     1       3.969   5.468  18.371  0.00  0.00    +0.000 A 
ATOM      2  C   UNL     1       2.919   6.346  18.057  0.00  0.00    +0.000 A 
ATOM      3  S   UNL     1       1.468   5.460  17.756  0.00  0.00    +0.000 S 
ATOM      4  C   UNL     1       2.079   4.071  18.472  0.00  0.00    +0.000 A 
ATOM      5  C   UNL     1       3.448   4.125  18.592  0.00  0.00    +0.000 A 
ATOM      6  C   UNL     1       4.196   2.891  19.037  0.00  0.00    +0.000 C 
ATOM      7  C   UNL     1       3.261   1.653  19.091  0.00  0.00    +0.000 C 
ATOM      8  N   UNL     1       1.913   1.901  19.648  0.00  0.00    +0.000 NA
ATOM      9  C   UNL     1       1.965   2.281  21.059  0.00  0.00    +0.000 C 
ATOM     10  C   UNL     1       1.202   2.910  18.830  0.00  0.00    +0.000 C 
ENDROOT
BRANCH   2  11
ATOM     11  N   UNL     1       2.858   7.740  17.867  0.00  0.00    +0.000 N 
ATOM     12  C   UNL     1       2.094   8.555  18.704  0.00  0.00    +0.000 C 
ATOM     13  O   UNL     1       1.552   8.187  19.741  0.00  0.00    +0.000 OA
ATOM     14  N   UNL     1       1.969   9.864  18.278  0.00  0.00    +0.000 N 
ATOM     15  H   UNL     1       3.636   8.169  17.385  0.00  0.00    +0.000 HD
ATOM     16  H   UNL     1       2.250  10.073  17.328  0.00  0.00    +0.000 HD
BRANCH  14  17
ATOM     17  C   UNL     1       0.987  10.786  18.922  0.00  0.00    +0.000 C 
ATOM     18  C   UNL     1       1.025  10.673  20.461  0.00  0.00    +0.000 C 
ATOM     19  C   UNL     1       1.321  12.247  18.571  0.00  0.00    +0.000 C 
ATOM     20  C   UNL     1      -0.447  10.509  18.417  0.00  0.00    +0.000 C 
ENDBRANCH  14  17
ENDBRANCH   2  11
BRANCH   1  21
ATOM     21  C   UNL     1       5.377   5.799  18.584  0.00  0.00    +0.000 C 
ATOM     22  O   UNL     1       5.958   5.530  19.634  0.00  0.00    +0.000 OA
BRANCH  21  23
ATOM     23  O   UNL     1       5.952   6.518  17.586  0.00  0.00    +0.000 OA
BRANCH  23  25
ATOM     24  C   UNL     1       7.002   4.748  16.362  0.00  0.00    +0.000 C 
ATOM     25  C   UNL     1       7.236   6.020  17.159  0.00  0.00    +0.000 C 
ENDBRANCH  23  25
ENDBRANCH  21  23
ENDBRANCH   1  21
TORSDOF 5
ENDMDL
MODEL 7
REMARK VINA RESULT:      -6.0      0.514      1.165
REMARK  Name = 
REMARK  10 active torsions:
REMARK  status: ('A' for Active; 'I' for Inactive)
REMARK    1  A    between atoms: C_1  and  C_2
REMARK    2  A    between atoms: C_2  and  O_3
REMARK    3  A    between atoms: O_3  and  C_4
REMARK    4  A    between atoms: C_4  and  C_6
REMARK    5  A    between atoms: C_7  and  N_8
REMARK    6  A    between atoms: N_11  and  C_12
REMARK    7  A    between atoms: C_12  and  C_13
REMARK    8  A    between atoms: C_12  and  C_14
REMARK    9  A    between atoms: C_12  and  C_15
REMARK   10  A    between atoms: N_21  and  C_22
REMARK                            x       y       z     vdW  Elec       q    Type
REMARK                         _______ _______ _______ _____ _____    ______ ____
ROOT
ATOM      1  C   UNL     1       3.900   4.121  18.213  0.00  0.00    +0.000 A 
ATOM      2  C   UNL     1       3.990   5.124  19.191  0.00  0.00    +0.000 A 
ATOM      3  S   UNL     1       5.548   5.867  19.145  0.00  0.00    +0.000 S 
ATOM      4  C   UNL     1       5.885   5.241  17.626  0.00  0.00    +0.000 A 
ATOM      5  C   UNL     1       5.043   4.199  17.311  0.00  0.00    +0.000 A 
ATOM      6  C   UNL     1       5.314   3.384  16.069  0.00  0.00    +0.000 C 
ATOM      7  C   UNL     1       6.682   3.756  15.437  0.00  0.00    +0.000 C 
ATOM      8  N   UNL     1       7.000   5.202  15.418  0.00  0.00    +0.000 NA
ATOM      9  C   UNL     1       6.078   5.952  14.565  0.00  0.00    +0.000 C 
ATOM     10  C   UNL     1       7.032   5.734  16.799  0.00  0.00    +0.000 C 
ENDROOT
BRANCH   2  11
ATOM     11  N   UNL     1       3.117   5.553  20.209  0.00  0.00    +0.000 N 
ATOM     12  C   UNL     1       2.323   6.690  20.055  0.00  0.00    +0.000 C 
ATOM     13  O   UNL     1       2.185   7.315  19.009  0.00  0.00    +0.000 OA
ATOM     14  N   UNL     1       1.672   7.100  21.204  0.00  0.00    +0.000 N 
ATOM     15  H   UNL     1       2.800   4.850  20.863  0.00  0.00    +0.000 HD
ATOM     16  H   UNL     1       1.971   6.690  22.080  0.00  0.00    +0.000 HD
BRANCH  14  17
ATOM     17  C   UNL     1       0.995   8.429  21.264  0.00  0.00    +0.000 C 
ATOM     18  C   UNL     1       1.607   9.331  22.356  0.00  0.00    +0.000 C 
ATOM     19  C   UNL     1       1.161   9.170  19.924  0.00  0.00    +0.000 C 
ATOM     20  C   UNL     1      -0.521   8.267  21.514  0.00  0.00    +0.000 C 
ENDBRANCH  14  17
ENDBRANCH   2  11
BRANCH   1  21
ATOM     21  C   UNL     1       2.800   3.185  17.991  0.00  0.00    +0.000 C 
ATOM     22  O   UNL     1       2.983   2.062  17.523  0.00  0.00    +0.000 OA
BRANCH  21  23
ATOM     23  O   UNL     1       1.563   3.689  18.233  0.00  0.00    +0.000 OA
BRANCH  23  25
ATOM     24  C   UNL     1       1.125   2.849  20.432  0.00  0.00    +0.000 C 
ATOM     25  C   UNL     1       0.696   2.807  18.975  0.00  0.00    +0.000 C 
ENDBRANCH  23  25
ENDBRANCH  21  23
ENDBRANCH   1  21
TORSDOF 5
ENDMDL
MODEL 8
REMARK VINA RESULT:      -6.0      2.913      4.398
REMARK  Name = 
REMARK  10 active torsions:
REMARK  status: ('A' for Active; 'I' for Inactive)
REMARK    1  A    between atoms: C_1  and  C_2
REMARK    2  A    between atoms: C_2  and  O_3
REMARK    3  A    between atoms: O_3  and  C_4
REMARK    4  A    between atoms: C_4  and  C_6
REMARK    5  A    between atoms: C_7  and  N_8
REMARK    6  A    between atoms: N_11  and  C_12
REMARK    7  A    between atoms: C_12  and  C_13
REMARK    8  A    between atoms: C_12  and  C_14
REMARK    9  A    between atoms: C_12  and  C_15
REMARK   10  A    between atoms: N_21  and  C_22
REMARK                            x       y       z     vdW  Elec       q    Type
REMARK                         _______ _______ _______ _____ _____    ______ ____
ROOT
ATOM      1  C   UNL     1       3.964   6.152  17.221  0.00  0.00    +0.000 A 
ATOM      2  C   UNL     1       2.887   6.922  17.688  0.00  0.00    +0.000 A 
ATOM      3  S   UNL     1       1.600   5.896  18.211  0.00  0.00    +0.000 S 
ATOM      4  C   UNL     1       2.598   4.549  18.269  0.00  0.00    +0.000 A 
ATOM      5  C   UNL     1       3.760   4.749  17.560  0.00  0.00    +0.000 A 
ATOM      6  C   UNL     1       4.696   3.586  17.338  0.00  0.00    +0.000 C 
ATOM      7  C   UNL     1       4.055   2.250  17.800  0.00  0.00    +0.000 C 
ATOM      8  N   UNL     1       3.298   2.315  19.070  0.00  0.00    +0.000 NA
ATOM      9  C   UNL     1       4.165   2.624  20.207  0.00  0.00    +0.000 C 
ATOM     10  C   UNL     1       2.182   3.280  18.948  0.00  0.00    +0.000 C 
ENDROOT
BRANCH   2  11
ATOM     11  N   UNL     1       2.643   8.309  17.725  0.00  0.00    +0.000 N 
ATOM     12  C   UNL     1       1.884   8.886  18.744  0.00  0.00    +0.000 C 
ATOM     13  O   UNL     1       1.503   8.304  19.754  0.00  0.00    +0.000 OA
ATOM     14  N   UNL     1       1.561  10.215  18.540  0.00  0.00    +0.000 N 
ATOM     15  H   UNL     1       3.308   8.901  17.249  0.00  0.00    +0.000 HD
ATOM     16  H   UNL     1       1.712  10.594  17.614  0.00  0.00    +0.000 HD
BRANCH  14  17
ATOM     17  C   UNL     1       0.553  10.896  19.405  0.00  0.00    +0.000 C 
ATOM     18  C   UNL     1       0.948  10.835  20.897  0.00  0.00    +0.000 C 
ATOM     19  C   UNL     1       0.451  12.386  19.029  0.00  0.00    +0.000 C 
ATOM     20  C   UNL     1      -0.850  10.277  19.215  0.00  0.00    +0.000 C 
ENDBRANCH  14  17
ENDBRANCH   2  11
BRANCH   1  21
ATOM     21  C   UNL     1       5.196   6.627  16.594  0.00  0.00    +0.000 C 
ATOM     22  O   UNL     1       5.384   6.545  15.381  0.00  0.00    +0.000 OA
BRANCH  21  23
ATOM     23  O   UNL     1       6.150   7.056  17.460  0.00  0.00    +0.000 OA
BRANCH  23  25
ATOM     24  C   UNL     1       7.676   5.802  18.815  0.00  0.00    +0.000 C 
ATOM     25  C   UNL     1       7.379   6.302  17.411  0.00  0.00    +0.000 C 
ENDBRANCH  23  25
ENDBRANCH  21  23
ENDBRANCH   1  21
TORSDOF 5
ENDMDL
MODEL 9
REMARK VINA RESULT:      -5.9      2.680      4.348
REMARK  Name = 
REMARK  10 active torsions:
REMARK  status: ('A' for Active; 'I' for Inactive)
REMARK    1  A    between atoms: C_1  and  C_2
REMARK    2  A    between atoms: C_2  and  O_3
REMARK    3  A    between atoms: O_3  and  C_4
REMARK    4  A    between atoms: C_4  and  C_6
REMARK    5  A    between atoms: C_7  and  N_8
REMARK    6  A    between atoms: N_11  and  C_12
REMARK    7  A    between atoms: C_12  and  C_13
REMARK    8  A    between atoms: C_12  and  C_14
REMARK    9  A    between atoms: C_12  and  C_15
REMARK   10  A    between atoms: N_21  and  C_22
REMARK                            x       y       z     vdW  Elec       q    Type
REMARK                         _______ _______ _______ _____ _____    ______ ____
ROOT
ATOM      1  C   UNL     1       3.125   6.020  18.777  0.00  0.00    +0.000 A 
ATOM      2  C   UNL     1       2.284   6.411  19.831  0.00  0.00    +0.000 A 
ATOM      3  S   UNL     1       1.314   5.079  20.347  0.00  0.00    +0.000 S 
ATOM      4  C   UNL     1       2.293   3.965  19.563  0.00  0.00    +0.000 A 
ATOM      5  C   UNL     1       3.098   4.571  18.626  0.00  0.00    +0.000 A 
ATOM      6  C   UNL     1       3.909   3.711  17.687  0.00  0.00    +0.000 C 
ATOM      7  C   UNL     1       3.522   2.213  17.816  0.00  0.00    +0.000 C 
ATOM      8  N   UNL     1       3.297   1.734  19.198  0.00  0.00    +0.000 NA
ATOM      9  C   UNL     1       4.520   1.783  19.999  0.00  0.00    +0.000 C 
ATOM     10  C   UNL     1       2.193   2.494  19.828  0.00  0.00    +0.000 C 
ENDROOT
BRANCH   2  11
ATOM     11  N   UNL     1       2.038   7.649  20.454  0.00  0.00    +0.000 N 
ATOM     12  C   UNL     1       1.382   8.683  19.785  0.00  0.00    +0.000 C 
ATOM     13  O   UNL     1       0.832   8.577  18.694  0.00  0.00    +0.000 OA
ATOM     14  N   UNL     1       1.390   9.897  20.447  0.00  0.00    +0.000 N 
ATOM     15  H   UNL     1       1.996   7.650  21.464  0.00  0.00    +0.000 HD
ATOM     16  H   UNL     1       2.022   9.994  21.232  0.00  0.00    +0.000 HD
BRANCH  14  17
ATOM     17  C   UNL     1       0.956  11.146  19.755  0.00  0.00    +0.000 C 
ATOM     18  C   UNL     1      -0.542  11.102  19.388  0.00  0.00    +0.000 C 
ATOM     19  C   UNL     1       1.156  12.361  20.680  0.00  0.00    +0.000 C 
ATOM     20  C   UNL     1       1.796  11.395  18.482  0.00  0.00    +0.000 C 
ENDBRANCH  14  17
ENDBRANCH   2  11
BRANCH   1  21
ATOM     21  C   UNL     1       4.018   6.865  17.987  0.00  0.00    +0.000 C 
ATOM     22  O   UNL     1       3.595   7.653  17.142  0.00  0.00    +0.000 OA
BRANCH  21  23
ATOM     23  O   UNL     1       5.343   6.632  18.177  0.00  0.00    +0.000 OA
BRANCH  23  25
ATOM     24  C   UNL     1       7.506   7.383  17.477  0.00  0.00    +0.000 C 
ATOM     25  C   UNL     1       6.160   6.857  17.010  0.00  0.00    +0.000 C 
ENDBRANCH  23  25
ENDBRANCH  21  23
ENDBRANCH   1  21
TORSDOF 5
ENDMDL
