MODEL 1
REMARK VINA RESULT:      -8.9      0.000      0.000
REMARK  Name = 
REMARK  5 active torsions:
REMARK  status: ('A' for Active; 'I' for Inactive)
REMARK    1  A    between atoms: C_1  and  C_2
REMARK    2  A    between atoms: C_5  and  C_6
REMARK    3  A    between atoms: N_8  and  C_9
REMARK    4  A    between atoms: C_20  and  S_21
REMARK    5  A    between atoms: S_21  and  N_24
REMARK                            x       y       z     vdW  Elec       q    Type
REMARK                         _______ _______ _______ _____ _____    ______ ____
ROOT
ATOM      1  C   UNL     1      -1.081  11.597  22.502  0.00  0.00    +0.000 C 
ATOM      2  C   UNL     1      -0.426  10.850  21.377  0.00  0.00    +0.000 A 
ATOM      3  C   UNL     1       0.412   9.780  21.745  0.00  0.00    +0.000 A 
ATOM      4  C   UNL     1       1.138   9.067  20.795  0.00  0.00    +0.000 A 
ATOM      5  C   UNL     1       1.055   9.397  19.442  0.00  0.00    +0.000 A 
ATOM      6  C   UNL     1       0.224  10.447  19.047  0.00  0.00    +0.000 A 
ATOM      7  C   UNL     1      -0.534  11.170  20.005  0.00  0.00    +0.000 A 
ENDROOT
BRANCH   5   8
ATOM      8  C   UNL     1       1.838   8.548  18.500  0.00  0.00    +0.000 C 
ATOM      9  O   UNL     1       1.924   8.921  17.333  0.00  0.00    +0.000 OA
ATOM     10  N   UNL     1       2.404   7.385  18.991  0.00  0.00    +0.000 N 
ATOM     11  H   UNL     1       1.844   6.856  19.648  0.00  0.00    +0.000 HD
BRANCH  10  12
ATOM     12  C   UNL     1       3.152   6.544  18.141  0.00  0.00    +0.000 A 
ATOM     13  N   UNL     1       4.161   7.190  17.514  0.00  0.00    +0.000 NA
ATOM     14  C   UNL     1       5.036   6.423  16.834  0.00  0.00    +0.000 A 
ATOM     15  C   UNL     1       4.928   5.048  16.705  0.00  0.00    +0.000 A 
ATOM     16  C   UNL     1       3.824   4.402  17.271  0.00  0.00    +0.000 A 
ATOM     17  C   UNL     1       3.650   3.012  17.128  0.00  0.00    +0.000 A 
ATOM     18  C   UNL     1       2.533   2.368  17.664  0.00  0.00    +0.000 A 
ATOM     19  C   UNL     1       1.570   3.104  18.337  0.00  0.00    +0.000 A 
ATOM     20  C   UNL     1       1.736   4.480  18.493  0.00  0.00    +0.000 A 
ATOM     21  C   UNL     1       2.880   5.159  17.995  0.00  0.00    +0.000 A 
ENDBRANCH  10  12
ENDBRANCH   5   8
BRANCH   7  22
ATOM     22  S   UNL     1      -1.462  12.586  19.364  0.00  0.00    +0.000 S 
ATOM     23  O   UNL     1      -1.228  13.715  20.237  0.00  0.00    +0.000 OA
ATOM     24  O   UNL     1      -1.139  12.669  17.953  0.00  0.00    +0.000 OA
BRANCH  22  25
ATOM     25  N   UNL     1      -3.120  12.147  19.479  0.00  0.00    +0.000 NA
ATOM     26  C   UNL     1      -3.946  12.962  20.401  0.00  0.00    +0.000 C 
ATOM     27  C   UNL     1      -5.432  12.628  20.388  0.00  0.00    +0.000 C 
ATOM     28  C   UNL     1      -5.965  12.445  18.978  0.00  0.00    +0.000 C 
ATOM     29  C   UNL     1      -5.202  11.313  18.320  0.00  0.00    +0.000 C 
ATOM     30  C   UNL     1      -3.715  11.615  18.236  0.00  0.00    +0.000 C 
ENDBRANCH  22  25
ENDBRANCH   7  22
TORSDOF 4
ENDMDL
MODEL 2
REMARK VINA RESULT:      -8.9      3.224      8.782
REMARK  Name = 
REMARK  5 active torsions:
REMARK  status: ('A' for Active; 'I' for Inactive)
REMARK    1  A    between atoms: C_1  and  C_2
REMARK    2  A    between atoms: C_5  and  C_6
REMARK    3  A    between atoms: N_8  and  C_9
REMARK    4  A    between atoms: C_20  and  S_21
REMARK    5  A    between atoms: S_21  and  N_24
REMARK                            x       y       z     vdW  Elec       q    Type
REMARK                         _______ _______ _______ _____ _____    ______ ____
ROOT
ATOM      1  C   UNL     1       5.857   5.451  15.861  0.00  0.00    +0.000 C 
ATOM      2  C   UNL     1       4.788   6.021  16.747  0.00  0.00    +0.000 A 
ATOM      3  C   UNL     1       4.451   7.370  16.526  0.00  0.00    +0.000 A 
ATOM      4  C   UNL     1       3.534   8.030  17.339  0.00  0.00    +0.000 A 
ATOM      5  C   UNL     1       2.922   7.368  18.403  0.00  0.00    +0.000 A 
ATOM      6  C   UNL     1       3.230   6.027  18.640  0.00  0.00    +0.000 A 
ATOM      7  C   UNL     1       4.150   5.339  17.807  0.00  0.00    +0.000 A 
ENDROOT
BRANCH   5   8
ATOM      8  C   UNL     1       1.924   8.150  19.189  0.00  0.00    +0.000 C 
ATOM      9  O   UNL     1       1.587   7.706  20.284  0.00  0.00    +0.000 OA
ATOM     10  N   UNL     1       1.426   9.313  18.631  0.00  0.00    +0.000 N 
ATOM     11  H   UNL     1       1.234   9.289  17.638  0.00  0.00    +0.000 HD
BRANCH  10  12
ATOM     12  C   UNL     1       0.478  10.088  19.331  0.00  0.00    +0.000 A 
ATOM     13  N   UNL     1       0.909  10.474  20.553  0.00  0.00    +0.000 NA
ATOM     14  C   UNL     1       0.144  11.370  21.207  0.00  0.00    +0.000 A 
ATOM     15  C   UNL     1      -1.056  11.865  20.725  0.00  0.00    +0.000 A 
ATOM     16  C   UNL     1      -1.545  11.384  19.506  0.00  0.00    +0.000 A 
ATOM     17  C   UNL     1      -2.781  11.826  18.998  0.00  0.00    +0.000 A 
ATOM     18  C   UNL     1      -3.287  11.323  17.797  0.00  0.00    +0.000 A 
ATOM     19  C   UNL     1      -2.573  10.364  17.096  0.00  0.00    +0.000 A 
ATOM     20  C   UNL     1      -1.343   9.925  17.584  0.00  0.00    +0.000 A 
ATOM     21  C   UNL     1      -0.781  10.445  18.781  0.00  0.00    +0.000 A 
ENDBRANCH  10  12
ENDBRANCH   5   8
BRANCH   7  22
ATOM     22  S   UNL     1       4.551   3.647  18.312  0.00  0.00    +0.000 S 
ATOM     23  O   UNL     1       4.792   2.863  17.121  0.00  0.00    +0.000 OA
ATOM     24  O   UNL     1       5.575   3.767  19.332  0.00  0.00    +0.000 OA
BRANCH  22  25
ATOM     25  N   UNL     1       3.137   3.043  19.081  0.00  0.00    +0.000 NA
ATOM     26  C   UNL     1       3.022   3.314  20.533  0.00  0.00    +0.000 C 
ATOM     27  C   UNL     1       1.704   2.875  21.159  0.00  0.00    +0.000 C 
ATOM     28  C   UNL     1       0.510   3.248  20.300  0.00  0.00    +0.000 C 
ATOM     29  C   UNL     1       0.660   2.575  18.951  0.00  0.00    +0.000 C 
ATOM     30  C   UNL     1       1.924   3.026  18.239  0.00  0.00    +0.000 C 
ENDBRANCH  22  25
ENDBRANCH   7  22
TORSDOF 4
ENDMDL
MODEL 3
REMARK VINA RESULT:      -8.7      2.536      3.260
REMARK  Name = 
REMARK  5 active torsions:
REMARK  status: ('A' for Active; 'I' for Inactive)
REMARK    1  A    between atoms: C_1  and  C_2
REMARK    2  A    between atoms: C_5  and  C_6
REMARK    3  A    between atoms: N_8  and  C_9
REMARK    4  A    between atoms: C_20  and  S_21
REMARK    5  A    between atoms: S_21  and  N_24
REMARK                            x       y       z     vdW  Elec       q    Type
REMARK                         _______ _______ _______ _____ _____    ______ ____
ROOT
ATOM      1  C   UNL     1      -1.143  11.415  22.862  0.00  0.00    +0.000 C 
ATOM      2  C   UNL     1      -0.421  10.486  21.930  0.00  0.00    +0.000 A 
ATOM      3  C   UNL     1       0.299   9.437  22.531  0.00  0.00    +0.000 A 
ATOM      4  C   UNL     1       1.074   8.562  21.774  0.00  0.00    +0.000 A 
ATOM      5  C   UNL     1       1.159   8.704  20.390  0.00  0.00    +0.000 A 
ATOM      6  C   UNL     1       0.448   9.730  19.765  0.00  0.00    +0.000 A 
ATOM      7  C   UNL     1      -0.359  10.617  20.524  0.00  0.00    +0.000 A 
ENDROOT
BRANCH   5   8
ATOM      8  C   UNL     1       1.982   7.693  19.665  0.00  0.00    +0.000 C 
ATOM      9  O   UNL     1       2.257   7.919  18.490  0.00  0.00    +0.000 OA
ATOM     10  N   UNL     1       2.367   6.557  20.353  0.00  0.00    +0.000 N 
ATOM     11  H   UNL     1       1.679   6.153  20.975  0.00  0.00    +0.000 HD
BRANCH  10  12
ATOM     12  C   UNL     1       3.143   5.568  19.714  0.00  0.00    +0.000 A 
ATOM     13  N   UNL     1       4.431   5.939  19.537  0.00  0.00    +0.000 NA
ATOM     14  C   UNL     1       5.280   4.984  19.106  0.00  0.00    +0.000 A 
ATOM     15  C   UNL     1       4.899   3.689  18.796  0.00  0.00    +0.000 A 
ATOM     16  C   UNL     1       3.547   3.343  18.885  0.00  0.00    +0.000 A 
ATOM     17  C   UNL     1       3.108   2.051  18.538  0.00  0.00    +0.000 A 
ATOM     18  C   UNL     1       1.755   1.711  18.595  0.00  0.00    +0.000 A 
ATOM     19  C   UNL     1       0.822   2.659  18.985  0.00  0.00    +0.000 A 
ATOM     20  C   UNL     1       1.245   3.940  19.340  0.00  0.00    +0.000 A 
ATOM     21  C   UNL     1       2.618   4.305  19.332  0.00  0.00    +0.000 A 
ENDBRANCH  10  12
ENDBRANCH   5   8
BRANCH   7  22
ATOM     22  S   UNL     1      -1.117  11.975  19.598  0.00  0.00    +0.000 S 
ATOM     23  O   UNL     1      -1.064  11.650  18.190  0.00  0.00    +0.000 OA
ATOM     24  O   UNL     1      -2.389  12.237  20.244  0.00  0.00    +0.000 OA
BRANCH  22  25
ATOM     25  N   UNL     1      -0.116  13.345  19.876  0.00  0.00    +0.000 NA
ATOM     26  C   UNL     1       1.260  13.059  20.344  0.00  0.00    +0.000 C 
ATOM     27  C   UNL     1       2.159  14.283  20.462  0.00  0.00    +0.000 C 
ATOM     28  C   UNL     1       2.026  15.208  19.266  0.00  0.00    +0.000 C 
ATOM     29  C   UNL     1       0.584  15.666  19.172  0.00  0.00    +0.000 C 
ATOM     30  C   UNL     1      -0.363  14.493  18.980  0.00  0.00    +0.000 C 
ENDBRANCH  22  25
ENDBRANCH   7  22
TORSDOF 4
ENDMDL
MODEL 4
REMARK VINA RESULT:      -8.6      0.989      1.395
REMARK  Name = 
REMARK  5 active torsions:
REMARK  status: ('A' for Active; 'I' for Inactive)
REMARK    1  A    between atoms: C_1  and  C_2
REMARK    2  A    between atoms: C_5  and  C_6
REMARK    3  A    between atoms: N_8  and  C_9
REMARK    4  A    between atoms: C_20  and  S_21
REMARK    5  A    between atoms: S_21  and  N_24
REMARK                            x       y       z     vdW  Elec       q    Type
REMARK                         _______ _______ _______ _____ _____    ______ ____
ROOT
ATOM      1  C   UNL     1      -0.844  11.512  22.687  0.00  0.00    +0.000 C 
ATOM      2  C   UNL     1      -0.256  10.675  21.588  0.00  0.00    +0.000 A 
ATOM      3  C   UNL     1       0.664   9.686  21.984  0.00  0.00    +0.000 A 
ATOM      4  C   UNL     1       1.335   8.904  21.048  0.00  0.00    +0.000 A 
ATOM      5  C   UNL     1       1.114   9.083  19.683  0.00  0.00    +0.000 A 
ATOM      6  C   UNL     1       0.199  10.049  19.262  0.00  0.00    +0.000 A 
ATOM      7  C   UNL     1      -0.504  10.841  20.207  0.00  0.00    +0.000 A 
ENDROOT
BRANCH   5   8
ATOM      8  C   UNL     1       1.850   8.169  18.763  0.00  0.00    +0.000 C 
ATOM      9  O   UNL     1       1.833   8.432  17.564  0.00  0.00    +0.000 OA
ATOM     10  N   UNL     1       2.490   7.073  19.312  0.00  0.00    +0.000 N 
ATOM     11  H   UNL     1       2.001   6.594  20.058  0.00  0.00    +0.000 HD
BRANCH  10  12
ATOM     12  C   UNL     1       3.198   6.175  18.487  0.00  0.00    +0.000 A 
ATOM     13  N   UNL     1       4.294   6.729  17.922  0.00  0.00    +0.000 NA
ATOM     14  C   UNL     1       5.127   5.891  17.272  0.00  0.00    +0.000 A 
ATOM     15  C   UNL     1       4.896   4.535  17.116  0.00  0.00    +0.000 A 
ATOM     16  C   UNL     1       3.710   3.989  17.616  0.00  0.00    +0.000 A 
ATOM     17  C   UNL     1       3.413   2.624  17.441  0.00  0.00    +0.000 A 
ATOM     18  C   UNL     1       2.215   2.082  17.911  0.00  0.00    +0.000 A 
ATOM     19  C   UNL     1       1.292   2.897  18.547  0.00  0.00    +0.000 A 
ATOM     20  C   UNL     1       1.578   4.250  18.734  0.00  0.00    +0.000 A 
ATOM     21  C   UNL     1       2.805   4.823  18.304  0.00  0.00    +0.000 A 
ENDBRANCH  10  12
ENDBRANCH   5   8
BRANCH   7  22
ATOM     22  S   UNL     1      -1.557  12.140  19.514  0.00  0.00    +0.000 S 
ATOM     23  O   UNL     1      -2.358  12.694  20.583  0.00  0.00    +0.000 OA
ATOM     24  O   UNL     1      -0.678  12.993  18.737  0.00  0.00    +0.000 OA
BRANCH  22  25
ATOM     25  N   UNL     1      -2.606  11.349  18.405  0.00  0.00    +0.000 NA
ATOM     26  C   UNL     1      -4.024  11.776  18.434  0.00  0.00    +0.000 C 
ATOM     27  C   UNL     1      -4.900  11.147  17.359  0.00  0.00    +0.000 C 
ATOM     28  C   UNL     1      -4.221  11.135  16.002  0.00  0.00    +0.000 C 
ATOM     29  C   UNL     1      -2.936  10.340  16.115  0.00  0.00    +0.000 C 
ATOM     30  C   UNL     1      -1.983  10.958  17.124  0.00  0.00    +0.000 C 
ENDBRANCH  22  25
ENDBRANCH   7  22
TORSDOF 4
ENDMDL
MODEL 5
REMARK VINA RESULT:      -8.6      1.246      1.651
REMARK  Name = 
REMARK  5 active torsions:
REMARK  status: ('A' for Active; 'I' for Inactive)
REMARK    1  A    between atoms: C_1  and  C_2
REMARK    2  A    between atoms: C_5  and  C_6
REMARK    3  A    between atoms: N_8  and  C_9
REMARK    4  A    between atoms: C_20  and  S_21
REMARK    5  A    between atoms: S_21  and  N_24
REMARK                            x       y       z     vdW  Elec       q    Type
REMARK                         _______ _______ _______ _____ _____    ______ ____
ROOT
ATOM      1  C   UNL     1      -1.017  11.358  22.918  0.00  0.00    +0.000 C 
ATOM      2  C   UNL     1      -0.301  10.555  21.872  0.00  0.00    +0.000 A 
ATOM      3  C   UNL     1      -0.020   9.215  22.201  0.00  0.00    +0.000 A 
ATOM      4  C   UNL     1       0.712   8.396  21.345  0.00  0.00    +0.000 A 
ATOM      5  C   UNL     1       1.192   8.886  20.131  0.00  0.00    +0.000 A 
ATOM      6  C   UNL     1       0.920  10.208  19.774  0.00  0.00    +0.000 A 
ATOM      7  C   UNL     1       0.160  11.047  20.630  0.00  0.00    +0.000 A 
ENDROOT
BRANCH   5   8
ATOM      8  C   UNL     1       1.929   7.920  19.267  0.00  0.00    +0.000 C 
ATOM      9  O   UNL     1       1.995   8.165  18.065  0.00  0.00    +0.000 OA
ATOM     10  N   UNL     1       2.476   6.800  19.867  0.00  0.00    +0.000 N 
ATOM     11  H   UNL     1       1.920   6.359  20.588  0.00  0.00    +0.000 HD
BRANCH  10  12
ATOM     12  C   UNL     1       3.180   5.853  19.095  0.00  0.00    +0.000 A 
ATOM     13  N   UNL     1       4.363   6.320  18.636  0.00  0.00    +0.000 NA
ATOM     14  C   UNL     1       5.181   5.421  18.052  0.00  0.00    +0.000 A 
ATOM     15  C   UNL     1       4.857   4.088  17.857  0.00  0.00    +0.000 A 
ATOM     16  C   UNL     1       3.591   3.638  18.243  0.00  0.00    +0.000 A 
ATOM     17  C   UNL     1       3.202   2.302  18.025  0.00  0.00    +0.000 A 
ATOM     18  C   UNL     1       1.927   1.857  18.380  0.00  0.00    +0.000 A 
ATOM     19  C   UNL     1       1.019   2.740  18.943  0.00  0.00    +0.000 A 
ATOM     20  C   UNL     1       1.396   4.064  19.172  0.00  0.00    +0.000 A 
ATOM     21  C   UNL     1       2.698   4.538  18.860  0.00  0.00    +0.000 A 
ENDBRANCH  10  12
ENDBRANCH   5   8
BRANCH   7  22
ATOM     22  S   UNL     1      -0.001  12.770  20.099  0.00  0.00    +0.000 S 
ATOM     23  O   UNL     1       0.461  13.621  21.174  0.00  0.00    +0.000 OA
ATOM     24  O   UNL     1       0.614  12.843  18.788  0.00  0.00    +0.000 OA
BRANCH  22  25
ATOM     25  N   UNL     1      -1.686  13.036  19.884  0.00  0.00    +0.000 NA
ATOM     26  C   UNL     1      -2.447  11.922  19.272  0.00  0.00    +0.000 C 
ATOM     27  C   UNL     1      -3.953  12.140  19.209  0.00  0.00    +0.000 C 
ATOM     28  C   UNL     1      -4.504  12.710  20.503  0.00  0.00    +0.000 C 
ATOM     29  C   UNL     1      -3.827  14.040  20.768  0.00  0.00    +0.000 C 
ATOM     30  C   UNL     1      -2.323  13.882  20.914  0.00  0.00    +0.000 C 
ENDBRANCH  22  25
ENDBRANCH   7  22
TORSDOF 4
ENDMDL
MODEL 6
REMARK VINA RESULT:      -8.6      0.598      1.179
REMARK  Name = 
REMARK  5 active torsions:
REMARK  status: ('A' for Active; 'I' for Inactive)
REMARK    1  A    between atoms: C_1  and  C_2
REMARK    2  A    between atoms: C_5  and  C_6
REMARK    3  A    between atoms: N_8  and  C_9
REMARK    4  A    between atoms: C_20  and  S_21
REMARK    5  A    between atoms: S_21  and  N_24
REMARK                            x       y       z     vdW  Elec       q    Type
REMARK                         _______ _______ _______ _____ _____    ______ ____
ROOT
ATOM      1  C   UNL     1      -1.098  11.503  22.522  0.00  0.00    +0.000 C 
ATOM      2  C   UNL     1      -0.407  10.784  21.400  0.00  0.00    +0.000 A 
ATOM      3  C   UNL     1       0.237   9.579  21.736  0.00  0.00    +0.000 A 
ATOM      4  C   UNL     1       0.980   8.867  20.798  0.00  0.00    +0.000 A 
ATOM      5  C   UNL     1       1.107   9.334  19.490  0.00  0.00    +0.000 A 
ATOM      6  C   UNL     1       0.470  10.521  19.125  0.00  0.00    +0.000 A 
ATOM      7  C   UNL     1      -0.304  11.247  20.068  0.00  0.00    +0.000 A 
ENDROOT
BRANCH   5   8
ATOM      8  C   UNL     1       1.888   8.479  18.550  0.00  0.00    +0.000 C 
ATOM      9  O   UNL     1       2.009   8.869  17.392  0.00  0.00    +0.000 OA
ATOM     10  N   UNL     1       2.412   7.294  19.034  0.00  0.00    +0.000 N 
ATOM     11  H   UNL     1       1.824   6.769  19.670  0.00  0.00    +0.000 HD
BRANCH  10  12
ATOM     12  C   UNL     1       3.156   6.447  18.187  0.00  0.00    +0.000 A 
ATOM     13  N   UNL     1       4.176   7.083  17.568  0.00  0.00    +0.000 NA
ATOM     14  C   UNL     1       5.047   6.308  16.891  0.00  0.00    +0.000 A 
ATOM     15  C   UNL     1       4.924   4.935  16.758  0.00  0.00    +0.000 A 
ATOM     16  C   UNL     1       3.810   4.299  17.315  0.00  0.00    +0.000 A 
ATOM     17  C   UNL     1       3.622   2.912  17.167  0.00  0.00    +0.000 A 
ATOM     18  C   UNL     1       2.494   2.279  17.695  0.00  0.00    +0.000 A 
ATOM     19  C   UNL     1       1.535   3.023  18.364  0.00  0.00    +0.000 A 
ATOM     20  C   UNL     1       1.715   4.397  18.524  0.00  0.00    +0.000 A 
ATOM     21  C   UNL     1       2.870   5.065  18.035  0.00  0.00    +0.000 A 
ENDBRANCH  10  12
ENDBRANCH   5   8
BRANCH   7  22
ATOM     22  S   UNL     1      -0.960  12.832  19.491  0.00  0.00    +0.000 S 
ATOM     23  O   UNL     1      -1.186  13.676  20.643  0.00  0.00    +0.000 OA
ATOM     24  O   UNL     1      -0.078  13.265  18.425  0.00  0.00    +0.000 OA
BRANCH  22  25
ATOM     25  N   UNL     1      -2.482  12.473  18.775  0.00  0.00    +0.000 NA
ATOM     26  C   UNL     1      -2.447  11.609  17.572  0.00  0.00    +0.000 C 
ATOM     27  C   UNL     1      -3.815  11.210  17.036  0.00  0.00    +0.000 C 
ATOM     28  C   UNL     1      -4.765  10.794  18.144  0.00  0.00    +0.000 C 
ATOM     29  C   UNL     1      -4.933  11.961  19.095  0.00  0.00    +0.000 C 
ATOM     30  C   UNL     1      -3.610  12.366  19.723  0.00  0.00    +0.000 C 
ENDBRANCH  22  25
ENDBRANCH   7  22
TORSDOF 4
ENDMDL
MODEL 7
REMARK VINA RESULT:      -8.5      3.470      9.052
REMARK  Name = 
REMARK  5 active torsions:
REMARK  status: ('A' for Active; 'I' for Inactive)
REMARK    1  A    between atoms: C_1  and  C_2
REMARK    2  A    between atoms: C_5  and  C_6
REMARK    3  A    between atoms: N_8  and  C_9
REMARK    4  A    between atoms: C_20  and  S_21
REMARK    5  A    between atoms: S_21  and  N_24
REMARK                            x       y       z     vdW  Elec       q    Type
REMARK                         _______ _______ _______ _____ _____    ______ ____
ROOT
ATOM      1  C   UNL     1       5.208   6.167  15.951  0.00  0.00    +0.000 C 
ATOM      2  C   UNL     1       4.235   6.471  17.053  0.00  0.00    +0.000 A 
ATOM      3  C   UNL     1       3.731   7.784  17.094  0.00  0.00    +0.000 A 
ATOM      4  C   UNL     1       2.887   8.205  18.118  0.00  0.00    +0.000 A 
ATOM      5  C   UNL     1       2.518   7.331  19.139  0.00  0.00    +0.000 A 
ATOM      6  C   UNL     1       2.995   6.020  19.120  0.00  0.00    +0.000 A 
ATOM      7  C   UNL     1       3.842   5.573  18.072  0.00  0.00    +0.000 A 
ENDROOT
BRANCH   5   8
ATOM      8  C   UNL     1       1.578   7.865  20.167  0.00  0.00    +0.000 C 
ATOM      9  O   UNL     1       1.177   7.090  21.030  0.00  0.00    +0.000 OA
ATOM     10  N   UNL     1       1.202   9.193  20.074  0.00  0.00    +0.000 N 
ATOM     11  H   UNL     1       1.032   9.548  19.142  0.00  0.00    +0.000 HD
BRANCH  10  12
ATOM     12  C   UNL     1       0.313   9.748  21.018  0.00  0.00    +0.000 A 
ATOM     13  N   UNL     1       0.458   9.219  22.254  0.00  0.00    +0.000 NA
ATOM     14  C   UNL     1      -0.219   9.823  23.251  0.00  0.00    +0.000 A 
ATOM     15  C   UNL     1      -1.072  10.899  23.070  0.00  0.00    +0.000 A 
ATOM     16  C   UNL     1      -1.294  11.375  21.773  0.00  0.00    +0.000 A 
ATOM     17  C   UNL     1      -2.186  12.437  21.537  0.00  0.00    +0.000 A 
ATOM     18  C   UNL     1      -2.435  12.894  20.241  0.00  0.00    +0.000 A 
ATOM     19  C   UNL     1      -1.808  12.287  19.164  0.00  0.00    +0.000 A 
ATOM     20  C   UNL     1      -0.915  11.238  19.386  0.00  0.00    +0.000 A 
ATOM     21  C   UNL     1      -0.609  10.778  20.695  0.00  0.00    +0.000 A 
ENDBRANCH  10  12
ENDBRANCH   5   8
BRANCH   7  22
ATOM     22  S   UNL     1       4.488   3.892  18.247  0.00  0.00    +0.000 S 
ATOM     23  O   UNL     1       4.515   3.277  16.938  0.00  0.00    +0.000 OA
ATOM     24  O   UNL     1       5.704   4.011  19.028  0.00  0.00    +0.000 OA
BRANCH  22  25
ATOM     25  N   UNL     1       3.344   3.051  19.216  0.00  0.00    +0.000 NA
ATOM     26  C   UNL     1       3.536   3.150  20.682  0.00  0.00    +0.000 C 
ATOM     27  C   UNL     1       2.438   2.500  21.513  0.00  0.00    +0.000 C 
ATOM     28  C   UNL     1       1.052   2.824  20.985  0.00  0.00    +0.000 C 
ATOM     29  C   UNL     1       0.952   2.321  19.560  0.00  0.00    +0.000 C 
ATOM     30  C   UNL     1       1.978   2.986  18.658  0.00  0.00    +0.000 C 
ENDBRANCH  22  25
ENDBRANCH   7  22
TORSDOF 4
ENDMDL
MODEL 8
REMARK VINA RESULT:      -8.5      1.357      1.848
REMARK  Name = 
REMARK  5 active torsions:
REMARK  status: ('A' for Active; 'I' for Inactive)
REMARK    1  A    between atoms: C_1  and  C_2
REMARK    2  A    between atoms: C_5  and  C_6
REMARK    3  A    between atoms: N_8  and  C_9
REMARK    4  A    between atoms: C_20  and  S_21
REMARK    5  A    between atoms: S_21  and  N_24
REMARK                            x       y       z     vdW  Elec       q    Type
REMARK                         _______ _______ _______ _____ _____    ______ ____
ROOT
ATOM      1  C   UNL     1      -1.132  11.199  22.345  0.00  0.00    +0.000 C 
ATOM      2  C   UNL     1      -0.297  10.240  21.547  0.00  0.00    +0.000 A 
ATOM      3  C   UNL     1       0.107   9.066  22.211  0.00  0.00    +0.000 A 
ATOM      4  C   UNL     1       0.951   8.142  21.601  0.00  0.00    +0.000 A 
ATOM      5  C   UNL     1       1.423   8.358  20.306  0.00  0.00    +0.000 A 
ATOM      6  C   UNL     1       1.031   9.509  19.621  0.00  0.00    +0.000 A 
ATOM      7  C   UNL     1       0.157  10.449  20.226  0.00  0.00    +0.000 A 
ENDROOT
BRANCH   5   8
ATOM      8  C   UNL     1       2.288   7.290  19.726  0.00  0.00    +0.000 C 
ATOM      9  O   UNL     1       2.868   6.540  20.507  0.00  0.00    +0.000 OA
ATOM     10  N   UNL     1       2.398   7.222  18.349  0.00  0.00    +0.000 N 
ATOM     11  H   UNL     1       2.457   8.105  17.858  0.00  0.00    +0.000 HD
BRANCH  10  12
ATOM     12  C   UNL     1       3.205   6.233  17.749  0.00  0.00    +0.000 A 
ATOM     13  N   UNL     1       4.319   6.738  17.174  0.00  0.00    +0.000 NA
ATOM     14  C   UNL     1       5.234   5.845  16.745  0.00  0.00    +0.000 A 
ATOM     15  C   UNL     1       5.072   4.472  16.817  0.00  0.00    +0.000 A 
ATOM     16  C   UNL     1       3.873   3.959  17.322  0.00  0.00    +0.000 A 
ATOM     17  C   UNL     1       3.646   2.570  17.373  0.00  0.00    +0.000 A 
ATOM     18  C   UNL     1       2.438   2.055  17.846  0.00  0.00    +0.000 A 
ATOM     19  C   UNL     1       1.435   2.918  18.259  0.00  0.00    +0.000 A 
ATOM     20  C   UNL     1       1.650   4.296  18.221  0.00  0.00    +0.000 A 
ATOM     21  C   UNL     1       2.883   4.850  17.784  0.00  0.00    +0.000 A 
ENDBRANCH  10  12
ENDBRANCH   5   8
BRANCH   7  22
ATOM     22  S   UNL     1      -0.159  11.954  19.271  0.00  0.00    +0.000 S 
ATOM     23  O   UNL     1      -0.389  13.040  20.198  0.00  0.00    +0.000 OA
ATOM     24  O   UNL     1       0.908  12.037  18.292  0.00  0.00    +0.000 OA
BRANCH  22  25
ATOM     25  N   UNL     1      -1.617  11.660  18.408  0.00  0.00    +0.000 NA
ATOM     26  C   UNL     1      -1.614  10.483  17.508  0.00  0.00    +0.000 C 
ATOM     27  C   UNL     1      -2.955  10.179  16.854  0.00  0.00    +0.000 C 
ATOM     28  C   UNL     1      -4.108  10.282  17.837  0.00  0.00    +0.000 C 
ATOM     29  C   UNL     1      -4.141  11.691  18.392  0.00  0.00    +0.000 C 
ATOM     30  C   UNL     1      -2.854  12.035  19.123  0.00  0.00    +0.000 C 
ENDBRANCH  22  25
ENDBRANCH   7  22
TORSDOF 4
ENDMDL
MODEL 9
REMARK VINA RESULT:      -8.3      3.427      9.136
REMARK  Name = 
REMARK  5 active torsions:
REMARK  status: ('A' for Active; 'I' for Inactive)
REMARK    1  A    between atoms: C_1  and  C_2
REMARK    2  A    between atoms: C_5  and  C_6
REMARK    3  A    between atoms: N_8  and  C_9
REMARK    4  A    between atoms: C_20  and  S_21
REMARK    5  A    between atoms: S_21  and  N_24
REMARK                            x       y       z     vdW  Elec       q    Type
REMARK                         _______ _______ _______ _____ _____    ______ ____
ROOT
ATOM      1  C   UNL     1       3.017   2.682  20.688  0.00  0.00    +0.000 C 
ATOM      2  C   UNL     1       2.859   4.143  20.381  0.00  0.00    +0.000 A 
ATOM      3  C   UNL     1       1.601   4.706  20.666  0.00  0.00    +0.000 A 
ATOM      4  C   UNL     1       1.309   6.029  20.348  0.00  0.00    +0.000 A 
ATOM      5  C   UNL     1       2.263   6.838  19.731  0.00  0.00    +0.000 A 
ATOM      6  C   UNL     1       3.523   6.310  19.446  0.00  0.00    +0.000 A 
ATOM      7  C   UNL     1       3.838   4.967  19.781  0.00  0.00    +0.000 A 
ENDROOT
BRANCH   5   8
ATOM      8  C   UNL     1       1.868   8.252  19.469  0.00  0.00    +0.000 C 
ATOM      9  O   UNL     1       2.309   8.788  18.456  0.00  0.00    +0.000 OA
ATOM     10  N   UNL     1       1.048   8.878  20.389  0.00  0.00    +0.000 N 
ATOM     11  H   UNL     1       1.234   8.682  21.365  0.00  0.00    +0.000 HD
BRANCH  10  12
ATOM     12  C   UNL     1       0.647  10.216  20.191  0.00  0.00    +0.000 A 
ATOM     13  N   UNL     1       1.311  11.089  20.980  0.00  0.00    +0.000 NA
ATOM     14  C   UNL     1       1.125  12.399  20.721  0.00  0.00    +0.000 A 
ATOM     15  C   UNL     1       0.270  12.883  19.744  0.00  0.00    +0.000 A 
ATOM     16  C   UNL     1      -0.489  11.975  19.001  0.00  0.00    +0.000 A 
ATOM     17  C   UNL     1      -1.403  12.423  18.028  0.00  0.00    +0.000 A 
ATOM     18  C   UNL     1      -2.186  11.521  17.306  0.00  0.00    +0.000 A 
ATOM     19  C   UNL     1      -2.079  10.161  17.555  0.00  0.00    +0.000 A 
ATOM     20  C   UNL     1      -1.171   9.704  18.510  0.00  0.00    +0.000 A 
ATOM     21  C   UNL     1      -0.331  10.593  19.233  0.00  0.00    +0.000 A 
ENDBRANCH  10  12
ENDBRANCH   5   8
BRANCH   7  22
ATOM     22  S   UNL     1       5.460   4.381  19.233  0.00  0.00    +0.000 S 
ATOM     23  O   UNL     1       6.476   5.156  19.910  0.00  0.00    +0.000 OA
ATOM     24  O   UNL     1       5.428   2.937  19.366  0.00  0.00    +0.000 OA
BRANCH  22  25
ATOM     25  N   UNL     1       5.540   4.734  17.552  0.00  0.00    +0.000 NA
ATOM     26  C   UNL     1       6.873   5.114  17.031  0.00  0.00    +0.000 C 
ATOM     27  C   UNL     1       6.936   5.300  15.521  0.00  0.00    +0.000 C 
ATOM     28  C   UNL     1       6.204   4.198  14.777  0.00  0.00    +0.000 C 
ATOM     29  C   UNL     1       4.753   4.208  15.212  0.00  0.00    +0.000 C 
ATOM     30  C   UNL     1       4.615   3.956  16.704  0.00  0.00    +0.000 C 
ENDBRANCH  22  25
ENDBRANCH   7  22
TORSDOF 4
ENDMDL
