MODEL 1
REMARK VINA RESULT:      -7.9      0.000      0.000
REMARK  Name = 
REMARK  12 active torsions:
REMARK  status: ('A' for Active; 'I' for Inactive)
REMARK    1  A    between atoms: C_1  and  O_2
REMARK    2  A    between atoms: O_2  and  C_3
REMARK    3  A    between atoms: C_3  and  C_5
REMARK    4  A    between atoms: C_6  and  O_7
REMARK    5  A    between atoms: C_9  and  O_10
REMARK    6  A    between atoms: C_13  and  C_14
REMARK    7  A    between atoms: C_14  and  C_15
REMARK    8  A    between atoms: C_15  and  C_16
REMARK    9  A    between atoms: N_18  and  C_19
REMARK   10  A    between atoms: C_22  and  C_23
REMARK   11  A    between atoms: C_23  and  C_24
REMARK   12  A    between atoms: C_23  and  C_25
REMARK                            x       y       z     vdW  Elec       q    Type
REMARK                         _______ _______ _______ _____ _____    ______ ____
ROOT
ATOM      1  C   UNL     1       2.379   3.394  18.515  0.00  0.00    +0.000 A 
ATOM      2  C   UNL     1       3.252   2.326  18.223  0.00  0.00    +0.000 A 
ATOM      3  C   UNL     1       4.464   2.536  17.572  0.00  0.00    +0.000 A 
ATOM      4  C   UNL     1       4.830   3.825  17.212  0.00  0.00    +0.000 A 
ATOM      5  C   UNL     1       4.005   4.915  17.526  0.00  0.00    +0.000 A 
ATOM      6 CL   UNL     1       4.536   6.506  17.064  0.00  0.00    +0.000 Cl
ATOM      7  C   UNL     1       2.775   4.722  18.201  0.00  0.00    +0.000 A 
ENDROOT
BRANCH   1   8
ATOM      8  C   UNL     1       1.074   3.030  19.138  0.00  0.00    +0.000 C 
ATOM      9  O   UNL     1       0.200   2.428  18.523  0.00  0.00    +0.000 OA
BRANCH   8  11
ATOM     10  C   UNL     1       1.571   2.871  21.444  0.00  0.00    +0.000 C 
ATOM     11  O   UNL     1       0.948   3.571  20.365  0.00  0.00    +0.000 OA
ENDBRANCH   8  11
ENDBRANCH   1   8
BRANCH   2  12
ATOM     12  O   UNL     1       2.985   1.017  18.540  0.00  0.00    +0.000 OA
ATOM     13  H   UNL     1       3.224   0.859  19.481  0.00  0.00    +0.000 HD
ENDBRANCH   2  12
BRANCH   4  14
ATOM     14  O   UNL     1       6.012   4.031  16.553  0.00  0.00    +0.000 OA
ATOM     15  H   UNL     1       6.752   3.737  17.108  0.00  0.00    +0.000 HD
ENDBRANCH   4  14
BRANCH   7  16
ATOM     16  C   UNL     1       1.950   5.926  18.610  0.00  0.00    +0.000 C 
BRANCH  16  17
ATOM     17  C   UNL     1       2.453   6.617  19.882  0.00  0.00    +0.000 C 
BRANCH  17  18
ATOM     18  C   UNL     1       1.820   7.984  20.000  0.00  0.00    +0.000 C 
ATOM     19  O   UNL     1       1.644   8.698  19.017  0.00  0.00    +0.000 OA
ATOM     20  N   UNL     1       1.494   8.308  21.305  0.00  0.00    +0.000 N 
ATOM     21  H   UNL     1       1.867   7.723  22.040  0.00  0.00    +0.000 HD
BRANCH  20  22
ATOM     22  C   UNL     1       0.751   9.435  21.705  0.00  0.00    +0.000 A 
ATOM     23  C   UNL     1       0.850  10.673  21.071  0.00  0.00    +0.000 A 
ATOM     24  C   UNL     1       0.029  11.737  21.448  0.00  0.00    +0.000 A 
ATOM     25  C   UNL     1      -0.908  11.583  22.472  0.00  0.00    +0.000 A 
ATOM     26  C   UNL     1      -0.970  10.354  23.145  0.00  0.00    +0.000 A 
ATOM     27  C   UNL     1      -0.160   9.283  22.753  0.00  0.00    +0.000 A 
BRANCH  25  28
ATOM     28  C   UNL     1      -1.873  12.713  22.774  0.00  0.00    +0.000 C 
ATOM     29  C   UNL     1      -3.070  12.192  23.577  0.00  0.00    +0.000 C 
ATOM     30  C   UNL     1      -1.197  13.881  23.489  0.00  0.00    +0.000 C 
ENDBRANCH  25  28
ENDBRANCH  20  22
ENDBRANCH  17  18
ENDBRANCH  16  17
ENDBRANCH   7  16
TORSDOF 9
ENDMDL
MODEL 2
REMARK VINA RESULT:      -7.7      1.520      3.417
REMARK  Name = 
REMARK  12 active torsions:
REMARK  status: ('A' for Active; 'I' for Inactive)
REMARK    1  A    between atoms: C_1  and  O_2
REMARK    2  A    between atoms: O_2  and  C_3
REMARK    3  A    between atoms: C_3  and  C_5
REMARK    4  A    between atoms: C_6  and  O_7
REMARK    5  A    between atoms: C_9  and  O_10
REMARK    6  A    between atoms: C_13  and  C_14
REMARK    7  A    between atoms: C_14  and  C_15
REMARK    8  A    between atoms: C_15  and  C_16
REMARK    9  A    between atoms: N_18  and  C_19
REMARK   10  A    between atoms: C_22  and  C_23
REMARK   11  A    between atoms: C_23  and  C_24
REMARK   12  A    between atoms: C_23  and  C_25
REMARK                            x       y       z     vdW  Elec       q    Type
REMARK                         _______ _______ _______ _____ _____    ______ ____
ROOT
ATOM      1  C   UNL     1       4.345   5.013  17.105  0.00  0.00    +0.000 A 
ATOM      2  C   UNL     1       4.859   3.742  16.779  0.00  0.00    +0.000 A 
ATOM      3  C   UNL     1       4.264   2.575  17.250  0.00  0.00    +0.000 A 
ATOM      4  C   UNL     1       3.131   2.662  18.048  0.00  0.00    +0.000 A 
ATOM      5  C   UNL     1       2.569   3.909  18.357  0.00  0.00    +0.000 A 
ATOM      6 CL   UNL     1       1.139   3.942  19.345  0.00  0.00    +0.000 Cl
ATOM      7  C   UNL     1       3.153   5.106  17.873  0.00  0.00    +0.000 A 
ENDROOT
BRANCH   1   8
ATOM      8  C   UNL     1       5.120   6.187  16.609  0.00  0.00    +0.000 C 
ATOM      9  O   UNL     1       5.171   6.483  15.421  0.00  0.00    +0.000 OA
BRANCH   8  11
ATOM     10  C   UNL     1       7.258   6.559  17.548  0.00  0.00    +0.000 C 
ATOM     11  O   UNL     1       5.843   6.750  17.597  0.00  0.00    +0.000 OA
ENDBRANCH   8  11
ENDBRANCH   1   8
BRANCH   2  12
ATOM     12  O   UNL     1       5.968   3.548  15.994  0.00  0.00    +0.000 OA
ATOM     13  H   UNL     1       5.971   2.622  15.662  0.00  0.00    +0.000 HD
ENDBRANCH   2  12
BRANCH   4  14
ATOM     14  O   UNL     1       2.558   1.516  18.530  0.00  0.00    +0.000 OA
ATOM     15  H   UNL     1       3.250   0.896  18.810  0.00  0.00    +0.000 HD
ENDBRANCH   4  14
BRANCH   7  16
ATOM     16  C   UNL     1       2.471   6.432  18.144  0.00  0.00    +0.000 C 
BRANCH  16  17
ATOM     17  C   UNL     1       2.504   6.855  19.615  0.00  0.00    +0.000 C 
BRANCH  17  18
ATOM     18  C   UNL     1       1.697   8.120  19.797  0.00  0.00    +0.000 C 
ATOM     19  O   UNL     1       1.290   8.768  18.837  0.00  0.00    +0.000 OA
ATOM     20  N   UNL     1       1.500   8.439  21.129  0.00  0.00    +0.000 N 
ATOM     21  H   UNL     1       2.048   7.940  21.816  0.00  0.00    +0.000 HD
BRANCH  20  22
ATOM     22  C   UNL     1       0.658   9.461  21.609  0.00  0.00    +0.000 A 
ATOM     23  C   UNL     1      -0.268   9.262  22.633  0.00  0.00    +0.000 A 
ATOM     24  C   UNL     1      -1.019  10.328  23.133  0.00  0.00    +0.000 A 
ATOM     25  C   UNL     1      -0.859  11.615  22.615  0.00  0.00    +0.000 A 
ATOM     26  C   UNL     1       0.034  11.802  21.549  0.00  0.00    +0.000 A 
ATOM     27  C   UNL     1       0.799  10.739  21.062  0.00  0.00    +0.000 A 
BRANCH  25  28
ATOM     28  C   UNL     1      -1.592  12.774  23.263  0.00  0.00    +0.000 C 
ATOM     29  C   UNL     1      -1.551  14.006  22.353  0.00  0.00    +0.000 C 
ATOM     30  C   UNL     1      -3.027  12.417  23.642  0.00  0.00    +0.000 C 
ENDBRANCH  25  28
ENDBRANCH  20  22
ENDBRANCH  17  18
ENDBRANCH  16  17
ENDBRANCH   7  16
TORSDOF 9
ENDMDL
MODEL 3
REMARK VINA RESULT:      -7.7      1.624      3.286
REMARK  Name = 
REMARK  12 active torsions:
REMARK  status: ('A' for Active; 'I' for Inactive)
REMARK    1  A    between atoms: C_1  and  O_2
REMARK    2  A    between atoms: O_2  and  C_3
REMARK    3  A    between atoms: C_3  and  C_5
REMARK    4  A    between atoms: C_6  and  O_7
REMARK    5  A    between atoms: C_9  and  O_10
REMARK    6  A    between atoms: C_13  and  C_14
REMARK    7  A    between atoms: C_14  and  C_15
REMARK    8  A    between atoms: C_15  and  C_16
REMARK    9  A    between atoms: N_18  and  C_19
REMARK   10  A    between atoms: C_22  and  C_23
REMARK   11  A    between atoms: C_23  and  C_24
REMARK   12  A    between atoms: C_23  and  C_25
REMARK                            x       y       z     vdW  Elec       q    Type
REMARK                         _______ _______ _______ _____ _____    ______ ____
ROOT
ATOM      1  C   UNL     1       4.336   4.926  17.713  0.00  0.00    +0.000 A 
ATOM      2  C   UNL     1       4.492   3.629  17.184  0.00  0.00    +0.000 A 
ATOM      3  C   UNL     1       3.662   2.582  17.575  0.00  0.00    +0.000 A 
ATOM      4  C   UNL     1       2.651   2.820  18.495  0.00  0.00    +0.000 A 
ATOM      5  C   UNL     1       2.442   4.108  19.008  0.00  0.00    +0.000 A 
ATOM      6 CL   UNL     1       1.143   4.338  20.142  0.00  0.00    +0.000 Cl
ATOM      7  C   UNL     1       3.267   5.189  18.611  0.00  0.00    +0.000 A 
ENDROOT
BRANCH   1   8
ATOM      8  C   UNL     1       5.340   5.942  17.280  0.00  0.00    +0.000 C 
ATOM      9  O   UNL     1       5.386   6.368  16.131  0.00  0.00    +0.000 OA
BRANCH   8  11
ATOM     10  C   UNL     1       7.423   5.390  18.252  0.00  0.00    +0.000 C 
ATOM     11  O   UNL     1       6.238   6.189  18.253  0.00  0.00    +0.000 OA
ENDBRANCH   8  11
ENDBRANCH   1   8
BRANCH   2  12
ATOM     12  O   UNL     1       5.455   3.292  16.267  0.00  0.00    +0.000 OA
ATOM     13  H   UNL     1       5.081   3.374  15.361  0.00  0.00    +0.000 HD
ENDBRANCH   2  12
BRANCH   4  14
ATOM     14  O   UNL     1       1.848   1.786  18.896  0.00  0.00    +0.000 OA
ATOM     15  H   UNL     1       1.414   1.389  18.123  0.00  0.00    +0.000 HD
ENDBRANCH   4  14
BRANCH   7  16
ATOM     16  C   UNL     1       2.958   6.587  19.109  0.00  0.00    +0.000 C 
BRANCH  16  17
ATOM     17  C   UNL     1       2.256   7.471  18.074  0.00  0.00    +0.000 C 
BRANCH  17  18
ATOM     18  C   UNL     1       1.801   8.754  18.729  0.00  0.00    +0.000 C 
ATOM     19  O   UNL     1       1.812   9.824  18.126  0.00  0.00    +0.000 OA
ATOM     20  N   UNL     1       1.400   8.569  20.041  0.00  0.00    +0.000 N 
ATOM     21  H   UNL     1       1.623   7.686  20.478  0.00  0.00    +0.000 HD
BRANCH  20  22
ATOM     22  C   UNL     1       0.779   9.539  20.849  0.00  0.00    +0.000 A 
ATOM     23  C   UNL     1       0.679  10.881  20.483  0.00  0.00    +0.000 A 
ATOM     24  C   UNL     1      -0.023  11.789  21.278  0.00  0.00    +0.000 A 
ATOM     25  C   UNL     1      -0.639  11.370  22.460  0.00  0.00    +0.000 A 
ATOM     26  C   UNL     1      -0.493  10.032  22.854  0.00  0.00    +0.000 A 
ATOM     27  C   UNL     1       0.194   9.120  22.047  0.00  0.00    +0.000 A 
BRANCH  25  28
ATOM     28  C   UNL     1      -1.502  12.347  23.236  0.00  0.00    +0.000 C 
ATOM     29  C   UNL     1      -1.009  13.781  23.020  0.00  0.00    +0.000 C 
ATOM     30  C   UNL     1      -2.984  12.215  22.893  0.00  0.00    +0.000 C 
ENDBRANCH  25  28
ENDBRANCH  20  22
ENDBRANCH  17  18
ENDBRANCH  16  17
ENDBRANCH   7  16
TORSDOF 9
ENDMDL
MODEL 4
REMARK VINA RESULT:      -7.4      1.859      3.432
REMARK  Name = 
REMARK  12 active torsions:
REMARK  status: ('A' for Active; 'I' for Inactive)
REMARK    1  A    between atoms: C_1  and  O_2
REMARK    2  A    between atoms: O_2  and  C_3
REMARK    3  A    between atoms: C_3  and  C_5
REMARK    4  A    between atoms: C_6  and  O_7
REMARK    5  A    between atoms: C_9  and  O_10
REMARK    6  A    between atoms: C_13  and  C_14
REMARK    7  A    between atoms: C_14  and  C_15
REMARK    8  A    between atoms: C_15  and  C_16
REMARK    9  A    between atoms: N_18  and  C_19
REMARK   10  A    between atoms: C_22  and  C_23
REMARK   11  A    between atoms: C_23  and  C_24
REMARK   12  A    between atoms: C_23  and  C_25
REMARK                            x       y       z     vdW  Elec       q    Type
REMARK                         _______ _______ _______ _____ _____    ______ ____
ROOT
ATOM      1  C   UNL     1       3.976   4.079  18.421  0.00  0.00    +0.000 A 
ATOM      2  C   UNL     1       3.565   2.732  18.485  0.00  0.00    +0.000 A 
ATOM      3  C   UNL     1       2.498   2.336  19.286  0.00  0.00    +0.000 A 
ATOM      4  C   UNL     1       1.814   3.287  20.030  0.00  0.00    +0.000 A 
ATOM      5  C   UNL     1       2.171   4.641  19.957  0.00  0.00    +0.000 A 
ATOM      6 CL   UNL     1       1.257   5.781  20.901  0.00  0.00    +0.000 Cl
ATOM      7  C   UNL     1       3.244   5.065  19.136  0.00  0.00    +0.000 A 
ENDROOT
BRANCH   1   8
ATOM      8  C   UNL     1       5.184   4.363  17.594  0.00  0.00    +0.000 C 
ATOM      9  O   UNL     1       5.140   4.419  16.370  0.00  0.00    +0.000 OA
BRANCH   8  11
ATOM     10  C   UNL     1       7.530   4.651  17.667  0.00  0.00    +0.000 C 
ATOM     11  O   UNL     1       6.300   4.394  18.348  0.00  0.00    +0.000 OA
ENDBRANCH   8  11
ENDBRANCH   1   8
BRANCH   2  12
ATOM     12  O   UNL     1       4.171   1.718  17.785  0.00  0.00    +0.000 OA
ATOM     13  H   UNL     1       5.073   2.004  17.519  0.00  0.00    +0.000 HD
ENDBRANCH   2  12
BRANCH   4  14
ATOM     14  O   UNL     1       0.779   2.895  20.835  0.00  0.00    +0.000 OA
ATOM     15  H   UNL     1       0.598   1.951  20.700  0.00  0.00    +0.000 HD
ENDBRANCH   4  14
BRANCH   7  16
ATOM     16  C   UNL     1       3.545   6.544  19.004  0.00  0.00    +0.000 C 
BRANCH  16  17
ATOM     17  C   UNL     1       2.940   7.189  17.753  0.00  0.00    +0.000 C 
BRANCH  17  18
ATOM     18  C   UNL     1       2.271   8.491  18.127  0.00  0.00    +0.000 C 
ATOM     19  O   UNL     1       2.341   9.481  17.405  0.00  0.00    +0.000 OA
ATOM     20  N   UNL     1       1.611   8.421  19.341  0.00  0.00    +0.000 N 
ATOM     21  H   UNL     1       1.792   7.617  19.927  0.00  0.00    +0.000 HD
BRANCH  20  22
ATOM     22  C   UNL     1       0.767   9.416  19.872  0.00  0.00    +0.000 A 
ATOM     23  C   UNL     1       0.923   9.936  21.156  0.00  0.00    +0.000 A 
ATOM     24  C   UNL     1       0.116  10.984  21.605  0.00  0.00    +0.000 A 
ATOM     25  C   UNL     1      -0.866  11.530  20.776  0.00  0.00    +0.000 A 
ATOM     26  C   UNL     1      -1.057  10.970  19.504  0.00  0.00    +0.000 A 
ATOM     27  C   UNL     1      -0.235   9.934  19.048  0.00  0.00    +0.000 A 
BRANCH  25  28
ATOM     28  C   UNL     1      -1.639  12.749  21.241  0.00  0.00    +0.000 C 
ATOM     29  C   UNL     1      -2.298  12.476  22.597  0.00  0.00    +0.000 C 
ATOM     30  C   UNL     1      -0.772  14.005  21.292  0.00  0.00    +0.000 C 
ENDBRANCH  25  28
ENDBRANCH  20  22
ENDBRANCH  17  18
ENDBRANCH  16  17
ENDBRANCH   7  16
TORSDOF 9
ENDMDL
MODEL 5
REMARK VINA RESULT:      -7.4      1.980      3.681
REMARK  Name = 
REMARK  12 active torsions:
REMARK  status: ('A' for Active; 'I' for Inactive)
REMARK    1  A    between atoms: C_1  and  O_2
REMARK    2  A    between atoms: O_2  and  C_3
REMARK    3  A    between atoms: C_3  and  C_5
REMARK    4  A    between atoms: C_6  and  O_7
REMARK    5  A    between atoms: C_9  and  O_10
REMARK    6  A    between atoms: C_13  and  C_14
REMARK    7  A    between atoms: C_14  and  C_15
REMARK    8  A    between atoms: C_15  and  C_16
REMARK    9  A    between atoms: N_18  and  C_19
REMARK   10  A    between atoms: C_22  and  C_23
REMARK   11  A    between atoms: C_23  and  C_24
REMARK   12  A    between atoms: C_23  and  C_25
REMARK                            x       y       z     vdW  Elec       q    Type
REMARK                         _______ _______ _______ _____ _____    ______ ____
ROOT
ATOM      1  C   UNL     1       4.730   5.339  17.167  0.00  0.00    +0.000 A 
ATOM      2  C   UNL     1       4.779   3.941  16.988  0.00  0.00    +0.000 A 
ATOM      3  C   UNL     1       4.018   3.082  17.775  0.00  0.00    +0.000 A 
ATOM      4  C   UNL     1       3.183   3.609  18.750  0.00  0.00    +0.000 A 
ATOM      5  C   UNL     1       3.079   4.997  18.925  0.00  0.00    +0.000 A 
ATOM      6 CL   UNL     1       1.997   5.590  20.152  0.00  0.00    +0.000 Cl
ATOM      7  C   UNL     1       3.834   5.887  18.123  0.00  0.00    +0.000 A 
ENDROOT
BRANCH   1   8
ATOM      8  C   UNL     1       5.655   6.147  16.319  0.00  0.00    +0.000 C 
ATOM      9  O   UNL     1       5.269   6.759  15.330  0.00  0.00    +0.000 OA
BRANCH   8  11
ATOM     10  C   UNL     1       7.425   6.865  17.713  0.00  0.00    +0.000 C 
ATOM     11  O   UNL     1       6.937   5.983  16.699  0.00  0.00    +0.000 OA
ENDBRANCH   8  11
ENDBRANCH   1   8
BRANCH   2  12
ATOM     12  O   UNL     1       5.567   3.321  16.050  0.00  0.00    +0.000 OA
ATOM     13  H   UNL     1       5.816   2.428  16.378  0.00  0.00    +0.000 HD
ENDBRANCH   2  12
BRANCH   4  14
ATOM     14  O   UNL     1       2.450   2.764  19.539  0.00  0.00    +0.000 OA
ATOM     15  H   UNL     1       1.656   3.222  19.859  0.00  0.00    +0.000 HD
ENDBRANCH   4  14
BRANCH   7  16
ATOM     16  C   UNL     1       3.631   7.382  18.271  0.00  0.00    +0.000 C 
BRANCH  16  17
ATOM     17  C   UNL     1       2.466   7.932  17.441  0.00  0.00    +0.000 C 
BRANCH  17  18
ATOM     18  C   UNL     1       1.944   9.199  18.079  0.00  0.00    +0.000 C 
ATOM     19  O   UNL     1       2.224  10.307  17.630  0.00  0.00    +0.000 OA
ATOM     20  N   UNL     1       1.157   8.951  19.189  0.00  0.00    +0.000 N 
ATOM     21  H   UNL     1       1.165   8.014  19.569  0.00  0.00    +0.000 HD
BRANCH  20  22
ATOM     22  C   UNL     1       0.405   9.914  19.889  0.00  0.00    +0.000 A 
ATOM     23  C   UNL     1       0.746  10.362  21.165  0.00  0.00    +0.000 A 
ATOM     24  C   UNL     1       0.020  11.381  21.782  0.00  0.00    +0.000 A 
ATOM     25  C   UNL     1      -1.067  11.973  21.134  0.00  0.00    +0.000 A 
ATOM     26  C   UNL     1      -1.442  11.485  19.873  0.00  0.00    +0.000 A 
ATOM     27  C   UNL     1      -0.701  10.477  19.248  0.00  0.00    +0.000 A 
BRANCH  25  28
ATOM     28  C   UNL     1      -1.757  13.163  21.772  0.00  0.00    +0.000 C 
ATOM     29  C   UNL     1      -3.271  13.084  21.549  0.00  0.00    +0.000 C 
ATOM     30  C   UNL     1      -1.426  13.301  23.256  0.00  0.00    +0.000 C 
ENDBRANCH  25  28
ENDBRANCH  20  22
ENDBRANCH  17  18
ENDBRANCH  16  17
ENDBRANCH   7  16
TORSDOF 9
ENDMDL
MODEL 6
REMARK VINA RESULT:      -7.4      2.156      3.687
REMARK  Name = 
REMARK  12 active torsions:
REMARK  status: ('A' for Active; 'I' for Inactive)
REMARK    1  A    between atoms: C_1  and  O_2
REMARK    2  A    between atoms: O_2  and  C_3
REMARK    3  A    between atoms: C_3  and  C_5
REMARK    4  A    between atoms: C_6  and  O_7
REMARK    5  A    between atoms: C_9  and  O_10
REMARK    6  A    between atoms: C_13  and  C_14
REMARK    7  A    between atoms: C_14  and  C_15
REMARK    8  A    between atoms: C_15  and  C_16
REMARK    9  A    between atoms: N_18  and  C_19
REMARK   10  A    between atoms: C_22  and  C_23
REMARK   11  A    between atoms: C_23  and  C_24
REMARK   12  A    between atoms: C_23  and  C_25
REMARK                            x       y       z     vdW  Elec       q    Type
REMARK                         _______ _______ _______ _____ _____    ______ ____
ROOT
ATOM      1  C   UNL     1       4.409   4.399  19.543  0.00  0.00    +0.000 A 
ATOM      2  C   UNL     1       4.201   3.028  19.797  0.00  0.00    +0.000 A 
ATOM      3  C   UNL     1       2.998   2.561  20.319  0.00  0.00    +0.000 A 
ATOM      4  C   UNL     1       1.975   3.460  20.585  0.00  0.00    +0.000 A 
ATOM      5  C   UNL     1       2.134   4.825  20.304  0.00  0.00    +0.000 A 
ATOM      6 CL   UNL     1       0.803   5.892  20.643  0.00  0.00    +0.000 Cl
ATOM      7  C   UNL     1       3.346   5.316  19.759  0.00  0.00    +0.000 A 
ENDROOT
BRANCH   1   8
ATOM      8  C   UNL     1       5.768   4.784  19.064  0.00  0.00    +0.000 C 
ATOM      9  O   UNL     1       6.586   5.337  19.792  0.00  0.00    +0.000 OA
BRANCH   8  11
ATOM     10  C   UNL     1       7.221   4.641  17.204  0.00  0.00    +0.000 C 
ATOM     11  O   UNL     1       5.897   4.583  17.738  0.00  0.00    +0.000 OA
ENDBRANCH   8  11
ENDBRANCH   1   8
BRANCH   2  12
ATOM     12  O   UNL     1       5.145   2.059  19.564  0.00  0.00    +0.000 OA
ATOM     13  H   UNL     1       6.021   2.381  19.876  0.00  0.00    +0.000 HD
ENDBRANCH   2  12
BRANCH   4  14
ATOM     14  O   UNL     1       0.799   3.005  21.118  0.00  0.00    +0.000 OA
ATOM     15  H   UNL     1       0.912   2.091  21.427  0.00  0.00    +0.000 HD
ENDBRANCH   4  14
BRANCH   7  16
ATOM     16  C   UNL     1       3.454   6.779  19.378  0.00  0.00    +0.000 C 
BRANCH  16  17
ATOM     17  C   UNL     1       2.757   7.128  18.060  0.00  0.00    +0.000 C 
BRANCH  17  18
ATOM     18  C   UNL     1       2.131   8.500  18.165  0.00  0.00    +0.000 C 
ATOM     19  O   UNL     1       2.276   9.343  17.284  0.00  0.00    +0.000 OA
ATOM     20  N   UNL     1       1.418   8.671  19.338  0.00  0.00    +0.000 N 
ATOM     21  H   UNL     1       1.538   7.978  20.065  0.00  0.00    +0.000 HD
BRANCH  20  22
ATOM     22  C   UNL     1       0.598   9.774  19.643  0.00  0.00    +0.000 A 
ATOM     23  C   UNL     1      -0.538  10.101  18.904  0.00  0.00    +0.000 A 
ATOM     24  C   UNL     1      -1.368  11.154  19.297  0.00  0.00    +0.000 A 
ATOM     25  C   UNL     1      -1.074  11.902  20.439  0.00  0.00    +0.000 A 
ATOM     26  C   UNL     1       0.098  11.606  21.151  0.00  0.00    +0.000 A 
ATOM     27  C   UNL     1       0.918  10.540  20.767  0.00  0.00    +0.000 A 
BRANCH  25  28
ATOM     28  C   UNL     1      -2.058  12.953  20.914  0.00  0.00    +0.000 C 
ATOM     29  C   UNL     1      -2.391  12.741  22.394  0.00  0.00    +0.000 C 
ATOM     30  C   UNL     1      -1.561  14.374  20.659  0.00  0.00    +0.000 C 
ENDBRANCH  25  28
ENDBRANCH  20  22
ENDBRANCH  17  18
ENDBRANCH  16  17
ENDBRANCH   7  16
TORSDOF 9
ENDMDL
MODEL 7
REMARK VINA RESULT:      -7.4      2.014      3.666
REMARK  Name = 
REMARK  12 active torsions:
REMARK  status: ('A' for Active; 'I' for Inactive)
REMARK    1  A    between atoms: C_1  and  O_2
REMARK    2  A    between atoms: O_2  and  C_3
REMARK    3  A    between atoms: C_3  and  C_5
REMARK    4  A    between atoms: C_6  and  O_7
REMARK    5  A    between atoms: C_9  and  O_10
REMARK    6  A    between atoms: C_13  and  C_14
REMARK    7  A    between atoms: C_14  and  C_15
REMARK    8  A    between atoms: C_15  and  C_16
REMARK    9  A    between atoms: N_18  and  C_19
REMARK   10  A    between atoms: C_22  and  C_23
REMARK   11  A    between atoms: C_23  and  C_24
REMARK   12  A    between atoms: C_23  and  C_25
REMARK                            x       y       z     vdW  Elec       q    Type
REMARK                         _______ _______ _______ _____ _____    ______ ____
ROOT
ATOM      1  C   UNL     1       4.602   5.260  17.397  0.00  0.00    +0.000 A 
ATOM      2  C   UNL     1       4.747   3.893  17.085  0.00  0.00    +0.000 A 
ATOM      3  C   UNL     1       3.969   2.920  17.707  0.00  0.00    +0.000 A 
ATOM      4  C   UNL     1       3.021   3.302  18.645  0.00  0.00    +0.000 A 
ATOM      5  C   UNL     1       2.822   4.658  18.947  0.00  0.00    +0.000 A 
ATOM      6 CL   UNL     1       1.602   5.066  20.118  0.00  0.00    +0.000 Cl
ATOM      7  C   UNL     1       3.594   5.662  18.314  0.00  0.00    +0.000 A 
ENDROOT
BRANCH   1   8
ATOM      8  C   UNL     1       5.551   6.196  16.726  0.00  0.00    +0.000 C 
ATOM      9  O   UNL     1       5.290   6.737  15.657  0.00  0.00    +0.000 OA
BRANCH   8  11
ATOM     10  C   UNL     1       7.377   7.506  17.461  0.00  0.00    +0.000 C 
ATOM     11  O   UNL     1       6.737   6.232  17.364  0.00  0.00    +0.000 OA
ENDBRANCH   8  11
ENDBRANCH   1   8
BRANCH   2  12
ATOM     12  O   UNL     1       5.650   3.413  16.169  0.00  0.00    +0.000 OA
ATOM     13  H   UNL     1       6.171   4.164  15.806  0.00  0.00    +0.000 HD
ENDBRANCH   2  12
BRANCH   4  14
ATOM     14  O   UNL     1       2.270   2.345  19.273  0.00  0.00    +0.000 OA
ATOM     15  H   UNL     1       2.736   1.493  19.246  0.00  0.00    +0.000 HD
ENDBRANCH   4  14
BRANCH   7  16
ATOM     16  C   UNL     1       3.292   7.121  18.590  0.00  0.00    +0.000 C 
BRANCH  16  17
ATOM     17  C   UNL     1       2.342   7.759  17.571  0.00  0.00    +0.000 C 
BRANCH  17  18
ATOM     18  C   UNL     1       1.873   9.101  18.086  0.00  0.00    +0.000 C 
ATOM     19  O   UNL     1       2.250  10.152  17.578  0.00  0.00    +0.000 OA
ATOM     20  N   UNL     1       1.012   8.986  19.164  0.00  0.00    +0.000 N 
ATOM     21  H   UNL     1       0.937   8.081  19.609  0.00  0.00    +0.000 HD
BRANCH  20  22
ATOM     22  C   UNL     1       0.291  10.044  19.749  0.00  0.00    +0.000 A 
ATOM     23  C   UNL     1      -0.811  10.640  19.137  0.00  0.00    +0.000 A 
ATOM     24  C   UNL     1      -1.546  11.627  19.796  0.00  0.00    +0.000 A 
ATOM     25  C   UNL     1      -1.191  12.038  21.083  0.00  0.00    +0.000 A 
ATOM     26  C   UNL     1      -0.051  11.475  21.676  0.00  0.00    +0.000 A 
ATOM     27  C   UNL     1       0.673  10.473  21.023  0.00  0.00    +0.000 A 
BRANCH  25  28
ATOM     28  C   UNL     1      -2.081  13.017  21.824  0.00  0.00    +0.000 C 
ATOM     29  C   UNL     1      -1.544  13.261  23.238  0.00  0.00    +0.000 C 
ATOM     30  C   UNL     1      -2.259  14.331  21.068  0.00  0.00    +0.000 C 
ENDBRANCH  25  28
ENDBRANCH  20  22
ENDBRANCH  17  18
ENDBRANCH  16  17
ENDBRANCH   7  16
TORSDOF 9
ENDMDL
MODEL 8
REMARK VINA RESULT:      -7.4      1.609      3.345
REMARK  Name = 
REMARK  12 active torsions:
REMARK  status: ('A' for Active; 'I' for Inactive)
REMARK    1  A    between atoms: C_1  and  O_2
REMARK    2  A    between atoms: O_2  and  C_3
REMARK    3  A    between atoms: C_3  and  C_5
REMARK    4  A    between atoms: C_6  and  O_7
REMARK    5  A    between atoms: C_9  and  O_10
REMARK    6  A    between atoms: C_13  and  C_14
REMARK    7  A    between atoms: C_14  and  C_15
REMARK    8  A    between atoms: C_15  and  C_16
REMARK    9  A    between atoms: N_18  and  C_19
REMARK   10  A    between atoms: C_22  and  C_23
REMARK   11  A    between atoms: C_23  and  C_24
REMARK   12  A    between atoms: C_23  and  C_25
REMARK                            x       y       z     vdW  Elec       q    Type
REMARK                         _______ _______ _______ _____ _____    ______ ____
ROOT
ATOM      1  C   UNL     1       4.375   4.956  17.270  0.00  0.00    +0.000 A 
ATOM      2  C   UNL     1       4.816   3.654  16.957  0.00  0.00    +0.000 A 
ATOM      3  C   UNL     1       4.118   2.529  17.384  0.00  0.00    +0.000 A 
ATOM      4  C   UNL     1       2.954   2.687  18.123  0.00  0.00    +0.000 A 
ATOM      5  C   UNL     1       2.464   3.969  18.416  0.00  0.00    +0.000 A 
ATOM      6 CL   UNL     1       0.989   4.094  19.329  0.00  0.00    +0.000 Cl
ATOM      7  C   UNL     1       3.154   5.126  17.977  0.00  0.00    +0.000 A 
ENDROOT
BRANCH   1   8
ATOM      8  C   UNL     1       5.254   6.077  16.829  0.00  0.00    +0.000 C 
ATOM      9  O   UNL     1       5.043   6.708  15.800  0.00  0.00    +0.000 OA
BRANCH   8  11
ATOM     10  C   UNL     1       7.182   7.321  17.401  0.00  0.00    +0.000 C 
ATOM     11  O   UNL     1       6.345   6.182  17.613  0.00  0.00    +0.000 OA
ENDBRANCH   8  11
ENDBRANCH   1   8
BRANCH   2  12
ATOM     12  O   UNL     1       5.949   3.390  16.229  0.00  0.00    +0.000 OA
ATOM     13  H   UNL     1       5.862   2.506  15.806  0.00  0.00    +0.000 HD
ENDBRANCH   2  12
BRANCH   4  14
ATOM     14  O   UNL     1       2.277   1.581  18.561  0.00  0.00    +0.000 OA
ATOM     15  H   UNL     1       2.847   1.062  19.153  0.00  0.00    +0.000 HD
ENDBRANCH   4  14
BRANCH   7  16
ATOM     16  C   UNL     1       2.551   6.494  18.227  0.00  0.00    +0.000 C 
BRANCH  16  17
ATOM     17  C   UNL     1       2.394   6.838  19.711  0.00  0.00    +0.000 C 
BRANCH  17  18
ATOM     18  C   UNL     1       1.778   8.211  19.850  0.00  0.00    +0.000 C 
ATOM     19  O   UNL     1       1.877   9.054  18.962  0.00  0.00    +0.000 OA
ATOM     20  N   UNL     1       1.130   8.384  21.060  0.00  0.00    +0.000 N 
ATOM     21  H   UNL     1       1.288   7.691  21.779  0.00  0.00    +0.000 HD
BRANCH  20  22
ATOM     22  C   UNL     1       0.330   9.489  21.408  0.00  0.00    +0.000 A 
ATOM     23  C   UNL     1      -0.129  10.417  20.474  0.00  0.00    +0.000 A 
ATOM     24  C   UNL     1      -0.991  11.447  20.855  0.00  0.00    +0.000 A 
ATOM     25  C   UNL     1      -1.411  11.569  22.181  0.00  0.00    +0.000 A 
ATOM     26  C   UNL     1      -0.906  10.667  23.129  0.00  0.00    +0.000 A 
ATOM     27  C   UNL     1      -0.058   9.624  22.744  0.00  0.00    +0.000 A 
BRANCH  25  28
ATOM     28  C   UNL     1      -2.446  12.617  22.541  0.00  0.00    +0.000 C 
ATOM     29  C   UNL     1      -3.332  12.929  21.330  0.00  0.00    +0.000 C 
ATOM     30  C   UNL     1      -3.288  12.213  23.750  0.00  0.00    +0.000 C 
ENDBRANCH  25  28
ENDBRANCH  20  22
ENDBRANCH  17  18
ENDBRANCH  16  17
ENDBRANCH   7  16
TORSDOF 9
ENDMDL
MODEL 9
REMARK VINA RESULT:      -7.3      1.773      3.352
REMARK  Name = 
REMARK  12 active torsions:
REMARK  status: ('A' for Active; 'I' for Inactive)
REMARK    1  A    between atoms: C_1  and  O_2
REMARK    2  A    between atoms: O_2  and  C_3
REMARK    3  A    between atoms: C_3  and  C_5
REMARK    4  A    between atoms: C_6  and  O_7
REMARK    5  A    between atoms: C_9  and  O_10
REMARK    6  A    between atoms: C_13  and  C_14
REMARK    7  A    between atoms: C_14  and  C_15
REMARK    8  A    between atoms: C_15  and  C_16
REMARK    9  A    between atoms: N_18  and  C_19
REMARK   10  A    between atoms: C_22  and  C_23
REMARK   11  A    between atoms: C_23  and  C_24
REMARK   12  A    between atoms: C_23  and  C_25
REMARK                            x       y       z     vdW  Elec       q    Type
REMARK                         _______ _______ _______ _____ _____    ______ ____
ROOT
ATOM      1  C   UNL     1       4.153   4.920  17.992  0.00  0.00    +0.000 A 
ATOM      2  C   UNL     1       4.279   3.584  17.561  0.00  0.00    +0.000 A 
ATOM      3  C   UNL     1       3.414   2.592  18.013  0.00  0.00    +0.000 A 
ATOM      4  C   UNL     1       2.396   2.924  18.896  0.00  0.00    +0.000 A 
ATOM      5  C   UNL     1       2.218   4.252  19.311  0.00  0.00    +0.000 A 
ATOM      6 CL   UNL     1       0.910   4.600  20.404  0.00  0.00    +0.000 Cl
ATOM      7  C   UNL     1       3.079   5.277  18.851  0.00  0.00    +0.000 A 
ENDROOT
BRANCH   1   8
ATOM      8  C   UNL     1       5.192   5.873  17.503  0.00  0.00    +0.000 C 
ATOM      9  O   UNL     1       5.203   6.296  16.353  0.00  0.00    +0.000 OA
BRANCH   8  11
ATOM     10  C   UNL     1       7.465   5.603  18.096  0.00  0.00    +0.000 C 
ATOM     11  O   UNL     1       6.154   6.066  18.427  0.00  0.00    +0.000 OA
ENDBRANCH   8  11
ENDBRANCH   1   8
BRANCH   2  12
ATOM     12  O   UNL     1       5.246   3.154  16.686  0.00  0.00    +0.000 OA
ATOM     13  H   UNL     1       5.410   2.196  16.833  0.00  0.00    +0.000 HD
ENDBRANCH   2  12
BRANCH   4  14
ATOM     14  O   UNL     1       1.558   1.945  19.358  0.00  0.00    +0.000 OA
ATOM     15  H   UNL     1       1.218   1.426  18.610  0.00  0.00    +0.000 HD
ENDBRANCH   4  14
BRANCH   7  16
ATOM     16  C   UNL     1       2.804   6.716  19.241  0.00  0.00    +0.000 C 
BRANCH  16  17
ATOM     17  C   UNL     1       2.436   7.618  18.059  0.00  0.00    +0.000 C 
BRANCH  17  18
ATOM     18  C   UNL     1       1.749   8.864  18.567  0.00  0.00    +0.000 C 
ATOM     19  O   UNL     1       1.701   9.891  17.896  0.00  0.00    +0.000 OA
ATOM     20  N   UNL     1       1.219   8.700  19.834  0.00  0.00    +0.000 N 
ATOM     21  H   UNL     1       1.495   7.879  20.355  0.00  0.00    +0.000 HD
BRANCH  20  22
ATOM     22  C   UNL     1       0.389   9.624  20.498  0.00  0.00    +0.000 A 
ATOM     23  C   UNL     1       0.436   9.832  21.876  0.00  0.00    +0.000 A 
ATOM     24  C   UNL     1      -0.346  10.821  22.476  0.00  0.00    +0.000 A 
ATOM     25  C   UNL     1      -1.194  11.621  21.706  0.00  0.00    +0.000 A 
ATOM     26  C   UNL     1      -1.280  11.375  20.328  0.00  0.00    +0.000 A 
ATOM     27  C   UNL     1      -0.482  10.397  19.726  0.00  0.00    +0.000 A 
BRANCH  25  28
ATOM     28  C   UNL     1      -1.933  12.770  22.365  0.00  0.00    +0.000 C 
ATOM     29  C   UNL     1      -3.115  12.243  23.185  0.00  0.00    +0.000 C 
ATOM     30  C   UNL     1      -1.015  13.641  23.218  0.00  0.00    +0.000 C 
ENDBRANCH  25  28
ENDBRANCH  20  22
ENDBRANCH  17  18
ENDBRANCH  16  17
ENDBRANCH   7  16
TORSDOF 9
ENDMDL
