MODEL 1
REMARK VINA RESULT:      -7.9      0.000      0.000
REMARK  Name = 
REMARK  5 active torsions:
REMARK  status: ('A' for Active; 'I' for Inactive)
REMARK    1  A    between atoms: C_1  and  O_2
REMARK    2  A    between atoms: O_2  and  C_3
REMARK    3  A    between atoms: C_7  and  C_8
REMARK    4  A    between atoms: C_8  and  O_9
REMARK    5  A    between atoms: O_9  and  C_10
REMARK                            x       y       z     vdW  Elec       q    Type
REMARK                         _______ _______ _______ _____ _____    ______ ____
ROOT
ATOM      1  C   UNL     1       6.541   4.498  14.486  0.00  0.00    +0.000 A 
ATOM      2  C   UNL     1       5.157   4.368  14.620  0.00  0.00    +0.000 A 
ATOM      3  C   UNL     1       4.536   4.500  15.870  0.00  0.00    +0.000 A 
ATOM      4  C   UNL     1       5.290   4.775  17.016  0.00  0.00    +0.000 A 
ATOM      5  C   UNL     1       4.719   4.973  18.356  0.00  0.00    +0.000 A 
ATOM      6  C   UNL     1       5.561   5.206  19.377  0.00  0.00    +0.000 A 
ATOM      7  C   UNL     1       7.021   5.267  19.233  0.00  0.00    +0.000 A 
ATOM      8  O   UNL     1       7.738   5.460  20.207  0.00  0.00    +0.000 OA
ATOM      9  O   UNL     1       7.526   5.125  17.954  0.00  0.00    +0.000 OA
ATOM     10  C   UNL     1       6.674   4.880  16.859  0.00  0.00    +0.000 A 
ATOM     11  C   UNL     1       7.307   4.750  15.618  0.00  0.00    +0.000 A 
ENDROOT
BRANCH   1  13
ATOM     12  C   UNL     1       6.287   3.489  12.350  0.00  0.00    +0.000 C 
ATOM     13  O   UNL     1       7.017   4.356  13.211  0.00  0.00    +0.000 OA
ENDBRANCH   1  13
BRANCH   5  14
ATOM     14  C   UNL     1       3.231   4.981  18.579  0.00  0.00    +0.000 C 
BRANCH  14  15
ATOM     15  O   UNL     1       2.941   5.856  19.667  0.00  0.00    +0.000 OA
BRANCH  15  16
ATOM     16  C   UNL     1       2.399   7.073  19.353  0.00  0.00    +0.000 A 
ATOM     17  C   UNL     1       2.426   7.681  18.096  0.00  0.00    +0.000 A 
ATOM     18  C   UNL     1       1.803   8.915  17.895  0.00  0.00    +0.000 A 
ATOM     19  C   UNL     1       1.153   9.552  18.950  0.00  0.00    +0.000 A 
ATOM     20  C   UNL     1       1.137   8.955  20.209  0.00  0.00    +0.000 A 
ATOM     21  I   UNL     1       0.171   9.903  21.787  0.00  0.00    +0.000 I 
ATOM     22  C   UNL     1       1.758   7.722  20.414  0.00  0.00    +0.000 A 
ENDBRANCH  15  16
ENDBRANCH  14  15
ENDBRANCH   5  14
TORSDOF 4
ENDMDL
MODEL 2
REMARK VINA RESULT:      -7.5      2.345      4.085
REMARK  Name = 
REMARK  5 active torsions:
REMARK  status: ('A' for Active; 'I' for Inactive)
REMARK    1  A    between atoms: C_1  and  O_2
REMARK    2  A    between atoms: O_2  and  C_3
REMARK    3  A    between atoms: C_7  and  C_8
REMARK    4  A    between atoms: C_8  and  O_9
REMARK    5  A    between atoms: O_9  and  C_10
REMARK                            x       y       z     vdW  Elec       q    Type
REMARK                         _______ _______ _______ _____ _____    ______ ____
ROOT
ATOM      1  C   UNL     1       4.783   4.646  16.883  0.00  0.00    +0.000 A 
ATOM      2  C   UNL     1       4.506   6.014  16.894  0.00  0.00    +0.000 A 
ATOM      3  C   UNL     1       3.645   6.571  17.851  0.00  0.00    +0.000 A 
ATOM      4  C   UNL     1       3.049   5.766  18.828  0.00  0.00    +0.000 A 
ATOM      5  C   UNL     1       2.170   6.269  19.894  0.00  0.00    +0.000 A 
ATOM      6  C   UNL     1       1.641   5.382  20.753  0.00  0.00    +0.000 A 
ATOM      7  C   UNL     1       1.884   3.936  20.684  0.00  0.00    +0.000 A 
ATOM      8  O   UNL     1       1.353   3.174  21.484  0.00  0.00    +0.000 OA
ATOM      9  O   UNL     1       2.751   3.497  19.702  0.00  0.00    +0.000 OA
ATOM     10  C   UNL     1       3.325   4.397  18.783  0.00  0.00    +0.000 A 
ATOM     11  C   UNL     1       4.181   3.829  17.834  0.00  0.00    +0.000 A 
ENDROOT
BRANCH   1  13
ATOM     12  C   UNL     1       7.027   4.504  16.118  0.00  0.00    +0.000 C 
ATOM     13  O   UNL     1       5.646   4.235  15.905  0.00  0.00    +0.000 OA
ENDBRANCH   1  13
BRANCH   5  14
ATOM     14  C   UNL     1       1.915   7.743  20.066  0.00  0.00    +0.000 C 
BRANCH  14  15
ATOM     15  O   UNL     1       1.555   7.983  21.425  0.00  0.00    +0.000 OA
BRANCH  15  16
ATOM     16  C   UNL     1       0.680   9.009  21.660  0.00  0.00    +0.000 A 
ATOM     17  C   UNL     1       0.081   9.307  22.886  0.00  0.00    +0.000 A 
ATOM     18  C   UNL     1      -0.770  10.409  23.006  0.00  0.00    +0.000 A 
ATOM     19  C   UNL     1      -1.032  11.216  21.900  0.00  0.00    +0.000 A 
ATOM     20  C   UNL     1      -0.446  10.912  20.673  0.00  0.00    +0.000 A 
ATOM     21  I   UNL     1      -0.836  12.112  19.021  0.00  0.00    +0.000 I 
ATOM     22  C   UNL     1       0.405   9.813  20.549  0.00  0.00    +0.000 A 
ENDBRANCH  15  16
ENDBRANCH  14  15
ENDBRANCH   5  14
TORSDOF 4
ENDMDL
MODEL 3
REMARK VINA RESULT:      -7.4      2.012      3.099
REMARK  Name = 
REMARK  5 active torsions:
REMARK  status: ('A' for Active; 'I' for Inactive)
REMARK    1  A    between atoms: C_1  and  O_2
REMARK    2  A    between atoms: O_2  and  C_3
REMARK    3  A    between atoms: C_7  and  C_8
REMARK    4  A    between atoms: C_8  and  O_9
REMARK    5  A    between atoms: O_9  and  C_10
REMARK                            x       y       z     vdW  Elec       q    Type
REMARK                         _______ _______ _______ _____ _____    ______ ____
ROOT
ATOM      1  C   UNL     1       5.676   4.906  15.762  0.00  0.00    +0.000 A 
ATOM      2  C   UNL     1       5.558   6.155  16.375  0.00  0.00    +0.000 A 
ATOM      3  C   UNL     1       4.567   6.398  17.337  0.00  0.00    +0.000 A 
ATOM      4  C   UNL     1       3.676   5.388  17.714  0.00  0.00    +0.000 A 
ATOM      5  C   UNL     1       2.637   5.541  18.742  0.00  0.00    +0.000 A 
ATOM      6  C   UNL     1       1.828   4.497  18.989  0.00  0.00    +0.000 A 
ATOM      7  C   UNL     1       1.917   3.212  18.284  0.00  0.00    +0.000 A 
ATOM      8  O   UNL     1       1.135   2.304  18.538  0.00  0.00    +0.000 OA
ATOM      9  O   UNL     1       2.933   3.081  17.356  0.00  0.00    +0.000 OA
ATOM     10  C   UNL     1       3.801   4.154  17.071  0.00  0.00    +0.000 A 
ATOM     11  C   UNL     1       4.784   3.898  16.110  0.00  0.00    +0.000 A 
ENDROOT
BRANCH   1  13
ATOM     12  C   UNL     1       6.417   4.034  13.680  0.00  0.00    +0.000 C 
ATOM     13  O   UNL     1       6.690   4.799  14.850  0.00  0.00    +0.000 OA
ENDBRANCH   1  13
BRANCH   5  14
ATOM     14  C   UNL     1       2.515   6.806  19.549  0.00  0.00    +0.000 C 
BRANCH  14  15
ATOM     15  O   UNL     1       2.327   7.898  18.651  0.00  0.00    +0.000 OA
BRANCH  15  16
ATOM     16  C   UNL     1       1.399   8.839  19.007  0.00  0.00    +0.000 A 
ATOM     17  C   UNL     1       0.760   9.726  18.138  0.00  0.00    +0.000 A 
ATOM     18  C   UNL     1      -0.199  10.620  18.622  0.00  0.00    +0.000 A 
ATOM     19  C   UNL     1      -0.523  10.634  19.978  0.00  0.00    +0.000 A 
ATOM     20  C   UNL     1       0.123   9.759  20.848  0.00  0.00    +0.000 A 
ATOM     21  I   UNL     1      -0.355   9.780  22.872  0.00  0.00    +0.000 I 
ATOM     22  C   UNL     1       1.082   8.866  20.369  0.00  0.00    +0.000 A 
ENDBRANCH  15  16
ENDBRANCH  14  15
ENDBRANCH   5  14
TORSDOF 4
ENDMDL
MODEL 4
REMARK VINA RESULT:      -7.4      3.002      6.319
REMARK  Name = 
REMARK  5 active torsions:
REMARK  status: ('A' for Active; 'I' for Inactive)
REMARK    1  A    between atoms: C_1  and  O_2
REMARK    2  A    between atoms: O_2  and  C_3
REMARK    3  A    between atoms: C_7  and  C_8
REMARK    4  A    between atoms: C_8  and  O_9
REMARK    5  A    between atoms: O_9  and  C_10
REMARK                            x       y       z     vdW  Elec       q    Type
REMARK                         _______ _______ _______ _____ _____    ______ ____
ROOT
ATOM      1  C   UNL     1       1.937   8.049  19.348  0.00  0.00    +0.000 A 
ATOM      2  C   UNL     1       2.232   7.552  18.077  0.00  0.00    +0.000 A 
ATOM      3  C   UNL     1       2.406   6.178  17.860  0.00  0.00    +0.000 A 
ATOM      4  C   UNL     1       2.280   5.267  18.914  0.00  0.00    +0.000 A 
ATOM      5  C   UNL     1       2.403   3.810  18.770  0.00  0.00    +0.000 A 
ATOM      6  C   UNL     1       2.284   3.050  19.872  0.00  0.00    +0.000 A 
ATOM      7  C   UNL     1       2.047   3.593  21.215  0.00  0.00    +0.000 A 
ATOM      8  O   UNL     1       1.971   2.849  22.187  0.00  0.00    +0.000 OA
ATOM      9  O   UNL     1       1.889   4.962  21.313  0.00  0.00    +0.000 OA
ATOM     10  C   UNL     1       2.005   5.791  20.180  0.00  0.00    +0.000 A 
ATOM     11  C   UNL     1       1.829   7.159  20.411  0.00  0.00    +0.000 A 
ENDROOT
BRANCH   1  13
ATOM     12  C   UNL     1       0.571   9.938  18.893  0.00  0.00    +0.000 C 
ATOM     13  O   UNL     1       1.782   9.406  19.420  0.00  0.00    +0.000 OA
ENDBRANCH   1  13
BRANCH   5  14
ATOM     14  C   UNL     1       2.591   3.171  17.421  0.00  0.00    +0.000 C 
BRANCH  14  15
ATOM     15  O   UNL     1       3.955   2.775  17.294  0.00  0.00    +0.000 OA
BRANCH  15  16
ATOM     16  C   UNL     1       4.843   3.736  16.891  0.00  0.00    +0.000 A 
ATOM     17  C   UNL     1       4.944   4.266  15.603  0.00  0.00    +0.000 A 
ATOM     18  C   UNL     1       5.872   5.273  15.326  0.00  0.00    +0.000 A 
ATOM     19  C   UNL     1       6.708   5.753  16.332  0.00  0.00    +0.000 A 
ATOM     20  C   UNL     1       6.619   5.215  17.614  0.00  0.00    +0.000 A 
ATOM     21  I   UNL     1       7.866   5.926  19.119  0.00  0.00    +0.000 I 
ATOM     22  C   UNL     1       5.693   4.210  17.896  0.00  0.00    +0.000 A 
ENDBRANCH  15  16
ENDBRANCH  14  15
ENDBRANCH   5  14
TORSDOF 4
ENDMDL
MODEL 5
REMARK VINA RESULT:      -7.3      3.431      6.747
REMARK  Name = 
REMARK  5 active torsions:
REMARK  status: ('A' for Active; 'I' for Inactive)
REMARK    1  A    between atoms: C_1  and  O_2
REMARK    2  A    between atoms: O_2  and  C_3
REMARK    3  A    between atoms: C_7  and  C_8
REMARK    4  A    between atoms: C_8  and  O_9
REMARK    5  A    between atoms: O_9  and  C_10
REMARK                            x       y       z     vdW  Elec       q    Type
REMARK                         _______ _______ _______ _____ _____    ______ ____
ROOT
ATOM      1  C   UNL     1       2.007   7.926  19.278  0.00  0.00    +0.000 A 
ATOM      2  C   UNL     1       2.532   7.442  18.078  0.00  0.00    +0.000 A 
ATOM      3  C   UNL     1       2.846   6.085  17.921  0.00  0.00    +0.000 A 
ATOM      4  C   UNL     1       2.632   5.177  18.963  0.00  0.00    +0.000 A 
ATOM      5  C   UNL     1       2.890   3.733  18.872  0.00  0.00    +0.000 A 
ATOM      6  C   UNL     1       2.665   2.977  19.959  0.00  0.00    +0.000 A 
ATOM      7  C   UNL     1       2.182   3.512  21.239  0.00  0.00    +0.000 A 
ATOM      8  O   UNL     1       2.017   2.774  22.203  0.00  0.00    +0.000 OA
ATOM      9  O   UNL     1       1.902   4.864  21.281  0.00  0.00    +0.000 OA
ATOM     10  C   UNL     1       2.125   5.689  20.161  0.00  0.00    +0.000 A 
ATOM     11  C   UNL     1       1.808   7.040  20.332  0.00  0.00    +0.000 A 
ENDROOT
BRANCH   1  13
ATOM     12  C   UNL     1       0.962   9.774  18.215  0.00  0.00    +0.000 C 
ATOM     13  O   UNL     1       1.736   9.266  19.296  0.00  0.00    +0.000 OA
ENDBRANCH   1  13
BRANCH   5  14
ATOM     14  C   UNL     1       3.334   3.099  17.581  0.00  0.00    +0.000 C 
BRANCH  14  15
ATOM     15  O   UNL     1       4.752   2.952  17.613  0.00  0.00    +0.000 OA
BRANCH  15  16
ATOM     16  C   UNL     1       5.476   3.759  16.778  0.00  0.00    +0.000 A 
ATOM     17  C   UNL     1       6.241   4.861  17.167  0.00  0.00    +0.000 A 
ATOM     18  C   UNL     1       6.966   5.587  16.218  0.00  0.00    +0.000 A 
ATOM     19  C   UNL     1       6.927   5.219  14.874  0.00  0.00    +0.000 A 
ATOM     20  C   UNL     1       6.153   4.129  14.482  0.00  0.00    +0.000 A 
ATOM     21  I   UNL     1       6.090   3.579  12.478  0.00  0.00    +0.000 I 
ATOM     22  C   UNL     1       5.428   3.402  15.427  0.00  0.00    +0.000 A 
ENDBRANCH  15  16
ENDBRANCH  14  15
ENDBRANCH   5  14
TORSDOF 4
ENDMDL
MODEL 6
REMARK VINA RESULT:      -7.2      1.639      2.212
REMARK  Name = 
REMARK  5 active torsions:
REMARK  status: ('A' for Active; 'I' for Inactive)
REMARK    1  A    between atoms: C_1  and  O_2
REMARK    2  A    between atoms: O_2  and  C_3
REMARK    3  A    between atoms: C_7  and  C_8
REMARK    4  A    between atoms: C_8  and  O_9
REMARK    5  A    between atoms: O_9  and  C_10
REMARK                            x       y       z     vdW  Elec       q    Type
REMARK                         _______ _______ _______ _____ _____    ______ ____
ROOT
ATOM      1  C   UNL     1       6.574   4.294  13.745  0.00  0.00    +0.000 A 
ATOM      2  C   UNL     1       5.739   3.402  14.421  0.00  0.00    +0.000 A 
ATOM      3  C   UNL     1       5.528   3.514  15.803  0.00  0.00    +0.000 A 
ATOM      4  C   UNL     1       6.144   4.533  16.538  0.00  0.00    +0.000 A 
ATOM      5  C   UNL     1       5.946   4.752  17.978  0.00  0.00    +0.000 A 
ATOM      6  C   UNL     1       6.621   5.753  18.567  0.00  0.00    +0.000 A 
ATOM      7  C   UNL     1       7.553   6.638  17.856  0.00  0.00    +0.000 A 
ATOM      8  O   UNL     1       8.157   7.520  18.454  0.00  0.00    +0.000 OA
ATOM      9  O   UNL     1       7.683   6.439  16.495  0.00  0.00    +0.000 OA
ATOM     10  C   UNL     1       6.991   5.399  15.842  0.00  0.00    +0.000 A 
ATOM     11  C   UNL     1       7.211   5.299  14.465  0.00  0.00    +0.000 A 
ENDROOT
BRANCH   1  13
ATOM     12  C   UNL     1       6.182   2.842  11.906  0.00  0.00    +0.000 C 
ATOM     13  O   UNL     1       6.685   4.079  12.398  0.00  0.00    +0.000 OA
ENDBRANCH   1  13
BRANCH   5  14
ATOM     14  C   UNL     1       4.967   3.925  18.767  0.00  0.00    +0.000 C 
BRANCH  14  15
ATOM     15  O   UNL     1       3.649   4.232  18.317  0.00  0.00    +0.000 OA
BRANCH  15  16
ATOM     16  C   UNL     1       2.952   5.164  19.037  0.00  0.00    +0.000 A 
ATOM     17  C   UNL     1       2.441   4.987  20.324  0.00  0.00    +0.000 A 
ATOM     18  C   UNL     1       1.774   6.033  20.969  0.00  0.00    +0.000 A 
ATOM     19  C   UNL     1       1.610   7.260  20.329  0.00  0.00    +0.000 A 
ATOM     20  C   UNL     1       2.107   7.434  19.039  0.00  0.00    +0.000 A 
ATOM     21  I   UNL     1       1.862   9.262  18.080  0.00  0.00    +0.000 I 
ATOM     22  C   UNL     1       2.773   6.393  18.392  0.00  0.00    +0.000 A 
ENDBRANCH  15  16
ENDBRANCH  14  15
ENDBRANCH   5  14
TORSDOF 4
ENDMDL
MODEL 7
REMARK VINA RESULT:      -7.2      2.098      3.446
REMARK  Name = 
REMARK  5 active torsions:
REMARK  status: ('A' for Active; 'I' for Inactive)
REMARK    1  A    between atoms: C_1  and  O_2
REMARK    2  A    between atoms: O_2  and  C_3
REMARK    3  A    between atoms: C_7  and  C_8
REMARK    4  A    between atoms: C_8  and  O_9
REMARK    5  A    between atoms: O_9  and  C_10
REMARK                            x       y       z     vdW  Elec       q    Type
REMARK                         _______ _______ _______ _____ _____    ______ ____
ROOT
ATOM      1  C   UNL     1       5.719   5.585  16.450  0.00  0.00    +0.000 A 
ATOM      2  C   UNL     1       5.070   6.819  16.498  0.00  0.00    +0.000 A 
ATOM      3  C   UNL     1       4.066   7.073  17.444  0.00  0.00    +0.000 A 
ATOM      4  C   UNL     1       3.697   6.094  18.372  0.00  0.00    +0.000 A 
ATOM      5  C   UNL     1       2.689   6.287  19.425  0.00  0.00    +0.000 A 
ATOM      6  C   UNL     1       2.411   5.253  20.236  0.00  0.00    +0.000 A 
ATOM      7  C   UNL     1       3.050   3.936  20.126  0.00  0.00    +0.000 A 
ATOM      8  O   UNL     1       2.737   3.023  20.882  0.00  0.00    +0.000 OA
ATOM      9  O   UNL     1       4.027   3.798  19.159  0.00  0.00    +0.000 OA
ATOM     10  C   UNL     1       4.347   4.860  18.290  0.00  0.00    +0.000 A 
ATOM     11  C   UNL     1       5.349   4.593  17.352  0.00  0.00    +0.000 A 
ENDROOT
BRANCH   1  13
ATOM     12  C   UNL     1       6.437   4.535  14.443  0.00  0.00    +0.000 C 
ATOM     13  O   UNL     1       6.684   5.472  15.487  0.00  0.00    +0.000 OA
ENDBRANCH   1  13
BRANCH   5  14
ATOM     14  C   UNL     1       2.028   7.623  19.638  0.00  0.00    +0.000 C 
BRANCH  14  15
ATOM     15  O   UNL     1       1.437   7.631  20.936  0.00  0.00    +0.000 OA
BRANCH  15  16
ATOM     16  C   UNL     1       0.738   8.754  21.289  0.00  0.00    +0.000 A 
ATOM     17  C   UNL     1       0.102   8.969  22.513  0.00  0.00    +0.000 A 
ATOM     18  C   UNL     1      -0.552  10.178  22.766  0.00  0.00    +0.000 A 
ATOM     19  C   UNL     1      -0.579  11.177  21.795  0.00  0.00    +0.000 A 
ATOM     20  C   UNL     1       0.043  10.959  20.567  0.00  0.00    +0.000 A 
ATOM     21  I   UNL     1       0.003  12.446  19.115  0.00  0.00    +0.000 I 
ATOM     22  C   UNL     1       0.697   9.753  20.311  0.00  0.00    +0.000 A 
ENDBRANCH  15  16
ENDBRANCH  14  15
ENDBRANCH   5  14
TORSDOF 4
ENDMDL
MODEL 8
REMARK VINA RESULT:      -7.1      3.831      6.934
REMARK  Name = 
REMARK  5 active torsions:
REMARK  status: ('A' for Active; 'I' for Inactive)
REMARK    1  A    between atoms: C_1  and  O_2
REMARK    2  A    between atoms: O_2  and  C_3
REMARK    3  A    between atoms: C_7  and  C_8
REMARK    4  A    between atoms: C_8  and  O_9
REMARK    5  A    between atoms: O_9  and  C_10
REMARK                            x       y       z     vdW  Elec       q    Type
REMARK                         _______ _______ _______ _____ _____    ______ ____
ROOT
ATOM      1  C   UNL     1       2.546   6.954  18.802  0.00  0.00    +0.000 A 
ATOM      2  C   UNL     1       2.206   7.914  17.848  0.00  0.00    +0.000 A 
ATOM      3  C   UNL     1       1.543   9.095  18.214  0.00  0.00    +0.000 A 
ATOM      4  C   UNL     1       1.214   9.343  19.550  0.00  0.00    +0.000 A 
ATOM      5  C   UNL     1       0.561  10.570  20.029  0.00  0.00    +0.000 A 
ATOM      6  C   UNL     1       0.277  10.669  21.339  0.00  0.00    +0.000 A 
ATOM      7  C   UNL     1       0.575   9.618  22.319  0.00  0.00    +0.000 A 
ATOM      8  O   UNL     1       0.270   9.758  23.498  0.00  0.00    +0.000 OA
ATOM      9  O   UNL     1       1.232   8.497  21.849  0.00  0.00    +0.000 OA
ATOM     10  C   UNL     1       1.547   8.358  20.483  0.00  0.00    +0.000 A 
ATOM     11  C   UNL     1       2.207   7.176  20.132  0.00  0.00    +0.000 A 
ENDROOT
BRANCH   1  13
ATOM     12  C   UNL     1       4.158   5.249  19.175  0.00  0.00    +0.000 C 
ATOM     13  O   UNL     1       3.198   5.854  18.315  0.00  0.00    +0.000 OA
ENDBRANCH   1  13
BRANCH   5  14
ATOM     14  C   UNL     1       0.272  11.716  19.097  0.00  0.00    +0.000 C 
BRANCH  14  15
ATOM     15  O   UNL     1      -1.100  12.078  19.238  0.00  0.00    +0.000 OA
BRANCH  15  16
ATOM     16  C   UNL     1      -1.993  11.448  18.413  0.00  0.00    +0.000 A 
ATOM     17  C   UNL     1      -1.670  10.562  17.383  0.00  0.00    +0.000 A 
ATOM     18  C   UNL     1      -2.679   9.955  16.632  0.00  0.00    +0.000 A 
ATOM     19  C   UNL     1      -4.018  10.234  16.901  0.00  0.00    +0.000 A 
ATOM     20  C   UNL     1      -4.342  11.129  17.918  0.00  0.00    +0.000 A 
ATOM     21  I   UNL     1      -6.338  11.549  18.322  0.00  0.00    +0.000 I 
ATOM     22  C   UNL     1      -3.337  11.737  18.671  0.00  0.00    +0.000 A 
ENDBRANCH  15  16
ENDBRANCH  14  15
ENDBRANCH   5  14
TORSDOF 4
ENDMDL
MODEL 9
REMARK VINA RESULT:      -7.1      1.940      3.222
REMARK  Name = 
REMARK  5 active torsions:
REMARK  status: ('A' for Active; 'I' for Inactive)
REMARK    1  A    between atoms: C_1  and  O_2
REMARK    2  A    between atoms: O_2  and  C_3
REMARK    3  A    between atoms: C_7  and  C_8
REMARK    4  A    between atoms: C_8  and  O_9
REMARK    5  A    between atoms: O_9  and  C_10
REMARK                            x       y       z     vdW  Elec       q    Type
REMARK                         _______ _______ _______ _____ _____    ______ ____
ROOT
ATOM      1  C   UNL     1       5.749   4.965  16.428  0.00  0.00    +0.000 A 
ATOM      2  C   UNL     1       5.264   6.232  16.099  0.00  0.00    +0.000 A 
ATOM      3  C   UNL     1       4.269   6.849  16.871  0.00  0.00    +0.000 A 
ATOM      4  C   UNL     1       3.743   6.210  17.999  0.00  0.00    +0.000 A 
ATOM      5  C   UNL     1       2.732   6.798  18.889  0.00  0.00    +0.000 A 
ATOM      6  C   UNL     1       2.293   6.064  19.926  0.00  0.00    +0.000 A 
ATOM      7  C   UNL     1       2.760   4.703  20.216  0.00  0.00    +0.000 A 
ATOM      8  O   UNL     1       2.304   4.074  21.164  0.00  0.00    +0.000 OA
ATOM      9  O   UNL     1       3.745   4.194  19.391  0.00  0.00    +0.000 OA
ATOM     10  C   UNL     1       4.230   4.934  18.295  0.00  0.00    +0.000 A 
ATOM     11  C   UNL     1       5.222   4.307  17.534  0.00  0.00    +0.000 A 
ENDROOT
BRANCH   1  13
ATOM     12  C   UNL     1       6.295   3.942  14.355  0.00  0.00    +0.000 C 
ATOM     13  O   UNL     1       6.725   4.483  15.599  0.00  0.00    +0.000 OA
ENDBRANCH   1  13
BRANCH   5  14
ATOM     14  C   UNL     1       2.242   8.208  18.692  0.00  0.00    +0.000 C 
BRANCH  14  15
ATOM     15  O   UNL     1       1.511   8.598  19.853  0.00  0.00    +0.000 OA
BRANCH  15  16
ATOM     16  C   UNL     1       0.593   9.601  19.697  0.00  0.00    +0.000 A 
ATOM     17  C   UNL     1       0.048  10.029  18.484  0.00  0.00    +0.000 A 
ATOM     18  C   UNL     1      -0.912  11.044  18.461  0.00  0.00    +0.000 A 
ATOM     19  C   UNL     1      -1.330  11.641  19.649  0.00  0.00    +0.000 A 
ATOM     20  C   UNL     1      -0.777  11.226  20.858  0.00  0.00    +0.000 A 
ATOM     21  I   UNL     1      -1.395  12.116  22.633  0.00  0.00    +0.000 I 
ATOM     22  C   UNL     1       0.182  10.212  20.886  0.00  0.00    +0.000 A 
ENDBRANCH  15  16
ENDBRANCH  14  15
ENDBRANCH   5  14
TORSDOF 4
ENDMDL
