MODEL 1
REMARK VINA RESULT:      -8.3      0.000      0.000
REMARK  Name = 
REMARK  7 active torsions:
REMARK  status: ('A' for Active; 'I' for Inactive)
REMARK    1  A    between atoms: C_1  and  C_2
REMARK    2  A    between atoms: C_2  and  C_3
REMARK    3  A    between atoms: C_2  and  C_4
REMARK    4  A    between atoms: C_9  and  S_10
REMARK    5  A    between atoms: S_10  and  C_11
REMARK    6  A    between atoms: C_12  and  O_13
REMARK    7  A    between atoms: C_15  and  C_16
REMARK                            x       y       z     vdW  Elec       q    Type
REMARK                         _______ _______ _______ _____ _____    ______ ____
ROOT
ATOM      1  C   UNL     1       1.238   9.571  19.381  0.00  0.00    +0.000 A 
ATOM      2  C   UNL     1       1.895   9.486  18.213  0.00  0.00    +0.000 A 
ATOM      3  C   UNL     1       2.511   8.272  17.770  0.00  0.00    +0.000 A 
ATOM      4  C   UNL     1       2.514   7.201  18.571  0.00  0.00    +0.000 A 
ATOM      5  O   UNL     1       1.936   7.269  19.864  0.00  0.00    +0.000 OA
ATOM      6  C   UNL     1       1.335   8.417  20.329  0.00  0.00    +0.000 A 
ATOM      7  O   UNL     1       0.911   8.469  21.480  0.00  0.00    +0.000 OA
ENDROOT
BRANCH   4   8
ATOM      8  C   UNL     1       3.054   5.883  18.171  0.00  0.00    +0.000 A 
ATOM      9  C   UNL     1       4.163   5.766  17.313  0.00  0.00    +0.000 A 
ATOM     10  C   UNL     1       4.606   4.511  16.883  0.00  0.00    +0.000 A 
ATOM     11 CL   UNL     1       5.936   4.403  15.797  0.00  0.00    +0.000 Cl
ATOM     12  C   UNL     1       3.971   3.349  17.311  0.00  0.00    +0.000 A 
ATOM     13  C   UNL     1       2.896   3.454  18.188  0.00  0.00    +0.000 A 
ATOM     14 CL   UNL     1       2.099   2.024  18.721  0.00  0.00    +0.000 Cl
ATOM     15  C   UNL     1       2.443   4.703  18.622  0.00  0.00    +0.000 A 
ENDBRANCH   4   8
BRANCH   2  16
ATOM     16  O   UNL     1       2.053  10.531  17.332  0.00  0.00    +0.000 OA
ATOM     17  H   UNL     1       2.122  10.140  16.440  0.00  0.00    +0.000 HD
ENDBRANCH   2  16
BRANCH   1  18
ATOM     18  S   UNL     1       0.492  11.051  19.914  0.00  0.00    +0.000 S 
BRANCH  18  24
ATOM     19  C   UNL     1      -2.207  11.894  19.491  0.00  0.00    +0.000 A 
ATOM     20  C   UNL     1      -3.431  11.799  18.775  0.00  0.00    +0.000 A 
ATOM     21  C   UNL     1      -3.611  10.870  17.758  0.00  0.00    +0.000 A 
ATOM     22  C   UNL     1      -2.572  10.020  17.415  0.00  0.00    +0.000 A 
ATOM     23  C   UNL     1      -1.340  10.123  18.072  0.00  0.00    +0.000 A 
ATOM     24  C   UNL     1      -1.116  11.072  19.089  0.00  0.00    +0.000 A 
BRANCH  19  26
ATOM     25  C   UNL     1      -1.589  14.223  20.373  0.00  0.00    +0.000 C 
ATOM     26  C   UNL     1      -2.232  12.866  20.668  0.00  0.00    +0.000 C 
ATOM     27  C   UNL     1      -3.594  12.933  21.360  0.00  0.00    +0.000 C 
ENDBRANCH  19  26
ENDBRANCH  18  24
ENDBRANCH   1  18
TORSDOF 5
ENDMDL
MODEL 2
REMARK VINA RESULT:      -8.3      0.448      1.790
REMARK  Name = 
REMARK  7 active torsions:
REMARK  status: ('A' for Active; 'I' for Inactive)
REMARK    1  A    between atoms: C_1  and  C_2
REMARK    2  A    between atoms: C_2  and  C_3
REMARK    3  A    between atoms: C_2  and  C_4
REMARK    4  A    between atoms: C_9  and  S_10
REMARK    5  A    between atoms: S_10  and  C_11
REMARK    6  A    between atoms: C_12  and  O_13
REMARK    7  A    between atoms: C_15  and  C_16
REMARK                            x       y       z     vdW  Elec       q    Type
REMARK                         _______ _______ _______ _____ _____    ______ ____
ROOT
ATOM      1  C   UNL     1       1.281   9.551  19.437  0.00  0.00    +0.000 A 
ATOM      2  C   UNL     1       1.907   9.609  18.251  0.00  0.00    +0.000 A 
ATOM      3  C   UNL     1       2.563   8.473  17.678  0.00  0.00    +0.000 A 
ATOM      4  C   UNL     1       2.636   7.331  18.372  0.00  0.00    +0.000 A 
ATOM      5  O   UNL     1       2.094   7.249  19.679  0.00  0.00    +0.000 OA
ATOM      6  C   UNL     1       1.456   8.318  20.267  0.00  0.00    +0.000 A 
ATOM      7  O   UNL     1       1.063   8.240  21.427  0.00  0.00    +0.000 OA
ENDROOT
BRANCH   4   8
ATOM      8  C   UNL     1       3.223   6.085  17.834  0.00  0.00    +0.000 A 
ATOM      9  C   UNL     1       2.567   4.846  17.947  0.00  0.00    +0.000 A 
ATOM     10  C   UNL     1       3.177   3.668  17.504  0.00  0.00    +0.000 A 
ATOM     11 CL   UNL     1       2.367   2.162  17.699  0.00  0.00    +0.000 Cl
ATOM     12  C   UNL     1       4.441   3.699  16.924  0.00  0.00    +0.000 A 
ATOM     13  C   UNL     1       5.084   4.924  16.776  0.00  0.00    +0.000 A 
ATOM     14 CL   UNL     1       6.650   4.976  16.063  0.00  0.00    +0.000 Cl
ATOM     15  C   UNL     1       4.484   6.107  17.216  0.00  0.00    +0.000 A 
ENDBRANCH   4   8
BRANCH   2  16
ATOM     16  O   UNL     1       1.993  10.739  17.471  0.00  0.00    +0.000 OA
ATOM     17  H   UNL     1       1.557  10.531  16.622  0.00  0.00    +0.000 HD
ENDBRANCH   2  16
BRANCH   1  18
ATOM     18  S   UNL     1       0.485  10.937  20.128  0.00  0.00    +0.000 S 
BRANCH  18  24
ATOM     19  C   UNL     1      -2.154  11.916  19.625  0.00  0.00    +0.000 A 
ATOM     20  C   UNL     1      -3.364  11.874  18.881  0.00  0.00    +0.000 A 
ATOM     21  C   UNL     1      -3.569  10.938  17.875  0.00  0.00    +0.000 A 
ATOM     22  C   UNL     1      -2.570  10.027  17.572  0.00  0.00    +0.000 A 
ATOM     23  C   UNL     1      -1.350  10.075  18.257  0.00  0.00    +0.000 A 
ATOM     24  C   UNL     1      -1.099  11.029  19.264  0.00  0.00    +0.000 A 
BRANCH  19  26
ATOM     25  C   UNL     1      -1.731  14.327  20.395  0.00  0.00    +0.000 C 
ATOM     26  C   UNL     1      -2.153  12.909  20.785  0.00  0.00    +0.000 C 
ATOM     27  C   UNL     1      -3.415  12.823  21.645  0.00  0.00    +0.000 C 
ENDBRANCH  19  26
ENDBRANCH  18  24
ENDBRANCH   1  18
TORSDOF 5
ENDMDL
MODEL 3
REMARK VINA RESULT:      -8.2      1.172      1.335
REMARK  Name = 
REMARK  7 active torsions:
REMARK  status: ('A' for Active; 'I' for Inactive)
REMARK    1  A    between atoms: C_1  and  C_2
REMARK    2  A    between atoms: C_2  and  C_3
REMARK    3  A    between atoms: C_2  and  C_4
REMARK    4  A    between atoms: C_9  and  S_10
REMARK    5  A    between atoms: S_10  and  C_11
REMARK    6  A    between atoms: C_12  and  O_13
REMARK    7  A    between atoms: C_15  and  C_16
REMARK                            x       y       z     vdW  Elec       q    Type
REMARK                         _______ _______ _______ _____ _____    ______ ____
ROOT
ATOM      1  C   UNL     1       0.958   9.975  19.493  0.00  0.00    +0.000 A 
ATOM      2  C   UNL     1       1.658   9.555  18.427  0.00  0.00    +0.000 A 
ATOM      3  C   UNL     1       2.219   8.240  18.353  0.00  0.00    +0.000 A 
ATOM      4  C   UNL     1       2.124   7.419  19.405  0.00  0.00    +0.000 A 
ATOM      5  O   UNL     1       1.497   7.853  20.600  0.00  0.00    +0.000 OA
ATOM      6  C   UNL     1       0.946   9.109  20.713  0.00  0.00    +0.000 A 
ATOM      7  O   UNL     1       0.476   9.483  21.785  0.00  0.00    +0.000 OA
ENDROOT
BRANCH   4   8
ATOM      8  C   UNL     1       2.602   6.019  19.394  0.00  0.00    +0.000 A 
ATOM      9  C   UNL     1       3.369   5.505  18.333  0.00  0.00    +0.000 A 
ATOM     10  C   UNL     1       3.740   4.157  18.305  0.00  0.00    +0.000 A 
ATOM     11 CL   UNL     1       4.639   3.547  16.970  0.00  0.00    +0.000 Cl
ATOM     12  C   UNL     1       3.376   3.299  19.338  0.00  0.00    +0.000 A 
ATOM     13  C   UNL     1       2.647   3.806  20.409  0.00  0.00    +0.000 A 
ATOM     14 CL   UNL     1       2.185   2.754  21.691  0.00  0.00    +0.000 Cl
ATOM     15  C   UNL     1       2.268   5.151  20.446  0.00  0.00    +0.000 A 
ENDBRANCH   4   8
BRANCH   2  16
ATOM     16  O   UNL     1       1.916  10.321  17.314  0.00  0.00    +0.000 OA
ATOM     17  H   UNL     1       2.412  11.105  17.619  0.00  0.00    +0.000 HD
ENDBRANCH   2  16
BRANCH   1  18
ATOM     18  S   UNL     1       0.279  11.576  19.578  0.00  0.00    +0.000 S 
BRANCH  18  24
ATOM     19  C   UNL     1      -2.539  12.050  19.492  0.00  0.00    +0.000 A 
ATOM     20  C   UNL     1      -3.815  11.800  18.918  0.00  0.00    +0.000 A 
ATOM     21  C   UNL     1      -3.987  10.871  17.899  0.00  0.00    +0.000 A 
ATOM     22  C   UNL     1      -2.892  10.176  17.414  0.00  0.00    +0.000 A 
ATOM     23  C   UNL     1      -1.616  10.436  17.928  0.00  0.00    +0.000 A 
ATOM     24  C   UNL     1      -1.403  11.390  18.943  0.00  0.00    +0.000 A 
BRANCH  19  26
ATOM     25  C   UNL     1      -3.721  13.982  20.699  0.00  0.00    +0.000 C 
ATOM     26  C   UNL     1      -2.555  12.990  20.695  0.00  0.00    +0.000 C 
ATOM     27  C   UNL     1      -2.317  12.268  22.021  0.00  0.00    +0.000 C 
ENDBRANCH  19  26
ENDBRANCH  18  24
ENDBRANCH   1  18
TORSDOF 5
ENDMDL
MODEL 4
REMARK VINA RESULT:      -8.2      1.109      2.062
REMARK  Name = 
REMARK  7 active torsions:
REMARK  status: ('A' for Active; 'I' for Inactive)
REMARK    1  A    between atoms: C_1  and  C_2
REMARK    2  A    between atoms: C_2  and  C_3
REMARK    3  A    between atoms: C_2  and  C_4
REMARK    4  A    between atoms: C_9  and  S_10
REMARK    5  A    between atoms: S_10  and  C_11
REMARK    6  A    between atoms: C_12  and  O_13
REMARK    7  A    between atoms: C_15  and  C_16
REMARK                            x       y       z     vdW  Elec       q    Type
REMARK                         _______ _______ _______ _____ _____    ______ ____
ROOT
ATOM      1  C   UNL     1       1.007   9.946  19.364  0.00  0.00    +0.000 A 
ATOM      2  C   UNL     1       1.744   9.542  18.317  0.00  0.00    +0.000 A 
ATOM      3  C   UNL     1       2.292   8.222  18.233  0.00  0.00    +0.000 A 
ATOM      4  C   UNL     1       2.144   7.377  19.259  0.00  0.00    +0.000 A 
ATOM      5  O   UNL     1       1.474   7.790  20.439  0.00  0.00    +0.000 OA
ATOM      6  C   UNL     1       0.934   9.051  20.561  0.00  0.00    +0.000 A 
ATOM      7  O   UNL     1       0.426   9.405  21.621  0.00  0.00    +0.000 OA
ENDROOT
BRANCH   4   8
ATOM      8  C   UNL     1       2.605   5.972  19.234  0.00  0.00    +0.000 A 
ATOM      9  C   UNL     1       2.336   5.084  20.292  0.00  0.00    +0.000 A 
ATOM     10  C   UNL     1       2.852   3.784  20.283  0.00  0.00    +0.000 A 
ATOM     11 CL   UNL     1       2.544   2.736  21.614  0.00  0.00    +0.000 Cl
ATOM     12  C   UNL     1       3.626   3.334  19.219  0.00  0.00    +0.000 A 
ATOM     13  C   UNL     1       3.868   4.194  18.152  0.00  0.00    +0.000 A 
ATOM     14 CL   UNL     1       4.828   3.651  16.830  0.00  0.00    +0.000 Cl
ATOM     15  C   UNL     1       3.359   5.496  18.150  0.00  0.00    +0.000 A 
ENDBRANCH   4   8
BRANCH   2  16
ATOM     16  O   UNL     1       2.056  10.331  17.234  0.00  0.00    +0.000 OA
ATOM     17  H   UNL     1       2.657   9.811  16.668  0.00  0.00    +0.000 HD
ENDBRANCH   2  16
BRANCH   1  18
ATOM     18  S   UNL     1       0.345  11.553  19.460  0.00  0.00    +0.000 S 
BRANCH  18  24
ATOM     19  C   UNL     1      -2.474  12.035  19.452  0.00  0.00    +0.000 A 
ATOM     20  C   UNL     1      -3.763  11.797  18.905  0.00  0.00    +0.000 A 
ATOM     21  C   UNL     1      -3.963  10.887  17.875  0.00  0.00    +0.000 A 
ATOM     22  C   UNL     1      -2.882  10.197  17.351  0.00  0.00    +0.000 A 
ATOM     23  C   UNL     1      -1.593  10.445  17.838  0.00  0.00    +0.000 A 
ATOM     24  C   UNL     1      -1.353  11.382  18.863  0.00  0.00    +0.000 A 
BRANCH  19  26
ATOM     25  C   UNL     1      -3.645  13.918  20.742  0.00  0.00    +0.000 C 
ATOM     26  C   UNL     1      -2.457  12.955  20.670  0.00  0.00    +0.000 C 
ATOM     27  C   UNL     1      -2.144  12.217  21.972  0.00  0.00    +0.000 C 
ENDBRANCH  19  26
ENDBRANCH  18  24
ENDBRANCH   1  18
TORSDOF 5
ENDMDL
MODEL 5
REMARK VINA RESULT:      -7.9      6.391      9.216
REMARK  Name = 
REMARK  7 active torsions:
REMARK  status: ('A' for Active; 'I' for Inactive)
REMARK    1  A    between atoms: C_1  and  C_2
REMARK    2  A    between atoms: C_2  and  C_3
REMARK    3  A    between atoms: C_2  and  C_4
REMARK    4  A    between atoms: C_9  and  S_10
REMARK    5  A    between atoms: S_10  and  C_11
REMARK    6  A    between atoms: C_12  and  O_13
REMARK    7  A    between atoms: C_15  and  C_16
REMARK                            x       y       z     vdW  Elec       q    Type
REMARK                         _______ _______ _______ _____ _____    ______ ____
ROOT
ATOM      1  C   UNL     1       6.879   6.162  18.018  0.00  0.00    +0.000 A 
ATOM      2  C   UNL     1       7.851   6.383  18.918  0.00  0.00    +0.000 A 
ATOM      3  C   UNL     1       8.505   7.651  19.038  0.00  0.00    +0.000 A 
ATOM      4  C   UNL     1       8.210   8.633  18.178  0.00  0.00    +0.000 A 
ATOM      5  O   UNL     1       7.275   8.416  17.134  0.00  0.00    +0.000 OA
ATOM      6  C   UNL     1       6.625   7.212  16.983  0.00  0.00    +0.000 A 
ATOM      7  O   UNL     1       5.877   7.030  16.026  0.00  0.00    +0.000 OA
ENDROOT
BRANCH   4   8
ATOM      8  C   UNL     1       8.774   9.997  18.271  0.00  0.00    +0.000 A 
ATOM      9  C   UNL     1       9.995  10.252  18.921  0.00  0.00    +0.000 A 
ATOM     10  C   UNL     1      10.469  11.559  19.068  0.00  0.00    +0.000 A 
ATOM     11 CL   UNL     1      11.943  11.843  19.909  0.00  0.00    +0.000 Cl
ATOM     12  C   UNL     1       9.751  12.636  18.557  0.00  0.00    +0.000 A 
ATOM     13  C   UNL     1       8.560  12.390  17.882  0.00  0.00    +0.000 A 
ATOM     14 CL   UNL     1       7.660  13.714  17.248  0.00  0.00    +0.000 Cl
ATOM     15  C   UNL     1       8.075  11.088  17.730  0.00  0.00    +0.000 A 
ENDBRANCH   4   8
BRANCH   2  16
ATOM     16  O   UNL     1       8.322   5.440  19.801  0.00  0.00    +0.000 OA
ATOM     17  H   UNL     1       8.013   4.572  19.480  0.00  0.00    +0.000 HD
ENDBRANCH   2  16
BRANCH   1  18
ATOM     18  S   UNL     1       6.088   4.617  17.876  0.00  0.00    +0.000 S 
BRANCH  18  24
ATOM     19  C   UNL     1       3.884   3.707  19.455  0.00  0.00    +0.000 A 
ATOM     20  C   UNL     1       2.684   3.974  20.167  0.00  0.00    +0.000 A 
ATOM     21  C   UNL     1       2.126   5.246  20.206  0.00  0.00    +0.000 A 
ATOM     22  C   UNL     1       2.755   6.290  19.547  0.00  0.00    +0.000 A 
ATOM     23  C   UNL     1       3.964   6.066  18.877  0.00  0.00    +0.000 A 
ATOM     24  C   UNL     1       4.570   4.794  18.842  0.00  0.00    +0.000 A 
BRANCH  19  26
ATOM     25  C   UNL     1       4.694   1.643  20.746  0.00  0.00    +0.000 C 
ATOM     26  C   UNL     1       4.276   2.233  19.397  0.00  0.00    +0.000 C 
ATOM     27  C   UNL     1       3.287   1.382  18.599  0.00  0.00    +0.000 C 
ENDBRANCH  19  26
ENDBRANCH  18  24
ENDBRANCH   1  18
TORSDOF 5
ENDMDL
MODEL 6
REMARK VINA RESULT:      -7.8      6.408      9.258
REMARK  Name = 
REMARK  7 active torsions:
REMARK  status: ('A' for Active; 'I' for Inactive)
REMARK    1  A    between atoms: C_1  and  C_2
REMARK    2  A    between atoms: C_2  and  C_3
REMARK    3  A    between atoms: C_2  and  C_4
REMARK    4  A    between atoms: C_9  and  S_10
REMARK    5  A    between atoms: S_10  and  C_11
REMARK    6  A    between atoms: C_12  and  O_13
REMARK    7  A    between atoms: C_15  and  C_16
REMARK                            x       y       z     vdW  Elec       q    Type
REMARK                         _______ _______ _______ _____ _____    ______ ____
ROOT
ATOM      1  C   UNL     1       6.866   6.156  17.995  0.00  0.00    +0.000 A 
ATOM      2  C   UNL     1       7.848   6.365  18.887  0.00  0.00    +0.000 A 
ATOM      3  C   UNL     1       8.497   7.634  19.023  0.00  0.00    +0.000 A 
ATOM      4  C   UNL     1       8.185   8.631  18.188  0.00  0.00    +0.000 A 
ATOM      5  O   UNL     1       7.239   8.430  17.152  0.00  0.00    +0.000 OA
ATOM      6  C   UNL     1       6.593   7.225  16.984  0.00  0.00    +0.000 A 
ATOM      7  O   UNL     1       5.834   7.058  16.033  0.00  0.00    +0.000 OA
ENDROOT
BRANCH   4   8
ATOM      8  C   UNL     1       8.744   9.996  18.300  0.00  0.00    +0.000 A 
ATOM      9  C   UNL     1       8.068  11.118  17.788  0.00  0.00    +0.000 A 
ATOM     10  C   UNL     1       8.652  12.388  17.833  0.00  0.00    +0.000 A 
ATOM     11 CL   UNL     1       7.820  13.734  17.156  0.00  0.00    +0.000 Cl
ATOM     12  C   UNL     1       9.908  12.572  18.403  0.00  0.00    +0.000 A 
ATOM     13  C   UNL     1      10.568  11.473  18.944  0.00  0.00    +0.000 A 
ATOM     14 CL   UNL     1      12.124  11.686  19.649  0.00  0.00    +0.000 Cl
ATOM     15  C   UNL     1       9.995  10.199  18.903  0.00  0.00    +0.000 A 
ENDBRANCH   4   8
BRANCH   2  16
ATOM     16  O   UNL     1       8.335   5.408  19.745  0.00  0.00    +0.000 OA
ATOM     17  H   UNL     1       9.271   5.263  19.507  0.00  0.00    +0.000 HD
ENDBRANCH   2  16
BRANCH   1  18
ATOM     18  S   UNL     1       6.082   4.610  17.832  0.00  0.00    +0.000 S 
BRANCH  18  24
ATOM     19  C   UNL     1       3.920   3.670  19.452  0.00  0.00    +0.000 A 
ATOM     20  C   UNL     1       2.721   3.918  20.172  0.00  0.00    +0.000 A 
ATOM     21  C   UNL     1       2.127   5.173  20.192  0.00  0.00    +0.000 A 
ATOM     22  C   UNL     1       2.720   6.222  19.507  0.00  0.00    +0.000 A 
ATOM     23  C   UNL     1       3.928   6.019  18.828  0.00  0.00    +0.000 A 
ATOM     24  C   UNL     1       4.569   4.764  18.810  0.00  0.00    +0.000 A 
BRANCH  19  26
ATOM     25  C   UNL     1       4.675   1.617  20.794  0.00  0.00    +0.000 C 
ATOM     26  C   UNL     1       4.353   2.206  19.418  0.00  0.00    +0.000 C 
ATOM     27  C   UNL     1       3.454   1.338  18.538  0.00  0.00    +0.000 C 
ENDBRANCH  19  26
ENDBRANCH  18  24
ENDBRANCH   1  18
TORSDOF 5
ENDMDL
MODEL 7
REMARK VINA RESULT:      -7.7      1.432      2.197
REMARK  Name = 
REMARK  7 active torsions:
REMARK  status: ('A' for Active; 'I' for Inactive)
REMARK    1  A    between atoms: C_1  and  C_2
REMARK    2  A    between atoms: C_2  and  C_3
REMARK    3  A    between atoms: C_2  and  C_4
REMARK    4  A    between atoms: C_9  and  S_10
REMARK    5  A    between atoms: S_10  and  C_11
REMARK    6  A    between atoms: C_12  and  O_13
REMARK    7  A    between atoms: C_15  and  C_16
REMARK                            x       y       z     vdW  Elec       q    Type
REMARK                         _______ _______ _______ _____ _____    ______ ____
ROOT
ATOM      1  C   UNL     1       1.003  10.033  19.642  0.00  0.00    +0.000 A 
ATOM      2  C   UNL     1       0.658   9.268  20.690  0.00  0.00    +0.000 A 
ATOM      3  C   UNL     1       1.131   7.925  20.842  0.00  0.00    +0.000 A 
ATOM      4  C   UNL     1       1.872   7.370  19.877  0.00  0.00    +0.000 A 
ATOM      5  O   UNL     1       2.168   8.093  18.694  0.00  0.00    +0.000 OA
ATOM      6  C   UNL     1       1.733   9.385  18.507  0.00  0.00    +0.000 A 
ATOM      7  O   UNL     1       1.942   9.959  17.442  0.00  0.00    +0.000 OA
ENDROOT
BRANCH   4   8
ATOM      8  C   UNL     1       2.469   6.020  19.979  0.00  0.00    +0.000 A 
ATOM      9  C   UNL     1       3.647   5.677  19.292  0.00  0.00    +0.000 A 
ATOM     10  C   UNL     1       4.148   4.371  19.338  0.00  0.00    +0.000 A 
ATOM     11 CL   UNL     1       5.567   3.971  18.450  0.00  0.00    +0.000 Cl
ATOM     12  C   UNL     1       3.501   3.389  20.080  0.00  0.00    +0.000 A 
ATOM     13  C   UNL     1       2.354   3.728  20.791  0.00  0.00    +0.000 A 
ATOM     14 CL   UNL     1       1.541   2.520  21.709  0.00  0.00    +0.000 Cl
ATOM     15  C   UNL     1       1.843   5.028  20.751  0.00  0.00    +0.000 A 
ENDBRANCH   4   8
BRANCH   2  16
ATOM     16  O   UNL     1      -0.171   9.673  21.710  0.00  0.00    +0.000 OA
ATOM     17  H   UNL     1      -0.878  10.210  21.303  0.00  0.00    +0.000 HD
ENDBRANCH   2  16
BRANCH   1  18
ATOM     18  S   UNL     1       0.424  11.665  19.462  0.00  0.00    +0.000 S 
BRANCH  18  24
ATOM     19  C   UNL     1      -2.403  12.089  19.521  0.00  0.00    +0.000 A 
ATOM     20  C   UNL     1      -3.698  11.846  18.988  0.00  0.00    +0.000 A 
ATOM     21  C   UNL     1      -3.898  10.971  17.928  0.00  0.00    +0.000 A 
ATOM     22  C   UNL     1      -2.813  10.324  17.359  0.00  0.00    +0.000 A 
ATOM     23  C   UNL     1      -1.521  10.580  17.833  0.00  0.00    +0.000 A 
ATOM     24  C   UNL     1      -1.280  11.482  18.889  0.00  0.00    +0.000 A 
BRANCH  19  26
ATOM     25  C   UNL     1      -1.939  14.405  20.522  0.00  0.00    +0.000 C 
ATOM     26  C   UNL     1      -2.383  12.962  20.773  0.00  0.00    +0.000 C 
ATOM     27  C   UNL     1      -3.643  12.812  21.627  0.00  0.00    +0.000 C 
ENDBRANCH  19  26
ENDBRANCH  18  24
ENDBRANCH   1  18
TORSDOF 5
ENDMDL
MODEL 8
REMARK VINA RESULT:      -7.6      1.424      2.803
REMARK  Name = 
REMARK  7 active torsions:
REMARK  status: ('A' for Active; 'I' for Inactive)
REMARK    1  A    between atoms: C_1  and  C_2
REMARK    2  A    between atoms: C_2  and  C_3
REMARK    3  A    between atoms: C_2  and  C_4
REMARK    4  A    between atoms: C_9  and  S_10
REMARK    5  A    between atoms: S_10  and  C_11
REMARK    6  A    between atoms: C_12  and  O_13
REMARK    7  A    between atoms: C_15  and  C_16
REMARK                            x       y       z     vdW  Elec       q    Type
REMARK                         _______ _______ _______ _____ _____    ______ ____
ROOT
ATOM      1  C   UNL     1       1.007   9.990  19.662  0.00  0.00    +0.000 A 
ATOM      2  C   UNL     1       0.648   9.200  20.687  0.00  0.00    +0.000 A 
ATOM      3  C   UNL     1       1.106   7.848  20.804  0.00  0.00    +0.000 A 
ATOM      4  C   UNL     1       1.847   7.313  19.827  0.00  0.00    +0.000 A 
ATOM      5  O   UNL     1       2.157   8.066  18.667  0.00  0.00    +0.000 OA
ATOM      6  C   UNL     1       1.736   9.368  18.513  0.00  0.00    +0.000 A 
ATOM      7  O   UNL     1       1.957   9.969  17.466  0.00  0.00    +0.000 OA
ENDROOT
BRANCH   4   8
ATOM      8  C   UNL     1       2.429   5.955  19.894  0.00  0.00    +0.000 A 
ATOM      9  C   UNL     1       1.838   4.931  20.657  0.00  0.00    +0.000 A 
ATOM     10  C   UNL     1       2.450   3.679  20.772  0.00  0.00    +0.000 A 
ATOM     11 CL   UNL     1       1.725   2.462  21.749  0.00  0.00    +0.000 Cl
ATOM     12  C   UNL     1       3.649   3.413  20.117  0.00  0.00    +0.000 A 
ATOM     13  C   UNL     1       4.223   4.407  19.333  0.00  0.00    +0.000 A 
ATOM     14 CL   UNL     1       5.708   4.092  18.522  0.00  0.00    +0.000 Cl
ATOM     15  C   UNL     1       3.622   5.664  19.212  0.00  0.00    +0.000 A 
ENDBRANCH   4   8
BRANCH   2  16
ATOM     16  O   UNL     1      -0.182   9.585  21.712  0.00  0.00    +0.000 OA
ATOM     17  H   UNL     1      -0.734  10.315  21.371  0.00  0.00    +0.000 HD
ENDBRANCH   2  16
BRANCH   1  18
ATOM     18  S   UNL     1       0.446  11.633  19.525  0.00  0.00    +0.000 S 
BRANCH  18  24
ATOM     19  C   UNL     1      -2.373  12.112  19.562  0.00  0.00    +0.000 A 
ATOM     20  C   UNL     1      -3.668  11.895  19.018  0.00  0.00    +0.000 A 
ATOM     21  C   UNL     1      -3.877  11.025  17.955  0.00  0.00    +0.000 A 
ATOM     22  C   UNL     1      -2.800  10.358  17.394  0.00  0.00    +0.000 A 
ATOM     23  C   UNL     1      -1.507  10.588  17.879  0.00  0.00    +0.000 A 
ATOM     24  C   UNL     1      -1.257  11.484  18.938  0.00  0.00    +0.000 A 
BRANCH  19  26
ATOM     25  C   UNL     1      -1.913  14.429  20.563  0.00  0.00    +0.000 C 
ATOM     26  C   UNL     1      -2.346  12.983  20.816  0.00  0.00    +0.000 C 
ATOM     27  C   UNL     1      -3.597  12.824  21.681  0.00  0.00    +0.000 C 
ENDBRANCH  19  26
ENDBRANCH  18  24
ENDBRANCH   1  18
TORSDOF 5
ENDMDL
MODEL 9
REMARK VINA RESULT:      -7.6      6.326      9.186
REMARK  Name = 
REMARK  7 active torsions:
REMARK  status: ('A' for Active; 'I' for Inactive)
REMARK    1  A    between atoms: C_1  and  C_2
REMARK    2  A    between atoms: C_2  and  C_3
REMARK    3  A    between atoms: C_2  and  C_4
REMARK    4  A    between atoms: C_9  and  S_10
REMARK    5  A    between atoms: S_10  and  C_11
REMARK    6  A    between atoms: C_12  and  O_13
REMARK    7  A    between atoms: C_15  and  C_16
REMARK                            x       y       z     vdW  Elec       q    Type
REMARK                         _______ _______ _______ _____ _____    ______ ____
ROOT
ATOM      1  C   UNL     1       6.894   6.250  18.043  0.00  0.00    +0.000 A 
ATOM      2  C   UNL     1       7.873   6.325  18.959  0.00  0.00    +0.000 A 
ATOM      3  C   UNL     1       8.591   7.538  19.211  0.00  0.00    +0.000 A 
ATOM      4  C   UNL     1       8.348   8.619  18.461  0.00  0.00    +0.000 A 
ATOM      5  O   UNL     1       7.407   8.562  17.402  0.00  0.00    +0.000 OA
ATOM      6  C   UNL     1       6.697   7.415  17.125  0.00  0.00    +0.000 A 
ATOM      7  O   UNL     1       5.944   7.374  16.156  0.00  0.00    +0.000 OA
ENDROOT
BRANCH   4   8
ATOM      8  C   UNL     1       8.981   9.935  18.696  0.00  0.00    +0.000 A 
ATOM      9  C   UNL     1       9.571  10.671  17.653  0.00  0.00    +0.000 A 
ATOM     10  C   UNL     1      10.236  11.874  17.912  0.00  0.00    +0.000 A 
ATOM     11 CL   UNL     1      10.987  12.728  16.620  0.00  0.00    +0.000 Cl
ATOM     12  C   UNL     1      10.310  12.379  19.206  0.00  0.00    +0.000 A 
ATOM     13  C   UNL     1       9.699  11.676  20.239  0.00  0.00    +0.000 A 
ATOM     14 CL   UNL     1       9.788  12.287  21.845  0.00  0.00    +0.000 Cl
ATOM     15  C   UNL     1       9.035  10.471  19.992  0.00  0.00    +0.000 A 
ENDBRANCH   4   8
BRANCH   2  16
ATOM     16  O   UNL     1       8.293   5.271  19.737  0.00  0.00    +0.000 OA
ATOM     17  H   UNL     1       8.204   5.553  20.667  0.00  0.00    +0.000 HD
ENDBRANCH   2  16
BRANCH   1  18
ATOM     18  S   UNL     1       6.026   4.771  17.741  0.00  0.00    +0.000 S 
BRANCH  18  24
ATOM     19  C   UNL     1       3.878   3.832  19.378  0.00  0.00    +0.000 A 
ATOM     20  C   UNL     1       2.677   4.078  20.098  0.00  0.00    +0.000 A 
ATOM     21  C   UNL     1       2.073   5.329  20.103  0.00  0.00    +0.000 A 
ATOM     22  C   UNL     1       2.654   6.374  19.403  0.00  0.00    +0.000 A 
ATOM     23  C   UNL     1       3.862   6.173  18.724  0.00  0.00    +0.000 A 
ATOM     24  C   UNL     1       4.515   4.923  18.721  0.00  0.00    +0.000 A 
BRANCH  19  26
ATOM     25  C   UNL     1       4.579   1.781  20.751  0.00  0.00    +0.000 C 
ATOM     26  C   UNL     1       4.324   2.372  19.362  0.00  0.00    +0.000 C 
ATOM     27  C   UNL     1       3.478   1.500  18.434  0.00  0.00    +0.000 C 
ENDBRANCH  19  26
ENDBRANCH  18  24
ENDBRANCH   1  18
TORSDOF 5
ENDMDL
