MODEL 1
REMARK VINA RESULT:      -6.3      0.000      0.000
REMARK  Name = 
REMARK  2 active torsions:
REMARK  status: ('A' for Active; 'I' for Inactive)
REMARK    1  A    between atoms: C_2  and  OXT_3
REMARK    2  A    between atoms: C_2  and  CA_4
REMARK                            x       y       z     vdW  Elec       q    Type
REMARK                         _______ _______ _______ _____ _____    ______ ____
ROOT
ATOM      1  CA  UNL     1       5.928   4.552  17.391  0.00  0.00    +0.000 A 
ATOM      2  C   UNL     1       4.688   4.887  16.862  0.00  0.00    +0.000 A 
ATOM      3  C   UNL     1       3.718   4.388  17.778  0.00  0.00    +0.000 A 
ATOM      4  S   UNL     1       1.998   4.339  17.978  0.00  0.00    +0.000 S 
ATOM      5  C   UNL     1       2.211   3.507  19.444  0.00  0.00    +0.000 A 
ATOM      6 CL   UNL     1       0.818   3.070  20.357  0.00  0.00    +0.000 Cl
ATOM      7  C   UNL     1       3.512   3.239  19.795  0.00  0.00    +0.000 A 
ATOM      8  C   UNL     1       4.375   3.761  18.795  0.00  0.00    +0.000 A 
ATOM      9  N   UNL     1       5.721   3.821  18.542  0.00  0.00    +0.000 N 
ATOM     10  H   UNL     1       6.436   3.409  19.131  0.00  0.00    +0.000 HD
ENDROOT
BRANCH   1  12
ATOM     11  O   UNL     1       7.532   5.566  15.981  0.00  0.00    +0.000 OA
ATOM     12  C   UNL     1       7.263   4.813  16.902  0.00  0.00    +0.000 C 
BRANCH  12  13
ATOM     13  OXT UNL     1       8.196   4.073  17.544  0.00  0.00    +0.000 OA
ATOM     14  HXT UNL     1       8.571   4.529  18.319  0.00  0.00    +0.000 HD
ENDBRANCH  12  13
ENDBRANCH   1  12
TORSDOF 2
ENDMDL
MODEL 2
REMARK VINA RESULT:      -6.2      1.138      1.138
REMARK  Name = 
REMARK  2 active torsions:
REMARK  status: ('A' for Active; 'I' for Inactive)
REMARK    1  A    between atoms: C_2  and  OXT_3
REMARK    2  A    between atoms: C_2  and  CA_4
REMARK                            x       y       z     vdW  Elec       q    Type
REMARK                         _______ _______ _______ _____ _____    ______ ____
ROOT
ATOM      1  CA  UNL     1       6.036   4.877  17.991  0.00  0.00    +0.000 A 
ATOM      2  C   UNL     1       4.987   5.718  18.339  0.00  0.00    +0.000 A 
ATOM      3  C   UNL     1       4.104   4.939  19.140  0.00  0.00    +0.000 A 
ATOM      4  S   UNL     1       2.612   5.112  20.005  0.00  0.00    +0.000 S 
ATOM      5  C   UNL     1       2.734   3.490  20.499  0.00  0.00    +0.000 A 
ATOM      6 CL   UNL     1       1.505   2.841  21.516  0.00  0.00    +0.000 Cl
ATOM      7  C   UNL     1       3.830   2.804  20.035  0.00  0.00    +0.000 A 
ATOM      8  C   UNL     1       4.613   3.677  19.234  0.00  0.00    +0.000 A 
ATOM      9  N   UNL     1       5.770   3.623  18.500  0.00  0.00    +0.000 N 
ATOM     10  H   UNL     1       6.337   2.791  18.381  0.00  0.00    +0.000 HD
ENDROOT
BRANCH   1  12
ATOM     11  O   UNL     1       7.390   6.096  16.484  0.00  0.00    +0.000 OA
ATOM     12  C   UNL     1       7.223   5.127  17.205  0.00  0.00    +0.000 C 
BRANCH  12  13
ATOM     13  OXT UNL     1       8.124   4.122  17.306  0.00  0.00    +0.000 OA
ATOM     14  HXT UNL     1       8.876   4.227  16.696  0.00  0.00    +0.000 HD
ENDBRANCH  12  13
ENDBRANCH   1  12
TORSDOF 2
ENDMDL
MODEL 3
REMARK VINA RESULT:      -6.1      1.217      1.219
REMARK  Name = 
REMARK  2 active torsions:
REMARK  status: ('A' for Active; 'I' for Inactive)
REMARK    1  A    between atoms: C_2  and  OXT_3
REMARK    2  A    between atoms: C_2  and  CA_4
REMARK                            x       y       z     vdW  Elec       q    Type
REMARK                         _______ _______ _______ _____ _____    ______ ____
ROOT
ATOM      1  CA  UNL     1       5.804   4.474  16.794  0.00  0.00    +0.000 A 
ATOM      2  C   UNL     1       4.830   5.379  17.199  0.00  0.00    +0.000 A 
ATOM      3  C   UNL     1       3.702   4.600  17.585  0.00  0.00    +0.000 A 
ATOM      4  S   UNL     1       2.102   4.821  18.212  0.00  0.00    +0.000 S 
ATOM      5  C   UNL     1       1.896   3.134  18.226  0.00  0.00    +0.000 A 
ATOM      6 CL   UNL     1       0.406   2.488  18.799  0.00  0.00    +0.000 Cl
ATOM      7  C   UNL     1       2.960   2.398  17.764  0.00  0.00    +0.000 A 
ATOM      8  C   UNL     1       4.004   3.285  17.389  0.00  0.00    +0.000 A 
ATOM      9  N   UNL     1       5.269   3.205  16.867  0.00  0.00    +0.000 N 
ATOM     10  H   UNL     1       5.730   2.341  16.603  0.00  0.00    +0.000 HD
ENDROOT
BRANCH   1  12
ATOM     11  O   UNL     1       7.438   5.255  15.273  0.00  0.00    +0.000 OA
ATOM     12  C   UNL     1       7.151   4.691  16.316  0.00  0.00    +0.000 C 
BRANCH  12  13
ATOM     13  OXT UNL     1       8.077   4.138  17.132  0.00  0.00    +0.000 OA
ATOM     14  HXT UNL     1       8.246   4.673  17.929  0.00  0.00    +0.000 HD
ENDBRANCH  12  13
ENDBRANCH   1  12
TORSDOF 2
ENDMDL
MODEL 4
REMARK VINA RESULT:      -6.0      3.890      4.708
REMARK  Name = 
REMARK  2 active torsions:
REMARK  status: ('A' for Active; 'I' for Inactive)
REMARK    1  A    between atoms: C_2  and  OXT_3
REMARK    2  A    between atoms: C_2  and  CA_4
REMARK                            x       y       z     vdW  Elec       q    Type
REMARK                         _______ _______ _______ _____ _____    ______ ____
ROOT
ATOM      1  CA  UNL     1       4.009   3.024  18.252  0.00  0.00    +0.000 A 
ATOM      2  C   UNL     1       3.702   4.041  17.357  0.00  0.00    +0.000 A 
ATOM      3  C   UNL     1       4.766   4.983  17.449  0.00  0.00    +0.000 A 
ATOM      4  S   UNL     1       5.256   6.489  16.746  0.00  0.00    +0.000 S 
ATOM      5  C   UNL     1       6.658   6.460  17.707  0.00  0.00    +0.000 A 
ATOM      6 CL   UNL     1       7.791   7.747  17.555  0.00  0.00    +0.000 Cl
ATOM      7  C   UNL     1       6.779   5.385  18.554  0.00  0.00    +0.000 A 
ATOM      8  C   UNL     1       5.651   4.538  18.386  0.00  0.00    +0.000 A 
ATOM      9  N   UNL     1       5.172   3.364  18.909  0.00  0.00    +0.000 N 
ATOM     10  H   UNL     1       5.626   2.834  19.644  0.00  0.00    +0.000 HD
ENDROOT
BRANCH   1  12
ATOM     11  O   UNL     1       2.177   1.753  19.042  0.00  0.00    +0.000 OA
ATOM     12  C   UNL     1       3.301   1.804  18.570  0.00  0.00    +0.000 C 
BRANCH  12  13
ATOM     13  OXT UNL     1       4.053   0.703  18.342  0.00  0.00    +0.000 OA
ATOM     14  HXT UNL     1       4.260   0.575  17.398  0.00  0.00    +0.000 HD
ENDBRANCH  12  13
ENDBRANCH   1  12
TORSDOF 2
ENDMDL
MODEL 5
REMARK VINA RESULT:      -5.9      1.699      1.710
REMARK  Name = 
REMARK  2 active torsions:
REMARK  status: ('A' for Active; 'I' for Inactive)
REMARK    1  A    between atoms: C_2  and  OXT_3
REMARK    2  A    between atoms: C_2  and  CA_4
REMARK                            x       y       z     vdW  Elec       q    Type
REMARK                         _______ _______ _______ _____ _____    ______ ____
ROOT
ATOM      1  CA  UNL     1       5.987   5.205  18.966  0.00  0.00    +0.000 A 
ATOM      2  C   UNL     1       4.851   5.806  18.438  0.00  0.00    +0.000 A 
ATOM      3  C   UNL     1       3.819   4.827  18.499  0.00  0.00    +0.000 A 
ATOM      4  S   UNL     1       2.138   4.659  18.113  0.00  0.00    +0.000 S 
ATOM      5  C   UNL     1       2.182   3.065  18.702  0.00  0.00    +0.000 A 
ATOM      6 CL   UNL     1       0.733   2.135  18.677  0.00  0.00    +0.000 Cl
ATOM      7  C   UNL     1       3.402   2.632  19.162  0.00  0.00    +0.000 A 
ATOM      8  C   UNL     1       4.345   3.684  19.024  0.00  0.00    +0.000 A 
ATOM      9  N   UNL     1       5.677   3.896  19.271  0.00  0.00    +0.000 N 
ATOM     10  H   UNL     1       6.313   3.197  19.641  0.00  0.00    +0.000 HD
ENDROOT
BRANCH   1  12
ATOM     11  O   UNL     1       7.951   6.363  18.342  0.00  0.00    +0.000 OA
ATOM     12  C   UNL     1       7.321   5.723  19.167  0.00  0.00    +0.000 C 
BRANCH  12  13
ATOM     13  OXT UNL     1       7.832   5.366  20.368  0.00  0.00    +0.000 OA
ATOM     14  HXT UNL     1       8.093   6.132  20.910  0.00  0.00    +0.000 HD
ENDBRANCH  12  13
ENDBRANCH   1  12
TORSDOF 2
ENDMDL
MODEL 6
REMARK VINA RESULT:      -5.8      1.396      1.576
REMARK  Name = 
REMARK  2 active torsions:
REMARK  status: ('A' for Active; 'I' for Inactive)
REMARK    1  A    between atoms: C_2  and  OXT_3
REMARK    2  A    between atoms: C_2  and  CA_4
REMARK                            x       y       z     vdW  Elec       q    Type
REMARK                         _______ _______ _______ _____ _____    ______ ____
ROOT
ATOM      1  CA  UNL     1       6.075   4.691  18.332  0.00  0.00    +0.000 A 
ATOM      2  C   UNL     1       5.145   5.213  19.222  0.00  0.00    +0.000 A 
ATOM      3  C   UNL     1       3.962   4.437  19.059  0.00  0.00    +0.000 A 
ATOM      4  S   UNL     1       2.360   4.327  19.709  0.00  0.00    +0.000 S 
ATOM      5  C   UNL     1       2.054   3.009  18.679  0.00  0.00    +0.000 A 
ATOM      6 CL   UNL     1       0.512   2.245  18.750  0.00  0.00    +0.000 Cl
ATOM      7  C   UNL     1       3.086   2.649  17.848  0.00  0.00    +0.000 A 
ATOM      8  C   UNL     1       4.191   3.508  18.087  0.00  0.00    +0.000 A 
ATOM      9  N   UNL     1       5.464   3.686  17.611  0.00  0.00    +0.000 N 
ATOM     10  H   UNL     1       5.881   3.142  16.863  0.00  0.00    +0.000 HD
ENDROOT
BRANCH   1  12
ATOM     11  O   UNL     1       7.964   6.110  18.442  0.00  0.00    +0.000 OA
ATOM     12  C   UNL     1       7.446   5.069  18.072  0.00  0.00    +0.000 C 
BRANCH  12  13
ATOM     13  OXT UNL     1       8.091   4.159  17.307  0.00  0.00    +0.000 OA
ATOM     14  HXT UNL     1       9.011   4.011  17.591  0.00  0.00    +0.000 HD
ENDBRANCH  12  13
ENDBRANCH   1  12
TORSDOF 2
ENDMDL
MODEL 7
REMARK VINA RESULT:      -5.6      1.512      1.691
REMARK  Name = 
REMARK  2 active torsions:
REMARK  status: ('A' for Active; 'I' for Inactive)
REMARK    1  A    between atoms: C_2  and  OXT_3
REMARK    2  A    between atoms: C_2  and  CA_4
REMARK                            x       y       z     vdW  Elec       q    Type
REMARK                         _______ _______ _______ _____ _____    ______ ____
ROOT
ATOM      1  CA  UNL     1       5.544   4.617  16.094  0.00  0.00    +0.000 A 
ATOM      2  C   UNL     1       4.823   5.727  16.517  0.00  0.00    +0.000 A 
ATOM      3  C   UNL     1       3.902   5.252  17.494  0.00  0.00    +0.000 A 
ATOM      4  S   UNL     1       2.665   5.861  18.544  0.00  0.00    +0.000 S 
ATOM      5  C   UNL     1       2.429   4.289  19.146  0.00  0.00    +0.000 A 
ATOM      6 CL   UNL     1       1.248   4.043  20.375  0.00  0.00    +0.000 Cl
ATOM      7  C   UNL     1       3.217   3.312  18.589  0.00  0.00    +0.000 A 
ATOM      8  C   UNL     1       4.068   3.904  17.618  0.00  0.00    +0.000 A 
ATOM      9  N   UNL     1       5.038   3.506  16.735  0.00  0.00    +0.000 N 
ATOM     10  H   UNL     1       5.339   2.546  16.605  0.00  0.00    +0.000 HD
ENDROOT
BRANCH   1  12
ATOM     11  O   UNL     1       7.574   5.251  15.061  0.00  0.00    +0.000 OA
ATOM     12  C   UNL     1       6.615   4.501  15.131  0.00  0.00    +0.000 C 
BRANCH  12  13
ATOM     13  OXT UNL     1       6.409   3.489  14.257  0.00  0.00    +0.000 OA
ATOM     14  HXT UNL     1       5.464   3.311  14.101  0.00  0.00    +0.000 HD
ENDBRANCH  12  13
ENDBRANCH   1  12
TORSDOF 2
ENDMDL
MODEL 8
REMARK VINA RESULT:      -5.6      1.339      1.602
REMARK  Name = 
REMARK  2 active torsions:
REMARK  status: ('A' for Active; 'I' for Inactive)
REMARK    1  A    between atoms: C_2  and  OXT_3
REMARK    2  A    between atoms: C_2  and  CA_4
REMARK                            x       y       z     vdW  Elec       q    Type
REMARK                         _______ _______ _______ _____ _____    ______ ____
ROOT
ATOM      1  CA  UNL     1       5.908   4.843  17.396  0.00  0.00    +0.000 A 
ATOM      2  C   UNL     1       5.501   4.778  18.722  0.00  0.00    +0.000 A 
ATOM      3  C   UNL     1       4.217   4.163  18.713  0.00  0.00    +0.000 A 
ATOM      4  S   UNL     1       2.988   3.664  19.828  0.00  0.00    +0.000 S 
ATOM      5  C   UNL     1       2.067   3.083  18.523  0.00  0.00    +0.000 A 
ATOM      6 CL   UNL     1       0.547   2.341  18.849  0.00  0.00    +0.000 Cl
ATOM      7  C   UNL     1       2.619   3.258  17.278  0.00  0.00    +0.000 A 
ATOM      8  C   UNL     1       3.878   3.900  17.419  0.00  0.00    +0.000 A 
ATOM      9  N   UNL     1       4.888   4.352  16.608  0.00  0.00    +0.000 N 
ATOM     10  H   UNL     1       4.878   4.303  15.595  0.00  0.00    +0.000 HD
ENDROOT
BRANCH   1  12
ATOM     11  O   UNL     1       7.316   6.517  16.496  0.00  0.00    +0.000 OA
ATOM     12  C   UNL     1       7.126   5.353  16.808  0.00  0.00    +0.000 C 
BRANCH  12  13
ATOM     13  OXT UNL     1       8.030   4.373  16.577  0.00  0.00    +0.000 OA
ATOM     14  HXT UNL     1       7.618   3.498  16.466  0.00  0.00    +0.000 HD
ENDBRANCH  12  13
ENDBRANCH   1  12
TORSDOF 2
ENDMDL
MODEL 9
REMARK VINA RESULT:      -5.5      4.378      5.162
REMARK  Name = 
REMARK  2 active torsions:
REMARK  status: ('A' for Active; 'I' for Inactive)
REMARK    1  A    between atoms: C_2  and  OXT_3
REMARK    2  A    between atoms: C_2  and  CA_4
REMARK                            x       y       z     vdW  Elec       q    Type
REMARK                         _______ _______ _______ _____ _____    ______ ____
ROOT
ATOM      1  CA  UNL     1       2.083   3.760  18.869  0.00  0.00    +0.000 A 
ATOM      2  C   UNL     1       2.235   4.662  17.824  0.00  0.00    +0.000 A 
ATOM      3  C   UNL     1       3.576   5.135  17.901  0.00  0.00    +0.000 A 
ATOM      4  S   UNL     1       4.643   6.212  17.061  0.00  0.00    +0.000 S 
ATOM      5  C   UNL     1       5.880   5.809  18.156  0.00  0.00    +0.000 A 
ATOM      6 CL   UNL     1       7.430   6.532  17.955  0.00  0.00    +0.000 Cl
ATOM      7  C   UNL     1       5.537   4.917  19.142  0.00  0.00    +0.000 A 
ATOM      8  C   UNL     1       4.177   4.544  18.972  0.00  0.00    +0.000 A 
ATOM      9  N   UNL     1       3.258   3.736  19.591  0.00  0.00    +0.000 N 
ATOM     10  H   UNL     1       3.438   3.198  20.432  0.00  0.00    +0.000 HD
ENDROOT
BRANCH   1  12
ATOM     11  O   UNL     1       0.300   2.246  18.523  0.00  0.00    +0.000 OA
ATOM     12  C   UNL     1       0.944   2.965  19.269  0.00  0.00    +0.000 C 
BRANCH  12  13
ATOM     13  OXT UNL     1       0.622   3.152  20.570  0.00  0.00    +0.000 OA
ATOM     14  HXT UNL     1      -0.168   3.710  20.687  0.00  0.00    +0.000 HD
ENDBRANCH  12  13
ENDBRANCH   1  12
TORSDOF 2
ENDMDL
