MODEL 1
REMARK VINA RESULT:      -7.6      0.000      0.000
REMARK  Name = 
REMARK  6 active torsions:
REMARK  status: ('A' for Active; 'I' for Inactive)
REMARK    1  A    between atoms: C_1  and  S_2
REMARK    2  A    between atoms: S_2  and  C_5
REMARK    3  A    between atoms: C_8  and  C_9
REMARK    4  A    between atoms: C_9  and  C_17
REMARK    5  A    between atoms: C_10  and  C_11
REMARK    6  A    between atoms: C_17  and  O_19
REMARK                            x       y       z     vdW  Elec       q    Type
REMARK                         _______ _______ _______ _____ _____    ______ ____
ROOT
ATOM      1  C   UNL     1       2.156   6.669  19.910  0.00  0.00    +0.000 C 
ATOM      2  C   UNL     1       1.279   5.751  20.362  0.00  0.00    +0.000 C 
ENDROOT
BRANCH   1   6
ATOM      3  C   UNL     1       5.594   5.586  17.628  0.00  0.00    +0.000 A 
ATOM      4  C   UNL     1       4.631   6.431  17.072  0.00  0.00    +0.000 A 
ATOM      5  C   UNL     1       3.517   6.795  17.831  0.00  0.00    +0.000 A 
ATOM      6  C   UNL     1       3.350   6.299  19.133  0.00  0.00    +0.000 A 
ATOM      7  C   UNL     1       4.330   5.457  19.680  0.00  0.00    +0.000 A 
ATOM      8  C   UNL     1       5.451   5.094  18.928  0.00  0.00    +0.000 A 
BRANCH   3  10
ATOM      9  C   UNL     1       6.301   4.016  15.459  0.00  0.00    +0.000 C 
ATOM     10  S   UNL     1       7.009   5.116  16.658  0.00  0.00    +0.000 S 
ATOM     11  O   UNL     1       7.890   4.346  17.516  0.00  0.00    +0.000 OA
ATOM     12  O   UNL     1       7.482   6.300  15.969  0.00  0.00    +0.000 OA
ENDBRANCH   3  10
ENDBRANCH   1   6
BRANCH   2  13
ATOM     13  C   UNL     1       1.326   4.290  20.240  0.00  0.00    +0.000 A 
ATOM     14  C   UNL     1       1.057   3.686  19.005  0.00  0.00    +0.000 A 
ATOM     15  C   UNL     1       1.285   2.320  18.826  0.00  0.00    +0.000 A 
ATOM     16  C   UNL     1       1.775   1.549  19.878  0.00  0.00    +0.000 A 
ATOM     17  C   UNL     1       2.016   2.138  21.118  0.00  0.00    +0.000 A 
ATOM     18  C   UNL     1       1.788   3.506  21.302  0.00  0.00    +0.000 A 
ENDBRANCH   2  13
BRANCH   1  19
ATOM     19  C   UNL     1       1.813   8.091  20.248  0.00  0.00    +0.000 C 
ATOM     20  O   UNL     1       1.527   8.938  19.419  0.00  0.00    +0.000 OA
BRANCH  19  21
ATOM     21  O   UNL     1       1.846   8.380  21.566  0.00  0.00    +0.000 OA
ATOM     22  H   UNL     1       1.279   7.823  22.128  0.00  0.00    +0.000 HD
ENDBRANCH  19  21
ENDBRANCH   1  19
TORSDOF 5
ENDMDL
MODEL 2
REMARK VINA RESULT:      -7.6      2.188      3.976
REMARK  Name = 
REMARK  6 active torsions:
REMARK  status: ('A' for Active; 'I' for Inactive)
REMARK    1  A    between atoms: C_1  and  S_2
REMARK    2  A    between atoms: S_2  and  C_5
REMARK    3  A    between atoms: C_8  and  C_9
REMARK    4  A    between atoms: C_9  and  C_17
REMARK    5  A    between atoms: C_10  and  C_11
REMARK    6  A    between atoms: C_17  and  O_19
REMARK                            x       y       z     vdW  Elec       q    Type
REMARK                         _______ _______ _______ _____ _____    ______ ____
ROOT
ATOM      1  C   UNL     1       2.515   4.556  20.289  0.00  0.00    +0.000 C 
ATOM      2  C   UNL     1       1.751   5.630  20.570  0.00  0.00    +0.000 C 
ENDROOT
BRANCH   1   6
ATOM      3  C   UNL     1       5.710   4.748  17.468  0.00  0.00    +0.000 A 
ATOM      4  C   UNL     1       5.872   5.306  18.738  0.00  0.00    +0.000 A 
ATOM      5  C   UNL     1       4.829   5.224  19.662  0.00  0.00    +0.000 A 
ATOM      6  C   UNL     1       3.617   4.609  19.314  0.00  0.00    +0.000 A 
ATOM      7  C   UNL     1       3.472   4.046  18.037  0.00  0.00    +0.000 A 
ATOM      8  C   UNL     1       4.515   4.119  17.109  0.00  0.00    +0.000 A 
BRANCH   3  10
ATOM      9  C   UNL     1       6.386   3.967  14.899  0.00  0.00    +0.000 C 
ATOM     10  S   UNL     1       7.037   4.858  16.288  0.00  0.00    +0.000 S 
ATOM     11  O   UNL     1       8.160   4.111  16.821  0.00  0.00    +0.000 OA
ATOM     12  O   UNL     1       7.175   6.251  15.912  0.00  0.00    +0.000 OA
ENDBRANCH   3  10
ENDBRANCH   1   6
BRANCH   2  13
ATOM     13  C   UNL     1       1.799   6.975  19.988  0.00  0.00    +0.000 A 
ATOM     14  C   UNL     1       2.147   7.139  18.642  0.00  0.00    +0.000 A 
ATOM     15  C   UNL     1       2.011   8.384  18.026  0.00  0.00    +0.000 A 
ATOM     16  C   UNL     1       1.532   9.474  18.751  0.00  0.00    +0.000 A 
ATOM     17  C   UNL     1       1.212   9.325  20.100  0.00  0.00    +0.000 A 
ATOM     18  C   UNL     1       1.348   8.079  20.720  0.00  0.00    +0.000 A 
ENDBRANCH   2  13
BRANCH   1  19
ATOM     19  C   UNL     1       2.166   3.313  21.055  0.00  0.00    +0.000 C 
ATOM     20  O   UNL     1       2.981   2.629  21.653  0.00  0.00    +0.000 OA
BRANCH  19  21
ATOM     21  O   UNL     1       0.856   2.990  21.038  0.00  0.00    +0.000 OA
ATOM     22  H   UNL     1       0.658   2.066  20.803  0.00  0.00    +0.000 HD
ENDBRANCH  19  21
ENDBRANCH   1  19
TORSDOF 5
ENDMDL
MODEL 3
REMARK VINA RESULT:      -7.5      0.129      1.065
REMARK  Name = 
REMARK  6 active torsions:
REMARK  status: ('A' for Active; 'I' for Inactive)
REMARK    1  A    between atoms: C_1  and  S_2
REMARK    2  A    between atoms: S_2  and  C_5
REMARK    3  A    between atoms: C_8  and  C_9
REMARK    4  A    between atoms: C_9  and  C_17
REMARK    5  A    between atoms: C_10  and  C_11
REMARK    6  A    between atoms: C_17  and  O_19
REMARK                            x       y       z     vdW  Elec       q    Type
REMARK                         _______ _______ _______ _____ _____    ______ ____
ROOT
ATOM      1  C   UNL     1       2.183   6.659  19.866  0.00  0.00    +0.000 C 
ATOM      2  C   UNL     1       1.305   5.738  20.310  0.00  0.00    +0.000 C 
ENDROOT
BRANCH   1   6
ATOM      3  C   UNL     1       5.640   5.622  17.590  0.00  0.00    +0.000 A 
ATOM      4  C   UNL     1       5.529   5.196  18.916  0.00  0.00    +0.000 A 
ATOM      5  C   UNL     1       4.387   5.524  19.649  0.00  0.00    +0.000 A 
ATOM      6  C   UNL     1       3.368   6.296  19.071  0.00  0.00    +0.000 A 
ATOM      7  C   UNL     1       3.491   6.711  17.736  0.00  0.00    +0.000 A 
ATOM      8  C   UNL     1       4.628   6.380  16.995  0.00  0.00    +0.000 A 
BRANCH   3  10
ATOM      9  C   UNL     1       6.436   4.244  15.325  0.00  0.00    +0.000 C 
ATOM     10  S   UNL     1       7.098   5.210  16.658  0.00  0.00    +0.000 S 
ATOM     11  O   UNL     1       7.915   4.342  17.485  0.00  0.00    +0.000 OA
ATOM     12  O   UNL     1       7.630   6.440  16.109  0.00  0.00    +0.000 OA
ENDBRANCH   3  10
ENDBRANCH   1   6
BRANCH   2  13
ATOM     13  C   UNL     1       1.342   4.279  20.162  0.00  0.00    +0.000 A 
ATOM     14  C   UNL     1       1.078   3.700  18.915  0.00  0.00    +0.000 A 
ATOM     15  C   UNL     1       1.297   2.336  18.713  0.00  0.00    +0.000 A 
ATOM     16  C   UNL     1       1.775   1.542  19.754  0.00  0.00    +0.000 A 
ATOM     17  C   UNL     1       2.011   2.108  21.007  0.00  0.00    +0.000 A 
ATOM     18  C   UNL     1       1.792   3.473  21.213  0.00  0.00    +0.000 A 
ENDBRANCH   2  13
BRANCH   1  19
ATOM     19  C   UNL     1       1.852   8.077  20.232  0.00  0.00    +0.000 C 
ATOM     20  O   UNL     1       1.701   8.973  19.418  0.00  0.00    +0.000 OA
BRANCH  19  21
ATOM     21  O   UNL     1       1.731   8.303  21.557  0.00  0.00    +0.000 OA
ATOM     22  H   UNL     1       2.426   7.908  22.112  0.00  0.00    +0.000 HD
ENDBRANCH  19  21
ENDBRANCH   1  19
TORSDOF 5
ENDMDL
MODEL 4
REMARK VINA RESULT:      -7.5      2.159      3.948
REMARK  Name = 
REMARK  6 active torsions:
REMARK  status: ('A' for Active; 'I' for Inactive)
REMARK    1  A    between atoms: C_1  and  S_2
REMARK    2  A    between atoms: S_2  and  C_5
REMARK    3  A    between atoms: C_8  and  C_9
REMARK    4  A    between atoms: C_9  and  C_17
REMARK    5  A    between atoms: C_10  and  C_11
REMARK    6  A    between atoms: C_17  and  O_19
REMARK                            x       y       z     vdW  Elec       q    Type
REMARK                         _______ _______ _______ _____ _____    ______ ____
ROOT
ATOM      1  C   UNL     1       2.363   4.784  20.222  0.00  0.00    +0.000 C 
ATOM      2  C   UNL     1       1.618   5.876  20.487  0.00  0.00    +0.000 C 
ENDROOT
BRANCH   1   6
ATOM      3  C   UNL     1       5.626   4.831  17.474  0.00  0.00    +0.000 A 
ATOM      4  C   UNL     1       4.390   4.321  17.073  0.00  0.00    +0.000 A 
ATOM      5  C   UNL     1       3.321   4.325  17.972  0.00  0.00    +0.000 A 
ATOM      6  C   UNL     1       3.492   4.814  19.276  0.00  0.00    +0.000 A 
ATOM      7  C   UNL     1       4.738   5.328  19.663  0.00  0.00    +0.000 A 
ATOM      8  C   UNL     1       5.810   5.334  18.765  0.00  0.00    +0.000 A 
BRANCH   3  10
ATOM      9  C   UNL     1       6.367   3.815  15.007  0.00  0.00    +0.000 C 
ATOM     10  S   UNL     1       6.989   4.819  16.331  0.00  0.00    +0.000 S 
ATOM     11  O   UNL     1       8.084   4.108  16.963  0.00  0.00    +0.000 OA
ATOM     12  O   UNL     1       7.160   6.171  15.837  0.00  0.00    +0.000 OA
ENDBRANCH   3  10
ENDBRANCH   1   6
BRANCH   2  13
ATOM     13  C   UNL     1       1.713   7.221  19.911  0.00  0.00    +0.000 A 
ATOM     14  C   UNL     1       2.120   7.381  18.581  0.00  0.00    +0.000 A 
ATOM     15  C   UNL     1       2.031   8.630  17.963  0.00  0.00    +0.000 A 
ATOM     16  C   UNL     1       1.541   9.726  18.670  0.00  0.00    +0.000 A 
ATOM     17  C   UNL     1       1.161   9.580  20.004  0.00  0.00    +0.000 A 
ATOM     18  C   UNL     1       1.250   8.331  20.626  0.00  0.00    +0.000 A 
ENDBRANCH   2  13
BRANCH   1  19
ATOM     19  C   UNL     1       1.964   3.548  20.975  0.00  0.00    +0.000 C 
ATOM     20  O   UNL     1       2.636   3.042  21.858  0.00  0.00    +0.000 OA
BRANCH  19  21
ATOM     21  O   UNL     1       0.783   3.016  20.598  0.00  0.00    +0.000 OA
ATOM     22  H   UNL     1       0.628   2.985  19.638  0.00  0.00    +0.000 HD
ENDBRANCH  19  21
ENDBRANCH   1  19
TORSDOF 5
ENDMDL
MODEL 5
REMARK VINA RESULT:      -7.5      3.118      6.445
REMARK  Name = 
REMARK  6 active torsions:
REMARK  status: ('A' for Active; 'I' for Inactive)
REMARK    1  A    between atoms: C_1  and  S_2
REMARK    2  A    between atoms: S_2  and  C_5
REMARK    3  A    between atoms: C_8  and  C_9
REMARK    4  A    between atoms: C_9  and  C_17
REMARK    5  A    between atoms: C_10  and  C_11
REMARK    6  A    between atoms: C_17  and  O_19
REMARK                            x       y       z     vdW  Elec       q    Type
REMARK                         _______ _______ _______ _____ _____    ______ ____
ROOT
ATOM      1  C   UNL     1       3.051   4.563  18.082  0.00  0.00    +0.000 C 
ATOM      2  C   UNL     1       4.332   4.443  17.679  0.00  0.00    +0.000 C 
ENDROOT
BRANCH   1   6
ATOM      3  C   UNL     1       1.651   7.880  20.372  0.00  0.00    +0.000 A 
ATOM      4  C   UNL     1       1.702   6.610  20.950  0.00  0.00    +0.000 A 
ATOM      5  C   UNL     1       2.178   5.532  20.201  0.00  0.00    +0.000 A 
ATOM      6  C   UNL     1       2.579   5.714  18.869  0.00  0.00    +0.000 A 
ATOM      7  C   UNL     1       2.528   6.997  18.303  0.00  0.00    +0.000 A 
ATOM      8  C   UNL     1       2.060   8.081  19.051  0.00  0.00    +0.000 A 
BRANCH   3  10
ATOM      9  C   UNL     1      -0.624   8.749  21.688  0.00  0.00    +0.000 C 
ATOM     10  S   UNL     1       1.039   9.251  21.324  0.00  0.00    +0.000 S 
ATOM     11  O   UNL     1       0.983  10.404  20.445  0.00  0.00    +0.000 OA
ATOM     12  O   UNL     1       1.785   9.292  22.566  0.00  0.00    +0.000 OA
ENDBRANCH   3  10
ENDBRANCH   1   6
BRANCH   2  13
ATOM     13  C   UNL     1       5.470   5.328  17.945  0.00  0.00    +0.000 A 
ATOM     14  C   UNL     1       6.240   5.143  19.100  0.00  0.00    +0.000 A 
ATOM     15  C   UNL     1       7.434   5.847  19.271  0.00  0.00    +0.000 A 
ATOM     16  C   UNL     1       7.862   6.743  18.293  0.00  0.00    +0.000 A 
ATOM     17  C   UNL     1       7.085   6.954  17.155  0.00  0.00    +0.000 A 
ATOM     18  C   UNL     1       5.889   6.251  16.981  0.00  0.00    +0.000 A 
ENDBRANCH   2  13
BRANCH   1  19
ATOM     19  C   UNL     1       2.146   3.443  17.656  0.00  0.00    +0.000 C 
ATOM     20  O   UNL     1       0.936   3.551  17.541  0.00  0.00    +0.000 OA
BRANCH  19  21
ATOM     21  O   UNL     1       2.775   2.276  17.404  0.00  0.00    +0.000 OA
ATOM     22  H   UNL     1       2.476   1.807  16.605  0.00  0.00    +0.000 HD
ENDBRANCH  19  21
ENDBRANCH   1  19
TORSDOF 5
ENDMDL
MODEL 6
REMARK VINA RESULT:      -7.4      3.160      6.361
REMARK  Name = 
REMARK  6 active torsions:
REMARK  status: ('A' for Active; 'I' for Inactive)
REMARK    1  A    between atoms: C_1  and  S_2
REMARK    2  A    between atoms: S_2  and  C_5
REMARK    3  A    between atoms: C_8  and  C_9
REMARK    4  A    between atoms: C_9  and  C_17
REMARK    5  A    between atoms: C_10  and  C_11
REMARK    6  A    between atoms: C_17  and  O_19
REMARK                            x       y       z     vdW  Elec       q    Type
REMARK                         _______ _______ _______ _____ _____    ______ ____
ROOT
ATOM      1  C   UNL     1       3.214   4.486  18.105  0.00  0.00    +0.000 C 
ATOM      2  C   UNL     1       4.515   4.439  17.755  0.00  0.00    +0.000 C 
ENDROOT
BRANCH   1   6
ATOM      3  C   UNL     1       1.622   7.713  20.397  0.00  0.00    +0.000 A 
ATOM      4  C   UNL     1       2.050   7.938  19.087  0.00  0.00    +0.000 A 
ATOM      5  C   UNL     1       2.553   6.874  18.337  0.00  0.00    +0.000 A 
ATOM      6  C   UNL     1       2.653   5.593  18.899  0.00  0.00    +0.000 A 
ATOM      7  C   UNL     1       2.214   5.380  20.214  0.00  0.00    +0.000 A 
ATOM      8  C   UNL     1       1.702   6.440  20.968  0.00  0.00    +0.000 A 
BRANCH   3  10
ATOM      9  C   UNL     1       0.877  10.369  20.151  0.00  0.00    +0.000 C 
ATOM     10  S   UNL     1       0.987   9.070  21.356  0.00  0.00    +0.000 S 
ATOM     11  O   UNL     1       2.003   9.435  22.324  0.00  0.00    +0.000 OA
ATOM     12  O   UNL     1      -0.356   8.722  21.775  0.00  0.00    +0.000 OA
ENDBRANCH   3  10
ENDBRANCH   1   6
BRANCH   2  13
ATOM     13  C   UNL     1       5.597   5.370  18.092  0.00  0.00    +0.000 A 
ATOM     14  C   UNL     1       6.390   5.136  19.222  0.00  0.00    +0.000 A 
ATOM     15  C   UNL     1       7.537   5.900  19.447  0.00  0.00    +0.000 A 
ATOM     16  C   UNL     1       7.895   6.905  18.550  0.00  0.00    +0.000 A 
ATOM     17  C   UNL     1       7.093   7.163  17.439  0.00  0.00    +0.000 A 
ATOM     18  C   UNL     1       5.943   6.401  17.211  0.00  0.00    +0.000 A 
ENDBRANCH   2  13
BRANCH   1  19
ATOM     19  C   UNL     1       2.384   3.336  17.612  0.00  0.00    +0.000 C 
ATOM     20  O   UNL     1       2.819   2.211  17.432  0.00  0.00    +0.000 OA
BRANCH  19  21
ATOM     21  O   UNL     1       1.090   3.637  17.374  0.00  0.00    +0.000 OA
ATOM     22  H   UNL     1       0.448   2.959  17.647  0.00  0.00    +0.000 HD
ENDBRANCH  19  21
ENDBRANCH   1  19
TORSDOF 5
ENDMDL
MODEL 7
REMARK VINA RESULT:      -7.3      2.627      5.484
REMARK  Name = 
REMARK  6 active torsions:
REMARK  status: ('A' for Active; 'I' for Inactive)
REMARK    1  A    between atoms: C_1  and  S_2
REMARK    2  A    between atoms: S_2  and  C_5
REMARK    3  A    between atoms: C_8  and  C_9
REMARK    4  A    between atoms: C_9  and  C_17
REMARK    5  A    between atoms: C_10  and  C_11
REMARK    6  A    between atoms: C_17  and  O_19
REMARK                            x       y       z     vdW  Elec       q    Type
REMARK                         _______ _______ _______ _____ _____    ______ ____
ROOT
ATOM      1  C   UNL     1       4.100   6.166  17.494  0.00  0.00    +0.000 C 
ATOM      2  C   UNL     1       4.051   4.823  17.600  0.00  0.00    +0.000 C 
ENDROOT
BRANCH   1   6
ATOM      3  C   UNL     1       1.371   8.745  19.520  0.00  0.00    +0.000 A 
ATOM      4  C   UNL     1       1.713   9.004  18.192  0.00  0.00    +0.000 A 
ATOM      5  C   UNL     1       2.593   8.146  17.529  0.00  0.00    +0.000 A 
ATOM      6  C   UNL     1       3.151   7.046  18.197  0.00  0.00    +0.000 A 
ATOM      7  C   UNL     1       2.793   6.794  19.530  0.00  0.00    +0.000 A 
ATOM      8  C   UNL     1       1.907   7.646  20.197  0.00  0.00    +0.000 A 
BRANCH   3  10
ATOM      9  C   UNL     1      -0.256   8.866  21.758  0.00  0.00    +0.000 C 
ATOM     10  S   UNL     1       0.256   9.842  20.367  0.00  0.00    +0.000 S 
ATOM     11  O   UNL     1      -0.895  10.045  19.507  0.00  0.00    +0.000 OA
ATOM     12  O   UNL     1       1.031  10.964  20.857  0.00  0.00    +0.000 OA
ENDBRANCH   3  10
ENDBRANCH   1   6
BRANCH   2  13
ATOM     13  C   UNL     1       3.095   3.989  18.336  0.00  0.00    +0.000 A 
ATOM     14  C   UNL     1       3.417   3.527  19.617  0.00  0.00    +0.000 A 
ATOM     15  C   UNL     1       2.449   2.899  20.403  0.00  0.00    +0.000 A 
ATOM     16  C   UNL     1       1.157   2.723  19.912  0.00  0.00    +0.000 A 
ATOM     17  C   UNL     1       0.837   3.154  18.625  0.00  0.00    +0.000 A 
ATOM     18  C   UNL     1       1.805   3.783  17.835  0.00  0.00    +0.000 A 
ENDBRANCH   2  13
BRANCH   1  19
ATOM     19  C   UNL     1       5.202   6.692  16.620  0.00  0.00    +0.000 C 
ATOM     20  O   UNL     1       5.130   6.765  15.404  0.00  0.00    +0.000 OA
BRANCH  19  21
ATOM     21  O   UNL     1       6.307   7.089  17.284  0.00  0.00    +0.000 OA
ATOM     22  H   UNL     1       6.946   7.604  16.760  0.00  0.00    +0.000 HD
ENDBRANCH  19  21
ENDBRANCH   1  19
TORSDOF 5
ENDMDL
MODEL 8
REMARK VINA RESULT:      -7.3      3.287      6.425
REMARK  Name = 
REMARK  6 active torsions:
REMARK  status: ('A' for Active; 'I' for Inactive)
REMARK    1  A    between atoms: C_1  and  S_2
REMARK    2  A    between atoms: S_2  and  C_5
REMARK    3  A    between atoms: C_8  and  C_9
REMARK    4  A    between atoms: C_9  and  C_17
REMARK    5  A    between atoms: C_10  and  C_11
REMARK    6  A    between atoms: C_17  and  O_19
REMARK                            x       y       z     vdW  Elec       q    Type
REMARK                         _______ _______ _______ _____ _____    ______ ____
ROOT
ATOM      1  C   UNL     1       2.932   5.045  18.144  0.00  0.00    +0.000 C 
ATOM      2  C   UNL     1       4.232   4.758  17.936  0.00  0.00    +0.000 C 
ENDROOT
BRANCH   1   6
ATOM      3  C   UNL     1       1.597   8.891  19.421  0.00  0.00    +0.000 A 
ATOM      4  C   UNL     1       1.799   7.879  20.362  0.00  0.00    +0.000 A 
ATOM      5  C   UNL     1       2.253   6.628  19.939  0.00  0.00    +0.000 A 
ATOM      6  C   UNL     1       2.481   6.378  18.578  0.00  0.00    +0.000 A 
ATOM      7  C   UNL     1       2.280   7.406  17.645  0.00  0.00    +0.000 A 
ATOM      8  C   UNL     1       1.832   8.663  18.063  0.00  0.00    +0.000 A 
BRANCH   3  10
ATOM      9  C   UNL     1      -0.727  10.385  19.616  0.00  0.00    +0.000 C 
ATOM     10  S   UNL     1       1.012  10.482  19.960  0.00  0.00    +0.000 S 
ATOM     11  O   UNL     1       1.592  11.481  19.083  0.00  0.00    +0.000 OA
ATOM     12  O   UNL     1       1.189  10.553  21.396  0.00  0.00    +0.000 OA
ENDBRANCH   3  10
ENDBRANCH   1   6
BRANCH   2  13
ATOM     13  C   UNL     1       5.409   5.613  18.122  0.00  0.00    +0.000 A 
ATOM     14  C   UNL     1       6.323   5.326  19.143  0.00  0.00    +0.000 A 
ATOM     15  C   UNL     1       7.539   6.010  19.211  0.00  0.00    +0.000 A 
ATOM     16  C   UNL     1       7.845   6.988  18.267  0.00  0.00    +0.000 A 
ATOM     17  C   UNL     1       6.925   7.300  17.266  0.00  0.00    +0.000 A 
ATOM     18  C   UNL     1       5.707   6.618  17.195  0.00  0.00    +0.000 A 
ENDBRANCH   2  13
BRANCH   1  19
ATOM     19  C   UNL     1       1.984   3.910  17.886  0.00  0.00    +0.000 C 
ATOM     20  O   UNL     1       1.042   3.631  18.610  0.00  0.00    +0.000 OA
BRANCH  19  21
ATOM     21  O   UNL     1       2.249   3.198  16.771  0.00  0.00    +0.000 OA
ATOM     22  H   UNL     1       2.111   3.671  15.932  0.00  0.00    +0.000 HD
ENDBRANCH  19  21
ENDBRANCH   1  19
TORSDOF 5
ENDMDL
MODEL 9
REMARK VINA RESULT:      -7.3      3.098      6.404
REMARK  Name = 
REMARK  6 active torsions:
REMARK  status: ('A' for Active; 'I' for Inactive)
REMARK    1  A    between atoms: C_1  and  S_2
REMARK    2  A    between atoms: S_2  and  C_5
REMARK    3  A    between atoms: C_8  and  C_9
REMARK    4  A    between atoms: C_9  and  C_17
REMARK    5  A    between atoms: C_10  and  C_11
REMARK    6  A    between atoms: C_17  and  O_19
REMARK                            x       y       z     vdW  Elec       q    Type
REMARK                         _______ _______ _______ _____ _____    ______ ____
ROOT
ATOM      1  C   UNL     1       3.090   4.127  18.260  0.00  0.00    +0.000 C 
ATOM      2  C   UNL     1       4.358   4.067  17.807  0.00  0.00    +0.000 C 
ENDROOT
BRANCH   1   6
ATOM      3  C   UNL     1       1.569   7.465  20.439  0.00  0.00    +0.000 A 
ATOM      4  C   UNL     1       1.565   6.196  21.022  0.00  0.00    +0.000 A 
ATOM      5  C   UNL     1       2.081   5.111  20.311  0.00  0.00    +0.000 A 
ATOM      6  C   UNL     1       2.576   5.286  19.010  0.00  0.00    +0.000 A 
ATOM      7  C   UNL     1       2.580   6.567  18.439  0.00  0.00    +0.000 A 
ATOM      8  C   UNL     1       2.071   7.659  19.149  0.00  0.00    +0.000 A 
BRANCH   3  10
ATOM      9  C   UNL     1       0.756  10.088  20.084  0.00  0.00    +0.000 C 
ATOM     10  S   UNL     1       0.906   8.846  21.343  0.00  0.00    +0.000 S 
ATOM     11  O   UNL     1       1.918   9.277  22.288  0.00  0.00    +0.000 OA
ATOM     12  O   UNL     1      -0.425   8.482  21.786  0.00  0.00    +0.000 OA
ENDBRANCH   3  10
ENDBRANCH   1   6
BRANCH   2  13
ATOM     13  C   UNL     1       5.446   5.035  17.978  0.00  0.00    +0.000 A 
ATOM     14  C   UNL     1       6.236   4.997  19.134  0.00  0.00    +0.000 A 
ATOM     15  C   UNL     1       7.389   5.780  19.224  0.00  0.00    +0.000 A 
ATOM     16  C   UNL     1       7.756   6.609  18.166  0.00  0.00    +0.000 A 
ATOM     17  C   UNL     1       6.957   6.675  17.025  0.00  0.00    +0.000 A 
ATOM     18  C   UNL     1       5.801   5.893  16.931  0.00  0.00    +0.000 A 
ENDBRANCH   2  13
BRANCH   1  19
ATOM     19  C   UNL     1       2.244   2.931  17.931  0.00  0.00    +0.000 C 
ATOM     20  O   UNL     1       1.033   2.973  17.784  0.00  0.00    +0.000 OA
BRANCH  19  21
ATOM     21  O   UNL     1       2.927   1.775  17.806  0.00  0.00    +0.000 OA
ATOM     22  H   UNL     1       2.657   1.064  18.413  0.00  0.00    +0.000 HD
ENDBRANCH  19  21
ENDBRANCH   1  19
TORSDOF 5
ENDMDL
