MODEL 1
REMARK VINA RESULT:      -8.7      0.000      0.000
REMARK  Name = 
REMARK  8 active torsions:
REMARK  status: ('A' for Active; 'I' for Inactive)
REMARK    1  A    between atoms: C_1  and  C_2
REMARK    2  A    between atoms: C_2  and  C_3
REMARK    3  A    between atoms: C_2  and  C_4
REMARK    4  A    between atoms: C_2  and  C_5
REMARK    5  A    between atoms: C_6  and  O_7
REMARK    6  A    between atoms: C_8  and  C_9
REMARK    7  A    between atoms: N_23  and  C_24
REMARK    8  A    between atoms: C_24  and  C_25
REMARK                            x       y       z     vdW  Elec       q    Type
REMARK                         _______ _______ _______ _____ _____    ______ ____
ROOT
ATOM      1  C   UNL     1       3.546   3.778  17.639  0.00  0.00    +0.000 C 
ATOM      2  C   UNL     1       2.514   4.867  17.886  0.00  0.00    +0.000 C 
ATOM      3  C   UNL     1       3.034   6.039  18.266  0.00  0.00    +0.000 C 
ATOM      4  C   UNL     1       4.478   5.920  18.036  0.00  0.00    +0.000 C 
ATOM      5  O   UNL     1       5.239   6.872  18.007  0.00  0.00    +0.000 OA
ATOM      6  N   UNL     1       4.761   4.579  17.811  0.00  0.00    +0.000 N 
ENDROOT
BRANCH   3   7
ATOM      7  C   UNL     1       2.328   7.269  18.710  0.00  0.00    +0.000 C 
ATOM      8  N   UNL     1       2.233   8.206  17.819  0.00  0.00    +0.000 NA
ATOM      9  S   UNL     1       1.406   9.558  18.098  0.00  0.00    +0.000 S 
ATOM     10  O   UNL     1       0.116   9.457  17.448  0.00  0.00    +0.000 OA
ATOM     11  O   UNL     1       2.278  10.692  17.831  0.00  0.00    +0.000 OA
ATOM     12  C   UNL     1       1.066   9.617  19.822  0.00  0.00    +0.000 A 
ATOM     13  C   UNL     1       0.602  10.805  20.392  0.00  0.00    +0.000 A 
ATOM     14  C   UNL     1       0.335  10.836  21.756  0.00  0.00    +0.000 A 
ATOM     15  C   UNL     1       0.527   9.688  22.524  0.00  0.00    +0.000 A 
ATOM     16  C   UNL     1       0.990   8.508  21.932  0.00  0.00    +0.000 A 
ATOM     17  C   UNL     1       1.269   8.459  20.563  0.00  0.00    +0.000 A 
ATOM     18  N   UNL     1       1.798   7.310  19.981  0.00  0.00    +0.000 N 
ATOM     19  H   UNL     1       1.833   6.463  20.547  0.00  0.00    +0.000 HD
ENDBRANCH   3   7
BRANCH   1  21
ATOM     20  C   UNL     1       3.978   1.257  17.900  0.00  0.00    +0.000 C 
ATOM     21  C   UNL     1       3.377   2.517  18.576  0.00  0.00    +0.000 C 
ATOM     22  C   UNL     1       1.903   2.208  18.903  0.00  0.00    +0.000 C 
ATOM     23  C   UNL     1       4.147   2.664  19.904  0.00  0.00    +0.000 C 
ENDBRANCH   1  21
BRANCH   2  24
ATOM     24  O   UNL     1       1.169   4.667  17.694  0.00  0.00    +0.000 OA
ATOM     25  H   UNL     1       1.012   4.143  16.892  0.00  0.00    +0.000 HD
ENDBRANCH   2  24
BRANCH   6  26
ATOM     26  C   UNL     1       6.092   4.171  17.376  0.00  0.00    +0.000 C 
BRANCH  26  27
ATOM     27  C   UNL     1       6.311   4.320  15.881  0.00  0.00    +0.000 A 
ATOM     28  C   UNL     1       5.511   3.585  14.988  0.00  0.00    +0.000 A 
ATOM     29  C   UNL     1       5.770   3.609  13.615  0.00  0.00    +0.000 A 
ATOM     30  C   UNL     1       6.806   4.393  13.124  0.00  0.00    +0.000 A 
ATOM     31  F   UNL     1       7.086   4.377  11.816  0.00  0.00    +0.000 F 
ATOM     32  C   UNL     1       7.557   5.188  13.973  0.00  0.00    +0.000 A 
ATOM     33  C   UNL     1       7.297   5.166  15.346  0.00  0.00    +0.000 A 
ENDBRANCH  26  27
ENDBRANCH   6  26
TORSDOF 5
ENDMDL
MODEL 2
REMARK VINA RESULT:      -8.4      0.237      1.202
REMARK  Name = 
REMARK  8 active torsions:
REMARK  status: ('A' for Active; 'I' for Inactive)
REMARK    1  A    between atoms: C_1  and  C_2
REMARK    2  A    between atoms: C_2  and  C_3
REMARK    3  A    between atoms: C_2  and  C_4
REMARK    4  A    between atoms: C_2  and  C_5
REMARK    5  A    between atoms: C_6  and  O_7
REMARK    6  A    between atoms: C_8  and  C_9
REMARK    7  A    between atoms: N_23  and  C_24
REMARK    8  A    between atoms: C_24  and  C_25
REMARK                            x       y       z     vdW  Elec       q    Type
REMARK                         _______ _______ _______ _____ _____    ______ ____
ROOT
ATOM      1  C   UNL     1       3.484   3.825  17.715  0.00  0.00    +0.000 C 
ATOM      2  C   UNL     1       2.463   4.934  17.908  0.00  0.00    +0.000 C 
ATOM      3  C   UNL     1       2.979   6.081  18.364  0.00  0.00    +0.000 C 
ATOM      4  C   UNL     1       4.434   5.928  18.251  0.00  0.00    +0.000 C 
ATOM      5  O   UNL     1       5.218   6.859  18.314  0.00  0.00    +0.000 OA
ATOM      6  N   UNL     1       4.700   4.587  18.011  0.00  0.00    +0.000 N 
ENDROOT
BRANCH   3   7
ATOM      7  C   UNL     1       2.269   7.317  18.784  0.00  0.00    +0.000 C 
ATOM      8  N   UNL     1       2.186   8.243  17.880  0.00  0.00    +0.000 NA
ATOM      9  S   UNL     1       1.358   9.599  18.133  0.00  0.00    +0.000 S 
ATOM     10  O   UNL     1       0.075   9.492  17.469  0.00  0.00    +0.000 OA
ATOM     11  O   UNL     1       2.234  10.729  17.862  0.00  0.00    +0.000 OA
ATOM     12  C   UNL     1       0.997   9.680  19.852  0.00  0.00    +0.000 A 
ATOM     13  C   UNL     1       0.528  10.876  20.401  0.00  0.00    +0.000 A 
ATOM     14  C   UNL     1       0.244  10.924  21.761  0.00  0.00    +0.000 A 
ATOM     15  C   UNL     1       0.425   9.785  22.546  0.00  0.00    +0.000 A 
ATOM     16  C   UNL     1       0.894   8.597  21.974  0.00  0.00    +0.000 A 
ATOM     17  C   UNL     1       1.190   8.531  20.609  0.00  0.00    +0.000 A 
ATOM     18  N   UNL     1       1.723   7.374  20.048  0.00  0.00    +0.000 N 
ATOM     19  H   UNL     1       1.751   6.534  20.625  0.00  0.00    +0.000 HD
ENDBRANCH   3   7
BRANCH   1  21
ATOM     20  C   UNL     1       3.696   2.770  20.050  0.00  0.00    +0.000 C 
ATOM     21  C   UNL     1       3.206   2.543  18.597  0.00  0.00    +0.000 C 
ATOM     22  C   UNL     1       3.915   1.284  18.061  0.00  0.00    +0.000 C 
ATOM     23  C   UNL     1       1.702   2.233  18.725  0.00  0.00    +0.000 C 
ENDBRANCH   1  21
BRANCH   2  24
ATOM     24  O   UNL     1       1.134   4.777  17.599  0.00  0.00    +0.000 OA
ATOM     25  H   UNL     1       1.026   4.539  16.663  0.00  0.00    +0.000 HD
ENDBRANCH   2  24
BRANCH   6  26
ATOM     26  C   UNL     1       6.053   4.155  17.676  0.00  0.00    +0.000 C 
BRANCH  26  27
ATOM     27  C   UNL     1       6.352   4.207  16.188  0.00  0.00    +0.000 A 
ATOM     28  C   UNL     1       7.348   5.078  15.712  0.00  0.00    +0.000 A 
ATOM     29  C   UNL     1       7.560   5.235  14.339  0.00  0.00    +0.000 A 
ATOM     30  C   UNL     1       6.802   4.499  13.438  0.00  0.00    +0.000 A 
ATOM     31  F   UNL     1       6.970   4.685  12.124  0.00  0.00    +0.000 F 
ATOM     32  C   UNL     1       5.870   3.575  13.883  0.00  0.00    +0.000 A 
ATOM     33  C   UNL     1       5.660   3.416  15.254  0.00  0.00    +0.000 A 
ENDBRANCH  26  27
ENDBRANCH   6  26
TORSDOF 5
ENDMDL
MODEL 3
REMARK VINA RESULT:      -8.0      3.544      8.244
REMARK  Name = 
REMARK  8 active torsions:
REMARK  status: ('A' for Active; 'I' for Inactive)
REMARK    1  A    between atoms: C_1  and  C_2
REMARK    2  A    between atoms: C_2  and  C_3
REMARK    3  A    between atoms: C_2  and  C_4
REMARK    4  A    between atoms: C_2  and  C_5
REMARK    5  A    between atoms: C_6  and  O_7
REMARK    6  A    between atoms: C_8  and  C_9
REMARK    7  A    between atoms: N_23  and  C_24
REMARK    8  A    between atoms: C_24  and  C_25
REMARK                            x       y       z     vdW  Elec       q    Type
REMARK                         _______ _______ _______ _____ _____    ______ ____
ROOT
ATOM      1  C   UNL     1       1.065   9.891  20.828  0.00  0.00    +0.000 C 
ATOM      2  C   UNL     1       1.789   8.585  20.546  0.00  0.00    +0.000 C 
ATOM      3  C   UNL     1       1.957   8.321  19.245  0.00  0.00    +0.000 C 
ATOM      4  C   UNL     1       1.610   9.564  18.546  0.00  0.00    +0.000 C 
ATOM      5  O   UNL     1       1.900   9.789  17.384  0.00  0.00    +0.000 OA
ATOM      6  N   UNL     1       0.972  10.396  19.456  0.00  0.00    +0.000 N 
ENDROOT
BRANCH   3   7
ATOM      7  C   UNL     1       2.499   7.094  18.608  0.00  0.00    +0.000 C 
ATOM      8  N   UNL     1       1.989   5.978  19.029  0.00  0.00    +0.000 NA
ATOM      9  S   UNL     1       2.383   4.565  18.369  0.00  0.00    +0.000 S 
ATOM     10  O   UNL     1       1.327   4.163  17.464  0.00  0.00    +0.000 OA
ATOM     11  O   UNL     1       2.824   3.671  19.429  0.00  0.00    +0.000 OA
ATOM     12  C   UNL     1       3.797   4.836  17.358  0.00  0.00    +0.000 A 
ATOM     13  C   UNL     1       4.521   3.741  16.880  0.00  0.00    +0.000 A 
ATOM     14  C   UNL     1       5.634   3.970  16.079  0.00  0.00    +0.000 A 
ATOM     15  C   UNL     1       6.002   5.279  15.766  0.00  0.00    +0.000 A 
ATOM     16  C   UNL     1       5.260   6.360  16.254  0.00  0.00    +0.000 A 
ATOM     17  C   UNL     1       4.141   6.149  17.064  0.00  0.00    +0.000 A 
ATOM     18  N   UNL     1       3.441   7.222  17.611  0.00  0.00    +0.000 N 
ATOM     19  H   UNL     1       3.675   8.159  17.285  0.00  0.00    +0.000 HD
ENDBRANCH   3   7
BRANCH   1  21
ATOM     20  C   UNL     1      -0.942   8.347  21.272  0.00  0.00    +0.000 C 
ATOM     21  C   UNL     1      -0.290   9.709  21.621  0.00  0.00    +0.000 C 
ATOM     22  C   UNL     1      -1.320  10.810  21.303  0.00  0.00    +0.000 C 
ATOM     23  C   UNL     1      -0.077   9.672  23.147  0.00  0.00    +0.000 C 
ENDBRANCH   1  21
BRANCH   2  24
ATOM     24  O   UNL     1       2.263   7.772  21.546  0.00  0.00    +0.000 OA
ATOM     25  H   UNL     1       3.040   8.169  21.971  0.00  0.00    +0.000 HD
ENDBRANCH   2  24
BRANCH   6  26
ATOM     26  C   UNL     1       0.665  11.777  19.099  0.00  0.00    +0.000 C 
BRANCH  26  27
ATOM     27  C   UNL     1       1.836  12.725  19.290  0.00  0.00    +0.000 A 
ATOM     28  C   UNL     1       2.141  13.196  20.580  0.00  0.00    +0.000 A 
ATOM     29  C   UNL     1       3.134  14.163  20.767  0.00  0.00    +0.000 A 
ATOM     30  C   UNL     1       3.848  14.636  19.675  0.00  0.00    +0.000 A 
ATOM     31  F   UNL     1       4.763  15.596  19.848  0.00  0.00    +0.000 F 
ATOM     32  C   UNL     1       3.622  14.130  18.406  0.00  0.00    +0.000 A 
ATOM     33  C   UNL     1       2.631  13.163  18.218  0.00  0.00    +0.000 A 
ENDBRANCH  26  27
ENDBRANCH   6  26
TORSDOF 5
ENDMDL
MODEL 4
REMARK VINA RESULT:      -7.9      3.479      8.243
REMARK  Name = 
REMARK  8 active torsions:
REMARK  status: ('A' for Active; 'I' for Inactive)
REMARK    1  A    between atoms: C_1  and  C_2
REMARK    2  A    between atoms: C_2  and  C_3
REMARK    3  A    between atoms: C_2  and  C_4
REMARK    4  A    between atoms: C_2  and  C_5
REMARK    5  A    between atoms: C_6  and  O_7
REMARK    6  A    between atoms: C_8  and  C_9
REMARK    7  A    between atoms: N_23  and  C_24
REMARK    8  A    between atoms: C_24  and  C_25
REMARK                            x       y       z     vdW  Elec       q    Type
REMARK                         _______ _______ _______ _____ _____    ______ ____
ROOT
ATOM      1  C   UNL     1       1.039   9.890  20.818  0.00  0.00    +0.000 C 
ATOM      2  C   UNL     1       1.792   8.600  20.536  0.00  0.00    +0.000 C 
ATOM      3  C   UNL     1       1.947   8.328  19.236  0.00  0.00    +0.000 C 
ATOM      4  C   UNL     1       1.558   9.554  18.531  0.00  0.00    +0.000 C 
ATOM      5  O   UNL     1       1.825   9.775  17.362  0.00  0.00    +0.000 OA
ATOM      6  N   UNL     1       0.913  10.379  19.442  0.00  0.00    +0.000 N 
ENDROOT
BRANCH   3   7
ATOM      7  C   UNL     1       2.511   7.108  18.603  0.00  0.00    +0.000 C 
ATOM      8  N   UNL     1       2.017   5.985  19.025  0.00  0.00    +0.000 NA
ATOM      9  S   UNL     1       2.437   4.577  18.369  0.00  0.00    +0.000 S 
ATOM     10  O   UNL     1       1.389   4.156  17.462  0.00  0.00    +0.000 OA
ATOM     11  O   UNL     1       2.889   3.692  19.432  0.00  0.00    +0.000 OA
ATOM     12  C   UNL     1       3.848   4.869  17.361  0.00  0.00    +0.000 A 
ATOM     13  C   UNL     1       4.591   3.785  16.887  0.00  0.00    +0.000 A 
ATOM     14  C   UNL     1       5.703   4.031  16.089  0.00  0.00    +0.000 A 
ATOM     15  C   UNL     1       6.050   5.345  15.773  0.00  0.00    +0.000 A 
ATOM     16  C   UNL     1       5.290   6.415  16.258  0.00  0.00    +0.000 A 
ATOM     17  C   UNL     1       4.172   6.187  17.066  0.00  0.00    +0.000 A 
ATOM     18  N   UNL     1       3.453   7.250  17.608  0.00  0.00    +0.000 N 
ATOM     19  H   UNL     1       3.673   8.190  17.281  0.00  0.00    +0.000 HD
ENDBRANCH   3   7
BRANCH   1  21
ATOM     20  C   UNL     1      -0.006   9.654  23.155  0.00  0.00    +0.000 C 
ATOM     21  C   UNL     1      -0.299   9.683  21.632  0.00  0.00    +0.000 C 
ATOM     22  C   UNL     1      -1.017   8.367  21.274  0.00  0.00    +0.000 C 
ATOM     23  C   UNL     1      -1.292  10.845  21.437  0.00  0.00    +0.000 C 
ENDBRANCH   1  21
BRANCH   2  24
ATOM     24  O   UNL     1       2.302   7.809  21.537  0.00  0.00    +0.000 OA
ATOM     25  H   UNL     1       3.240   8.009  21.687  0.00  0.00    +0.000 HD
ENDBRANCH   2  24
BRANCH   6  26
ATOM     26  C   UNL     1       0.565  11.748  19.076  0.00  0.00    +0.000 C 
BRANCH  26  27
ATOM     27  C   UNL     1       1.690  12.741  19.312  0.00  0.00    +0.000 A 
ATOM     28  C   UNL     1       2.424  13.229  18.216  0.00  0.00    +0.000 A 
ATOM     29  C   UNL     1       3.540  14.047  18.415  0.00  0.00    +0.000 A 
ATOM     30  C   UNL     1       3.907  14.408  19.705  0.00  0.00    +0.000 A 
ATOM     31  F   UNL     1       5.004  15.149  19.898  0.00  0.00    +0.000 F 
ATOM     32  C   UNL     1       3.155  14.006  20.796  0.00  0.00    +0.000 A 
ATOM     33  C   UNL     1       2.038  13.190  20.597  0.00  0.00    +0.000 A 
ENDBRANCH  26  27
ENDBRANCH   6  26
TORSDOF 5
ENDMDL
MODEL 5
REMARK VINA RESULT:      -7.8      5.300      8.802
REMARK  Name = 
REMARK  8 active torsions:
REMARK  status: ('A' for Active; 'I' for Inactive)
REMARK    1  A    between atoms: C_1  and  C_2
REMARK    2  A    between atoms: C_2  and  C_3
REMARK    3  A    between atoms: C_2  and  C_4
REMARK    4  A    between atoms: C_2  and  C_5
REMARK    5  A    between atoms: C_6  and  O_7
REMARK    6  A    between atoms: C_8  and  C_9
REMARK    7  A    between atoms: N_23  and  C_24
REMARK    8  A    between atoms: C_24  and  C_25
REMARK                            x       y       z     vdW  Elec       q    Type
REMARK                         _______ _______ _______ _____ _____    ______ ____
ROOT
ATOM      1  C   UNL     1       1.062  12.159  20.130  0.00  0.00    +0.000 C 
ATOM      2  C   UNL     1      -0.082  12.523  21.063  0.00  0.00    +0.000 C 
ATOM      3  C   UNL     1      -1.289  12.157  20.619  0.00  0.00    +0.000 C 
ATOM      4  C   UNL     1      -1.035  11.266  19.482  0.00  0.00    +0.000 C 
ATOM      5  O   UNL     1      -1.877  10.529  19.000  0.00  0.00    +0.000 OA
ATOM      6  N   UNL     1       0.304  11.394  19.136  0.00  0.00    +0.000 N 
ENDROOT
BRANCH   3   7
ATOM      7  C   UNL     1      -2.623  12.459  21.199  0.00  0.00    +0.000 C 
ATOM      8  N   UNL     1      -2.657  12.558  22.492  0.00  0.00    +0.000 NA
ATOM      9  S   UNL     1      -3.996  12.988  23.273  0.00  0.00    +0.000 S 
ATOM     10  O   UNL     1      -3.895  14.385  23.638  0.00  0.00    +0.000 OA
ATOM     11  O   UNL     1      -4.279  11.982  24.286  0.00  0.00    +0.000 OA
ATOM     12  C   UNL     1      -5.325  12.893  22.125  0.00  0.00    +0.000 A 
ATOM     13  C   UNL     1      -6.641  12.944  22.590  0.00  0.00    +0.000 A 
ATOM     14  C   UNL     1      -7.681  12.871  21.671  0.00  0.00    +0.000 A 
ATOM     15  C   UNL     1      -7.395  12.753  20.310  0.00  0.00    +0.000 A 
ATOM     16  C   UNL     1      -6.068  12.706  19.867  0.00  0.00    +0.000 A 
ATOM     17  C   UNL     1      -5.009  12.773  20.777  0.00  0.00    +0.000 A 
ATOM     18  N   UNL     1      -3.689  12.655  20.349  0.00  0.00    +0.000 N 
ATOM     19  H   UNL     1      -3.511  12.669  19.346  0.00  0.00    +0.000 HD
ENDBRANCH   3   7
BRANCH   1  21
ATOM     20  C   UNL     1       2.893  13.878  20.680  0.00  0.00    +0.000 C 
ATOM     21  C   UNL     1       1.879  13.407  19.607  0.00  0.00    +0.000 C 
ATOM     22  C   UNL     1       0.977  14.608  19.263  0.00  0.00    +0.000 C 
ATOM     23  C   UNL     1       2.732  13.072  18.368  0.00  0.00    +0.000 C 
ENDBRANCH   1  21
BRANCH   2  24
ATOM     24  O   UNL     1       0.120  13.138  22.274  0.00  0.00    +0.000 OA
ATOM     25  H   UNL     1       0.494  12.513  22.917  0.00  0.00    +0.000 HD
ENDBRANCH   2  24
BRANCH   6  26
ATOM     26  C   UNL     1       0.897  10.497  18.150  0.00  0.00    +0.000 C 
BRANCH  26  27
ATOM     27  C   UNL     1       1.463   9.224  18.754  0.00  0.00    +0.000 A 
ATOM     28  C   UNL     1       2.240   8.365  17.957  0.00  0.00    +0.000 A 
ATOM     29  C   UNL     1       2.670   7.131  18.451  0.00  0.00    +0.000 A 
ATOM     30  C   UNL     1       2.357   6.764  19.753  0.00  0.00    +0.000 A 
ATOM     31  F   UNL     1       2.726   5.562  20.210  0.00  0.00    +0.000 F 
ATOM     32  C   UNL     1       1.662   7.626  20.585  0.00  0.00    +0.000 A 
ATOM     33  C   UNL     1       1.233   8.861  20.092  0.00  0.00    +0.000 A 
ENDBRANCH  26  27
ENDBRANCH   6  26
TORSDOF 5
ENDMDL
MODEL 6
REMARK VINA RESULT:      -7.8      3.750      8.582
REMARK  Name = 
REMARK  8 active torsions:
REMARK  status: ('A' for Active; 'I' for Inactive)
REMARK    1  A    between atoms: C_1  and  C_2
REMARK    2  A    between atoms: C_2  and  C_3
REMARK    3  A    between atoms: C_2  and  C_4
REMARK    4  A    between atoms: C_2  and  C_5
REMARK    5  A    between atoms: C_6  and  O_7
REMARK    6  A    between atoms: C_8  and  C_9
REMARK    7  A    between atoms: N_23  and  C_24
REMARK    8  A    between atoms: C_24  and  C_25
REMARK                            x       y       z     vdW  Elec       q    Type
REMARK                         _______ _______ _______ _____ _____    ______ ____
ROOT
ATOM      1  C   UNL     1       0.776  10.850  20.979  0.00  0.00    +0.000 C 
ATOM      2  C   UNL     1       1.390   9.467  21.118  0.00  0.00    +0.000 C 
ATOM      3  C   UNL     1       1.470   8.784  19.971  0.00  0.00    +0.000 C 
ATOM      4  C   UNL     1       1.173   9.758  18.914  0.00  0.00    +0.000 C 
ATOM      5  O   UNL     1       1.416   9.570  17.735  0.00  0.00    +0.000 OA
ATOM      6  N   UNL     1       0.645  10.890  19.520  0.00  0.00    +0.000 N 
ENDROOT
BRANCH   3   7
ATOM      7  C   UNL     1       1.890   7.375  19.755  0.00  0.00    +0.000 C 
ATOM      8  N   UNL     1       1.538   6.543  20.685  0.00  0.00    +0.000 NA
ATOM      9  S   UNL     1       1.817   4.963  20.555  0.00  0.00    +0.000 S 
ATOM     10  O   UNL     1       0.591   4.305  20.155  0.00  0.00    +0.000 OA
ATOM     11  O   UNL     1       2.534   4.525  21.744  0.00  0.00    +0.000 OA
ATOM     12  C   UNL     1       2.935   4.737  19.217  0.00  0.00    +0.000 A 
ATOM     13  C   UNL     1       3.565   3.501  19.047  0.00  0.00    +0.000 A 
ATOM     14  C   UNL     1       4.444   3.336  17.983  0.00  0.00    +0.000 A 
ATOM     15  C   UNL     1       4.676   4.397  17.107  0.00  0.00    +0.000 A 
ATOM     16  C   UNL     1       4.032   5.625  17.295  0.00  0.00    +0.000 A 
ATOM     17  C   UNL     1       3.148   5.811  18.362  0.00  0.00    +0.000 A 
ATOM     18  N   UNL     1       2.560   7.051  18.596  0.00  0.00    +0.000 N 
ATOM     19  H   UNL     1       2.672   7.773  17.884  0.00  0.00    +0.000 HD
ENDBRANCH   3   7
BRANCH   1  21
ATOM     20  C   UNL     1      -0.550  12.443  22.501  0.00  0.00    +0.000 C 
ATOM     21  C   UNL     1      -0.545  11.048  21.825  0.00  0.00    +0.000 C 
ATOM     22  C   UNL     1      -0.705   9.993  22.937  0.00  0.00    +0.000 C 
ATOM     23  C   UNL     1      -1.813  11.024  20.948  0.00  0.00    +0.000 C 
ENDBRANCH   1  21
BRANCH   2  24
ATOM     24  O   UNL     1       1.859   8.984  22.316  0.00  0.00    +0.000 OA
ATOM     25  H   UNL     1       1.536   8.081  22.471  0.00  0.00    +0.000 HD
ENDBRANCH   2  24
BRANCH   6  26
ATOM     26  C   UNL     1       0.417  12.102  18.740  0.00  0.00    +0.000 C 
BRANCH  26  27
ATOM     27  C   UNL     1       1.496  13.153  18.928  0.00  0.00    +0.000 A 
ATOM     28  C   UNL     1       1.258  14.244  19.783  0.00  0.00    +0.000 A 
ATOM     29  C   UNL     1       2.184  15.287  19.880  0.00  0.00    +0.000 A 
ATOM     30  C   UNL     1       3.364  15.229  19.151  0.00  0.00    +0.000 A 
ATOM     31  F   UNL     1       4.227  16.250  19.205  0.00  0.00    +0.000 F 
ATOM     32  C   UNL     1       3.659  14.128  18.364  0.00  0.00    +0.000 A 
ATOM     33  C   UNL     1       2.735  13.085  18.269  0.00  0.00    +0.000 A 
ENDBRANCH  26  27
ENDBRANCH   6  26
TORSDOF 5
ENDMDL
MODEL 7
REMARK VINA RESULT:      -7.7      0.799      1.269
REMARK  Name = 
REMARK  8 active torsions:
REMARK  status: ('A' for Active; 'I' for Inactive)
REMARK    1  A    between atoms: C_1  and  C_2
REMARK    2  A    between atoms: C_2  and  C_3
REMARK    3  A    between atoms: C_2  and  C_4
REMARK    4  A    between atoms: C_2  and  C_5
REMARK    5  A    between atoms: C_6  and  O_7
REMARK    6  A    between atoms: C_8  and  C_9
REMARK    7  A    between atoms: N_23  and  C_24
REMARK    8  A    between atoms: C_24  and  C_25
REMARK                            x       y       z     vdW  Elec       q    Type
REMARK                         _______ _______ _______ _____ _____    ______ ____
ROOT
ATOM      1  C   UNL     1       3.394   3.864  18.578  0.00  0.00    +0.000 C 
ATOM      2  C   UNL     1       2.352   4.967  18.671  0.00  0.00    +0.000 C 
ATOM      3  C   UNL     1       2.860   6.183  18.900  0.00  0.00    +0.000 C 
ATOM      4  C   UNL     1       4.307   6.047  18.699  0.00  0.00    +0.000 C 
ATOM      5  O   UNL     1       5.061   6.993  18.554  0.00  0.00    +0.000 OA
ATOM      6  N   UNL     1       4.601   4.691  18.655  0.00  0.00    +0.000 N 
ENDROOT
BRANCH   3   7
ATOM      7  C   UNL     1       2.141   7.454  19.173  0.00  0.00    +0.000 C 
ATOM      8  N   UNL     1       2.156   8.318  18.206  0.00  0.00    +0.000 NA
ATOM      9  S   UNL     1       1.336   9.700  18.293  0.00  0.00    +0.000 S 
ATOM     10  O   UNL     1       0.115   9.566  17.527  0.00  0.00    +0.000 OA
ATOM     11  O   UNL     1       2.255  10.797  18.028  0.00  0.00    +0.000 OA
ATOM     12  C   UNL     1       0.827   9.901  19.965  0.00  0.00    +0.000 A 
ATOM     13  C   UNL     1       0.335  11.138  20.390  0.00  0.00    +0.000 A 
ATOM     14  C   UNL     1      -0.066  11.282  21.713  0.00  0.00    +0.000 A 
ATOM     15  C   UNL     1       0.023  10.196  22.585  0.00  0.00    +0.000 A 
ATOM     16  C   UNL     1       0.517   8.966  22.136  0.00  0.00    +0.000 A 
ATOM     17  C   UNL     1       0.930   8.804  20.810  0.00  0.00    +0.000 A 
ATOM     18  N   UNL     1       1.488   7.604  20.376  0.00  0.00    +0.000 N 
ATOM     19  H   UNL     1       1.448   6.805  21.007  0.00  0.00    +0.000 HD
ENDBRANCH   3   7
BRANCH   1  21
ATOM     20  C   UNL     1       2.254   1.635  19.166  0.00  0.00    +0.000 C 
ATOM     21  C   UNL     1       3.225   2.734  19.670  0.00  0.00    +0.000 C 
ATOM     22  C   UNL     1       2.666   3.270  21.002  0.00  0.00    +0.000 C 
ATOM     23  C   UNL     1       4.547   1.998  19.962  0.00  0.00    +0.000 C 
ENDBRANCH   1  21
BRANCH   2  24
ATOM     24  O   UNL     1       1.010   4.733  18.495  0.00  0.00    +0.000 OA
ATOM     25  H   UNL     1       0.488   5.225  19.149  0.00  0.00    +0.000 HD
ENDBRANCH   2  24
BRANCH   6  26
ATOM     26  C   UNL     1       5.940   4.241  18.288  0.00  0.00    +0.000 C 
BRANCH  26  27
ATOM     27  C   UNL     1       6.197   4.264  16.792  0.00  0.00    +0.000 A 
ATOM     28  C   UNL     1       7.359   4.883  16.299  0.00  0.00    +0.000 A 
ATOM     29  C   UNL     1       7.560   5.026  14.923  0.00  0.00    +0.000 A 
ATOM     30  C   UNL     1       6.619   4.523  14.035  0.00  0.00    +0.000 A 
ATOM     31  F   UNL     1       6.786   4.705  12.720  0.00  0.00    +0.000 F 
ATOM     32  C   UNL     1       5.505   3.840  14.493  0.00  0.00    +0.000 A 
ATOM     33  C   UNL     1       5.305   3.694  15.868  0.00  0.00    +0.000 A 
ENDBRANCH  26  27
ENDBRANCH   6  26
TORSDOF 5
ENDMDL
MODEL 8
REMARK VINA RESULT:      -7.7      3.793      8.640
REMARK  Name = 
REMARK  8 active torsions:
REMARK  status: ('A' for Active; 'I' for Inactive)
REMARK    1  A    between atoms: C_1  and  C_2
REMARK    2  A    between atoms: C_2  and  C_3
REMARK    3  A    between atoms: C_2  and  C_4
REMARK    4  A    between atoms: C_2  and  C_5
REMARK    5  A    between atoms: C_6  and  O_7
REMARK    6  A    between atoms: C_8  and  C_9
REMARK    7  A    between atoms: N_23  and  C_24
REMARK    8  A    between atoms: C_24  and  C_25
REMARK                            x       y       z     vdW  Elec       q    Type
REMARK                         _______ _______ _______ _____ _____    ______ ____
ROOT
ATOM      1  C   UNL     1       0.905   9.962  20.928  0.00  0.00    +0.000 C 
ATOM      2  C   UNL     1       1.798   8.753  20.704  0.00  0.00    +0.000 C 
ATOM      3  C   UNL     1       1.847   8.335  19.434  0.00  0.00    +0.000 C 
ATOM      4  C   UNL     1       1.214   9.399  18.647  0.00  0.00    +0.000 C 
ATOM      5  O   UNL     1       1.318   9.498  17.437  0.00  0.00    +0.000 OA
ATOM      6  N   UNL     1       0.561  10.247  19.532  0.00  0.00    +0.000 N 
ENDROOT
BRANCH   3   7
ATOM      7  C   UNL     1       2.506   7.125  18.879  0.00  0.00    +0.000 C 
ATOM      8  N   UNL     1       2.232   6.014  19.490  0.00  0.00    +0.000 NA
ATOM      9  S   UNL     1       2.773   4.597  18.953  0.00  0.00    +0.000 S 
ATOM     10  O   UNL     1       1.702   3.927  18.246  0.00  0.00    +0.000 OA
ATOM     11  O   UNL     1       3.467   3.928  20.043  0.00  0.00    +0.000 OA
ATOM     12  C   UNL     1       4.003   4.932  17.741  0.00  0.00    +0.000 A 
ATOM     13  C   UNL     1       4.837   3.900  17.304  0.00  0.00    +0.000 A 
ATOM     14  C   UNL     1       5.803   4.178  16.344  0.00  0.00    +0.000 A 
ATOM     15  C   UNL     1       5.919   5.472  15.835  0.00  0.00    +0.000 A 
ATOM     16  C   UNL     1       5.071   6.490  16.287  0.00  0.00    +0.000 A 
ATOM     17  C   UNL     1       4.097   6.230  17.255  0.00  0.00    +0.000 A 
ATOM     18  N   UNL     1       3.299   7.253  17.760  0.00  0.00    +0.000 N 
ATOM     19  H   UNL     1       3.341   8.161  17.299  0.00  0.00    +0.000 HD
ENDBRANCH   3   7
BRANCH   1  21
ATOM     20  C   UNL     1       0.241   9.409  23.350  0.00  0.00    +0.000 C 
ATOM     21  C   UNL     1      -0.294   9.693  21.922  0.00  0.00    +0.000 C 
ATOM     22  C   UNL     1      -1.159   8.488  21.504  0.00  0.00    +0.000 C 
ATOM     23  C   UNL     1      -1.215  10.920  22.077  0.00  0.00    +0.000 C 
ENDBRANCH   1  21
BRANCH   2  24
ATOM     24  O   UNL     1       2.520   8.170  21.717  0.00  0.00    +0.000 OA
ATOM     25  H   UNL     1       3.420   8.533  21.748  0.00  0.00    +0.000 HD
ENDBRANCH   2  24
BRANCH   6  26
ATOM     26  C   UNL     1      -0.015  11.501  19.058  0.00  0.00    +0.000 C 
BRANCH  26  27
ATOM     27  C   UNL     1      -1.456  11.368  18.598  0.00  0.00    +0.000 A 
ATOM     28  C   UNL     1      -2.443  12.189  19.170  0.00  0.00    +0.000 A 
ATOM     29  C   UNL     1      -3.793  12.004  18.855  0.00  0.00    +0.000 A 
ATOM     30  C   UNL     1      -4.157  11.024  17.942  0.00  0.00    +0.000 A 
ATOM     31  F   UNL     1      -5.452  10.813  17.678  0.00  0.00    +0.000 F 
ATOM     32  C   UNL     1      -3.197  10.256  17.304  0.00  0.00    +0.000 A 
ATOM     33  C   UNL     1      -1.849  10.441  17.618  0.00  0.00    +0.000 A 
ENDBRANCH  26  27
ENDBRANCH   6  26
TORSDOF 5
ENDMDL
MODEL 9
REMARK VINA RESULT:      -7.7      1.592      2.121
REMARK  Name = 
REMARK  8 active torsions:
REMARK  status: ('A' for Active; 'I' for Inactive)
REMARK    1  A    between atoms: C_1  and  C_2
REMARK    2  A    between atoms: C_2  and  C_3
REMARK    3  A    between atoms: C_2  and  C_4
REMARK    4  A    between atoms: C_2  and  C_5
REMARK    5  A    between atoms: C_6  and  O_7
REMARK    6  A    between atoms: C_8  and  C_9
REMARK    7  A    between atoms: N_23  and  C_24
REMARK    8  A    between atoms: C_24  and  C_25
REMARK                            x       y       z     vdW  Elec       q    Type
REMARK                         _______ _______ _______ _____ _____    ______ ____
ROOT
ATOM      1  C   UNL     1       3.349   3.772  18.113  0.00  0.00    +0.000 C 
ATOM      2  C   UNL     1       2.335   4.865  18.407  0.00  0.00    +0.000 C 
ATOM      3  C   UNL     1       2.869   5.995  18.885  0.00  0.00    +0.000 C 
ATOM      4  C   UNL     1       4.317   5.856  18.687  0.00  0.00    +0.000 C 
ATOM      5  O   UNL     1       5.099   6.789  18.749  0.00  0.00    +0.000 OA
ATOM      6  N   UNL     1       4.576   4.528  18.377  0.00  0.00    +0.000 N 
ENDROOT
BRANCH   3   7
ATOM      7  C   UNL     1       2.178   7.207  19.394  0.00  0.00    +0.000 C 
ATOM      8  N   UNL     1       1.564   7.060  20.527  0.00  0.00    +0.000 NA
ATOM      9  S   UNL     1       0.858   8.299  21.273  0.00  0.00    +0.000 S 
ATOM     10  O   UNL     1       1.725   8.756  22.339  0.00  0.00    +0.000 OA
ATOM     11  O   UNL     1      -0.524   7.940  21.552  0.00  0.00    +0.000 OA
ATOM     12  C   UNL     1       0.780   9.627  20.123  0.00  0.00    +0.000 A 
ATOM     13  C   UNL     1      -0.024  10.735  20.404  0.00  0.00    +0.000 A 
ATOM     14  C   UNL     1      -0.073  11.779  19.487  0.00  0.00    +0.000 A 
ATOM     15  C   UNL     1       0.679  11.705  18.314  0.00  0.00    +0.000 A 
ATOM     16  C   UNL     1       1.480  10.586  18.055  0.00  0.00    +0.000 A 
ATOM     17  C   UNL     1       1.538   9.525  18.963  0.00  0.00    +0.000 A 
ATOM     18  N   UNL     1       2.276   8.379  18.678  0.00  0.00    +0.000 N 
ATOM     19  H   UNL     1       2.889   8.398  17.863  0.00  0.00    +0.000 HD
ENDBRANCH   3   7
BRANCH   1  21
ATOM     20  C   UNL     1       3.877   1.263  18.303  0.00  0.00    +0.000 C 
ATOM     21  C   UNL     1       3.124   2.452  18.953  0.00  0.00    +0.000 C 
ATOM     22  C   UNL     1       1.638   2.057  19.057  0.00  0.00    +0.000 C 
ATOM     23  C   UNL     1       3.698   2.559  20.380  0.00  0.00    +0.000 C 
ENDBRANCH   1  21
BRANCH   2  24
ATOM     24  O   UNL     1       0.992   4.713  18.163  0.00  0.00    +0.000 OA
ATOM     25  H   UNL     1       0.731   3.782  18.257  0.00  0.00    +0.000 HD
ENDBRANCH   2  24
BRANCH   6  26
ATOM     26  C   UNL     1       5.911   4.120  17.952  0.00  0.00    +0.000 C 
BRANCH  26  27
ATOM     27  C   UNL     1       6.162   4.327  16.469  0.00  0.00    +0.000 A 
ATOM     28  C   UNL     1       5.395   3.615  15.531  0.00  0.00    +0.000 A 
ATOM     29  C   UNL     1       5.687   3.694  14.166  0.00  0.00    +0.000 A 
ATOM     30  C   UNL     1       6.722   4.510  13.730  0.00  0.00    +0.000 A 
ATOM     31  F   UNL     1       7.033   4.548  12.430  0.00  0.00    +0.000 F 
ATOM     32  C   UNL     1       7.441   5.284  14.626  0.00  0.00    +0.000 A 
ATOM     33  C   UNL     1       7.148   5.207  15.990  0.00  0.00    +0.000 A 
ENDBRANCH  26  27
ENDBRANCH   6  26
TORSDOF 5
ENDMDL
