MODEL 1
REMARK VINA RESULT:      -7.3      0.000      0.000
REMARK  Name = 
REMARK  7 active torsions:
REMARK  status: ('A' for Active; 'I' for Inactive)
REMARK    1  A    between atoms: C_1  and  C_10
REMARK    2  A    between atoms: C_2  and  C_3
REMARK    3  A    between atoms: C_3  and  N_4
REMARK    4  A    between atoms: C_10  and  O_11
REMARK    5  A    between atoms: O_11  and  C_12
REMARK    6  A    between atoms: C_12  and  C_13
REMARK    7  A    between atoms: C_14  and  C_15
REMARK                            x       y       z     vdW  Elec       q    Type
REMARK                         _______ _______ _______ _____ _____    ______ ____
ROOT
ATOM      1  C   UNL     1       7.495   5.803  19.033  0.00  0.00    +0.000 C 
ENDROOT
BRANCH   1   2
ATOM      2  C   UNL     1       6.033   5.393  19.098  0.00  0.00    +0.000 C 
ATOM      3  C   UNL     1       4.780   5.041  19.153  0.00  0.00    +0.000 C 
BRANCH   3   4
ATOM      4  C   UNL     1       3.383   4.626  19.038  0.00  0.00    +0.000 C 
BRANCH   4   5
ATOM      5  N   UNL     1       3.185   3.161  19.128  0.00  0.00    +0.000 NA
ATOM      6  C   UNL     1       1.800   2.810  18.752  0.00  0.00    +0.000 C 
ATOM      7  C   UNL     1       0.805   3.225  19.857  0.00  0.00    +0.000 C 
ATOM      8  O   UNL     1       1.131   2.597  21.083  0.00  0.00    +0.000 OA
ATOM      9  C   UNL     1       2.429   2.985  21.496  0.00  0.00    +0.000 C 
ATOM     10  C   UNL     1       3.482   2.572  20.452  0.00  0.00    +0.000 C 
ENDBRANCH   4   5
ENDBRANCH   3   4
ENDBRANCH   1   2
BRANCH   1  11
ATOM     11  O   UNL     1       7.820   6.120  17.702  0.00  0.00    +0.000 OA
BRANCH  11  12
ATOM     12  C   UNL     1       7.210   7.339  17.341  0.00  0.00    +0.000 C 
BRANCH  12  13
ATOM     13  C   UNL     1       7.984   8.404  17.975  0.00  0.00    +0.000 C 
ATOM     14  C   UNL     1       8.607   9.342  18.390  0.00  0.00    +0.000 C 
BRANCH  14  15
ATOM     15  C   UNL     1       9.410  10.439  18.856  0.00  0.00    +0.000 A 
ATOM     16  C   UNL     1      10.122  11.190  17.912  0.00  0.00    +0.000 A 
ATOM     17  C   UNL     1      10.934  12.247  18.323  0.00  0.00    +0.000 A 
ATOM     18  C   UNL     1      11.040  12.557  19.680  0.00  0.00    +0.000 A 
ATOM     19  C   UNL     1      10.327  11.814  20.628  0.00  0.00    +0.000 A 
ATOM     20  C   UNL     1       9.510  10.752  20.218  0.00  0.00    +0.000 A 
ENDBRANCH  14  15
ENDBRANCH  12  13
ENDBRANCH  11  12
ENDBRANCH   1  11
TORSDOF 7
ENDMDL
MODEL 2
REMARK VINA RESULT:      -7.1      1.079      1.882
REMARK  Name = 
REMARK  7 active torsions:
REMARK  status: ('A' for Active; 'I' for Inactive)
REMARK    1  A    between atoms: C_1  and  C_10
REMARK    2  A    between atoms: C_2  and  C_3
REMARK    3  A    between atoms: C_3  and  N_4
REMARK    4  A    between atoms: C_10  and  O_11
REMARK    5  A    between atoms: O_11  and  C_12
REMARK    6  A    between atoms: C_12  and  C_13
REMARK    7  A    between atoms: C_14  and  C_15
REMARK                            x       y       z     vdW  Elec       q    Type
REMARK                         _______ _______ _______ _____ _____    ______ ____
ROOT
ATOM      1  C   UNL     1       7.706   5.985  18.634  0.00  0.00    +0.000 C 
ENDROOT
BRANCH   1   2
ATOM      2  C   UNL     1       6.516   5.083  18.920  0.00  0.00    +0.000 C 
ATOM      3  C   UNL     1       5.497   4.309  19.165  0.00  0.00    +0.000 C 
BRANCH   3   4
ATOM      4  C   UNL     1       4.427   3.326  19.325  0.00  0.00    +0.000 C 
BRANCH   4   5
ATOM      5  N   UNL     1       3.165   3.897  19.850  0.00  0.00    +0.000 NA
ATOM      6  C   UNL     1       2.137   2.841  19.964  0.00  0.00    +0.000 C 
ATOM      7  C   UNL     1       1.617   2.423  18.572  0.00  0.00    +0.000 C 
ATOM      8  O   UNL     1       1.070   3.535  17.888  0.00  0.00    +0.000 OA
ATOM      9  C   UNL     1       2.066   4.526  17.703  0.00  0.00    +0.000 C 
ATOM     10  C   UNL     1       2.609   5.017  19.057  0.00  0.00    +0.000 C 
ENDBRANCH   4   5
ENDBRANCH   3   4
ENDBRANCH   1   2
BRANCH   1  11
ATOM     11  O   UNL     1       7.662   6.381  17.286  0.00  0.00    +0.000 OA
BRANCH  11  12
ATOM     12  C   UNL     1       7.044   7.644  17.180  0.00  0.00    +0.000 C 
BRANCH  12  13
ATOM     13  C   UNL     1       7.937   8.606  17.823  0.00  0.00    +0.000 C 
ATOM     14  C   UNL     1       8.606   9.485  18.292  0.00  0.00    +0.000 C 
BRANCH  14  15
ATOM     15  C   UNL     1       9.447  10.536  18.794  0.00  0.00    +0.000 A 
ATOM     16  C   UNL     1       9.425  10.807  20.168  0.00  0.00    +0.000 A 
ATOM     17  C   UNL     1      10.205  11.836  20.695  0.00  0.00    +0.000 A 
ATOM     18  C   UNL     1      11.011  12.601  19.850  0.00  0.00    +0.000 A 
ATOM     19  C   UNL     1      11.041  12.333  18.476  0.00  0.00    +0.000 A 
ATOM     20  C   UNL     1      10.259  11.300  17.945  0.00  0.00    +0.000 A 
ENDBRANCH  14  15
ENDBRANCH  12  13
ENDBRANCH  11  12
ENDBRANCH   1  11
TORSDOF 7
ENDMDL
MODEL 3
REMARK VINA RESULT:      -6.9      1.119      1.452
REMARK  Name = 
REMARK  7 active torsions:
REMARK  status: ('A' for Active; 'I' for Inactive)
REMARK    1  A    between atoms: C_1  and  C_10
REMARK    2  A    between atoms: C_2  and  C_3
REMARK    3  A    between atoms: C_3  and  N_4
REMARK    4  A    between atoms: C_10  and  O_11
REMARK    5  A    between atoms: O_11  and  C_12
REMARK    6  A    between atoms: C_12  and  C_13
REMARK    7  A    between atoms: C_14  and  C_15
REMARK                            x       y       z     vdW  Elec       q    Type
REMARK                         _______ _______ _______ _____ _____    ______ ____
ROOT
ATOM      1  C   UNL     1       7.400   5.295  17.610  0.00  0.00    +0.000 C 
ENDROOT
BRANCH   1   2
ATOM      2  C   UNL     1       6.056   4.626  17.849  0.00  0.00    +0.000 C 
ATOM      3  C   UNL     1       4.904   4.053  18.053  0.00  0.00    +0.000 C 
BRANCH   3   4
ATOM      4  C   UNL     1       3.692   3.320  18.415  0.00  0.00    +0.000 C 
BRANCH   4   5
ATOM      5  N   UNL     1       2.444   4.090  18.205  0.00  0.00    +0.000 NA
ATOM      6  C   UNL     1       2.440   5.295  19.061  0.00  0.00    +0.000 C 
ATOM      7  C   UNL     1       2.210   4.922  20.541  0.00  0.00    +0.000 C 
ATOM      8  O   UNL     1       0.984   4.232  20.697  0.00  0.00    +0.000 OA
ATOM      9  C   UNL     1       1.003   3.033  19.943  0.00  0.00    +0.000 C 
ATOM     10  C   UNL     1       1.196   3.332  18.446  0.00  0.00    +0.000 C 
ENDBRANCH   4   5
ENDBRANCH   3   4
ENDBRANCH   1   2
BRANCH   1  11
ATOM     11  O   UNL     1       7.443   6.499  18.335  0.00  0.00    +0.000 OA
BRANCH  11  12
ATOM     12  C   UNL     1       7.447   7.592  17.445  0.00  0.00    +0.000 C 
BRANCH  12  13
ATOM     13  C   UNL     1       8.228   8.652  18.078  0.00  0.00    +0.000 C 
ATOM     14  C   UNL     1       8.815   9.601  18.519  0.00  0.00    +0.000 C 
BRANCH  14  15
ATOM     15  C   UNL     1       9.565  10.730  18.996  0.00  0.00    +0.000 A 
ATOM     16  C   UNL     1      10.299  11.481  18.070  0.00  0.00    +0.000 A 
ATOM     17  C   UNL     1      11.061  12.569  18.493  0.00  0.00    +0.000 A 
ATOM     18  C   UNL     1      11.095  12.912  19.847  0.00  0.00    +0.000 A 
ATOM     19  C   UNL     1      10.359  12.168  20.777  0.00  0.00    +0.000 A 
ATOM     20  C   UNL     1       9.593  11.076  20.355  0.00  0.00    +0.000 A 
ENDBRANCH  14  15
ENDBRANCH  12  13
ENDBRANCH  11  12
ENDBRANCH   1  11
TORSDOF 7
ENDMDL
MODEL 4
REMARK VINA RESULT:      -6.9      1.193      2.015
REMARK  Name = 
REMARK  7 active torsions:
REMARK  status: ('A' for Active; 'I' for Inactive)
REMARK    1  A    between atoms: C_1  and  C_10
REMARK    2  A    between atoms: C_2  and  C_3
REMARK    3  A    between atoms: C_3  and  N_4
REMARK    4  A    between atoms: C_10  and  O_11
REMARK    5  A    between atoms: O_11  and  C_12
REMARK    6  A    between atoms: C_12  and  C_13
REMARK    7  A    between atoms: C_14  and  C_15
REMARK                            x       y       z     vdW  Elec       q    Type
REMARK                         _______ _______ _______ _____ _____    ______ ____
ROOT
ATOM      1  C   UNL     1       6.881   5.445  16.095  0.00  0.00    +0.000 C 
ENDROOT
BRANCH   1   2
ATOM      2  C   UNL     1       6.008   5.123  17.296  0.00  0.00    +0.000 C 
ATOM      3  C   UNL     1       5.259   4.847  18.326  0.00  0.00    +0.000 C 
BRANCH   3   4
ATOM      4  C   UNL     1       4.300   4.475  19.365  0.00  0.00    +0.000 C 
BRANCH   4   5
ATOM      5  N   UNL     1       3.041   5.256  19.322  0.00  0.00    +0.000 NA
ATOM      6  C   UNL     1       2.317   5.122  20.604  0.00  0.00    +0.000 C 
ATOM      7  C   UNL     1       1.689   3.719  20.740  0.00  0.00    +0.000 C 
ATOM      8  O   UNL     1       0.798   3.464  19.670  0.00  0.00    +0.000 OA
ATOM      9  C   UNL     1       1.496   3.512  18.438  0.00  0.00    +0.000 C 
ATOM     10  C   UNL     1       2.123   4.900  18.218  0.00  0.00    +0.000 C 
ENDBRANCH   4   5
ENDBRANCH   3   4
ENDBRANCH   1   2
BRANCH   1  11
ATOM     11  O   UNL     1       7.627   6.604  16.373  0.00  0.00    +0.000 OA
BRANCH  11  12
ATOM     12  C   UNL     1       6.874   7.471  17.191  0.00  0.00    +0.000 C 
BRANCH  12  13
ATOM     13  C   UNL     1       7.814   8.424  17.778  0.00  0.00    +0.000 C 
ATOM     14  C   UNL     1       8.496   9.291  18.248  0.00  0.00    +0.000 C 
BRANCH  14  15
ATOM     15  C   UNL     1       9.329  10.351  18.747  0.00  0.00    +0.000 A 
ATOM     16  C   UNL     1       9.328  10.606  20.124  0.00  0.00    +0.000 A 
ATOM     17  C   UNL     1      10.101  11.642  20.648  0.00  0.00    +0.000 A 
ATOM     18  C   UNL     1      10.879  12.429  19.796  0.00  0.00    +0.000 A 
ATOM     19  C   UNL     1      10.889  12.176  18.420  0.00  0.00    +0.000 A 
ATOM     20  C   UNL     1      10.114  11.136  17.891  0.00  0.00    +0.000 A 
ENDBRANCH  14  15
ENDBRANCH  12  13
ENDBRANCH  11  12
ENDBRANCH   1  11
TORSDOF 7
ENDMDL
MODEL 5
REMARK VINA RESULT:      -6.9      0.942      1.334
REMARK  Name = 
REMARK  7 active torsions:
REMARK  status: ('A' for Active; 'I' for Inactive)
REMARK    1  A    between atoms: C_1  and  C_10
REMARK    2  A    between atoms: C_2  and  C_3
REMARK    3  A    between atoms: C_3  and  N_4
REMARK    4  A    between atoms: C_10  and  O_11
REMARK    5  A    between atoms: O_11  and  C_12
REMARK    6  A    between atoms: C_12  and  C_13
REMARK    7  A    between atoms: C_14  and  C_15
REMARK                            x       y       z     vdW  Elec       q    Type
REMARK                         _______ _______ _______ _____ _____    ______ ____
ROOT
ATOM      1  C   UNL     1       7.760   4.966  18.263  0.00  0.00    +0.000 C 
ENDROOT
BRANCH   1   2
ATOM      2  C   UNL     1       6.284   4.646  18.088  0.00  0.00    +0.000 C 
ATOM      3  C   UNL     1       5.019   4.372  17.938  0.00  0.00    +0.000 C 
BRANCH   3   4
ATOM      4  C   UNL     1       3.617   3.960  17.914  0.00  0.00    +0.000 C 
BRANCH   4   5
ATOM      5  N   UNL     1       3.396   2.567  18.366  0.00  0.00    +0.000 NA
ATOM      6  C   UNL     1       1.987   2.178  18.143  0.00  0.00    +0.000 C 
ATOM      7  C   UNL     1       1.054   2.877  19.155  0.00  0.00    +0.000 C 
ATOM      8  O   UNL     1       1.425   2.555  20.482  0.00  0.00    +0.000 OA
ATOM      9  C   UNL     1       2.748   2.992  20.735  0.00  0.00    +0.000 C 
ATOM     10  C   UNL     1       3.743   2.307  19.781  0.00  0.00    +0.000 C 
ENDBRANCH   4   5
ENDBRANCH   3   4
ENDBRANCH   1   2
BRANCH   1  11
ATOM     11  O   UNL     1       7.890   6.310  18.654  0.00  0.00    +0.000 OA
BRANCH  11  12
ATOM     12  C   UNL     1       7.537   7.155  17.582  0.00  0.00    +0.000 C 
BRANCH  12  13
ATOM     13  C   UNL     1       8.073   8.479  17.892  0.00  0.00    +0.000 C 
ATOM     14  C   UNL     1       8.596   9.508  18.218  0.00  0.00    +0.000 C 
BRANCH  14  15
ATOM     15  C   UNL     1       9.183  10.740  18.667  0.00  0.00    +0.000 A 
ATOM     16  C   UNL     1       9.890  10.739  19.876  0.00  0.00    +0.000 A 
ATOM     17  C   UNL     1      10.454  11.919  20.362  0.00  0.00    +0.000 A 
ATOM     18  C   UNL     1      10.312  13.107  19.642  0.00  0.00    +0.000 A 
ATOM     19  C   UNL     1       9.611  13.113  18.430  0.00  0.00    +0.000 A 
ATOM     20  C   UNL     1       9.045  11.930  17.940  0.00  0.00    +0.000 A 
ENDBRANCH  14  15
ENDBRANCH  12  13
ENDBRANCH  11  12
ENDBRANCH   1  11
TORSDOF 7
ENDMDL
MODEL 6
REMARK VINA RESULT:      -6.8      3.353      9.717
REMARK  Name = 
REMARK  7 active torsions:
REMARK  status: ('A' for Active; 'I' for Inactive)
REMARK    1  A    between atoms: C_1  and  C_10
REMARK    2  A    between atoms: C_2  and  C_3
REMARK    3  A    between atoms: C_3  and  N_4
REMARK    4  A    between atoms: C_10  and  O_11
REMARK    5  A    between atoms: O_11  and  C_12
REMARK    6  A    between atoms: C_12  and  C_13
REMARK    7  A    between atoms: C_14  and  C_15
REMARK                            x       y       z     vdW  Elec       q    Type
REMARK                         _______ _______ _______ _____ _____    ______ ____
ROOT
ATOM      1  C   UNL     1       7.376   6.736  17.592  0.00  0.00    +0.000 C 
ENDROOT
BRANCH   1   2
ATOM      2  C   UNL     1       7.881   8.158  17.781  0.00  0.00    +0.000 C 
ATOM      3  C   UNL     1       8.314   9.376  17.943  0.00  0.00    +0.000 C 
BRANCH   3   4
ATOM      4  C   UNL     1       8.931  10.671  18.222  0.00  0.00    +0.000 C 
BRANCH   4   5
ATOM      5  N   UNL     1       9.961  10.625  19.285  0.00  0.00    +0.000 NA
ATOM      6  C   UNL     1       9.374  11.028  20.581  0.00  0.00    +0.000 C 
ATOM      7  C   UNL     1       9.103  12.547  20.616  0.00  0.00    +0.000 C 
ATOM      8  O   UNL     1      10.298  13.273  20.398  0.00  0.00    +0.000 OA
ATOM      9  C   UNL     1      10.832  12.955  19.125  0.00  0.00    +0.000 C 
ATOM     10  C   UNL     1      11.160  11.455  19.029  0.00  0.00    +0.000 C 
ENDBRANCH   4   5
ENDBRANCH   3   4
ENDBRANCH   1   2
BRANCH   1  11
ATOM     11  O   UNL     1       7.549   6.368  16.246  0.00  0.00    +0.000 OA
BRANCH  11  12
ATOM     12  C   UNL     1       7.401   4.973  16.111  0.00  0.00    +0.000 C 
BRANCH  12  13
ATOM     13  C   UNL     1       6.057   4.643  16.580  0.00  0.00    +0.000 C 
ATOM     14  C   UNL     1       5.007   4.286  17.037  0.00  0.00    +0.000 C 
BRANCH  14  15
ATOM     15  C   UNL     1       3.748   3.807  17.538  0.00  0.00    +0.000 A 
ATOM     16  C   UNL     1       3.645   2.458  17.900  0.00  0.00    +0.000 A 
ATOM     17  C   UNL     1       2.435   1.945  18.366  0.00  0.00    +0.000 A 
ATOM     18  C   UNL     1       1.319   2.779  18.471  0.00  0.00    +0.000 A 
ATOM     19  C   UNL     1       1.416   4.130  18.115  0.00  0.00    +0.000 A 
ATOM     20  C   UNL     1       2.630   4.647  17.647  0.00  0.00    +0.000 A 
ENDBRANCH  14  15
ENDBRANCH  12  13
ENDBRANCH  11  12
ENDBRANCH   1  11
TORSDOF 7
ENDMDL
MODEL 7
REMARK VINA RESULT:      -6.8      1.317      1.578
REMARK  Name = 
REMARK  7 active torsions:
REMARK  status: ('A' for Active; 'I' for Inactive)
REMARK    1  A    between atoms: C_1  and  C_10
REMARK    2  A    between atoms: C_2  and  C_3
REMARK    3  A    between atoms: C_3  and  N_4
REMARK    4  A    between atoms: C_10  and  O_11
REMARK    5  A    between atoms: O_11  and  C_12
REMARK    6  A    between atoms: C_12  and  C_13
REMARK    7  A    between atoms: C_14  and  C_15
REMARK                            x       y       z     vdW  Elec       q    Type
REMARK                         _______ _______ _______ _____ _____    ______ ____
ROOT
ATOM      1  C   UNL     1       5.326   6.663  16.279  0.00  0.00    +0.000 C 
ENDROOT
BRANCH   1   2
ATOM      2  C   UNL     1       4.613   5.410  16.762  0.00  0.00    +0.000 C 
ATOM      3  C   UNL     1       4.002   4.337  17.176  0.00  0.00    +0.000 C 
BRANCH   3   4
ATOM      4  C   UNL     1       3.363   3.058  17.484  0.00  0.00    +0.000 C 
BRANCH   4   5
ATOM      5  N   UNL     1       3.276   2.769  18.934  0.00  0.00    +0.000 NA
ATOM      6  C   UNL     1       2.107   1.908  19.211  0.00  0.00    +0.000 C 
ATOM      7  C   UNL     1       0.790   2.702  19.076  0.00  0.00    +0.000 C 
ATOM      8  O   UNL     1       0.780   3.806  19.962  0.00  0.00    +0.000 OA
ATOM      9  C   UNL     1       1.851   4.681  19.658  0.00  0.00    +0.000 C 
ATOM     10  C   UNL     1       3.204   3.963  19.806  0.00  0.00    +0.000 C 
ENDBRANCH   4   5
ENDBRANCH   3   4
ENDBRANCH   1   2
BRANCH   1  11
ATOM     11  O   UNL     1       5.951   7.281  17.377  0.00  0.00    +0.000 OA
BRANCH  11  12
ATOM     12  C   UNL     1       7.349   7.126  17.278  0.00  0.00    +0.000 C 
BRANCH  12  13
ATOM     13  C   UNL     1       7.949   8.336  17.835  0.00  0.00    +0.000 C 
ATOM     14  C   UNL     1       8.550   9.291  18.243  0.00  0.00    +0.000 C 
BRANCH  14  15
ATOM     15  C   UNL     1       9.289  10.397  18.786  0.00  0.00    +0.000 A 
ATOM     16  C   UNL     1       9.979  11.235  17.901  0.00  0.00    +0.000 A 
ATOM     17  C   UNL     1      10.731  12.305  18.387  0.00  0.00    +0.000 A 
ATOM     18  C   UNL     1      10.798  12.541  19.762  0.00  0.00    +0.000 A 
ATOM     19  C   UNL     1      10.106  11.710  20.652  0.00  0.00    +0.000 A 
ATOM     20  C   UNL     1       9.351  10.636  20.166  0.00  0.00    +0.000 A 
ENDBRANCH  14  15
ENDBRANCH  12  13
ENDBRANCH  11  12
ENDBRANCH   1  11
TORSDOF 7
ENDMDL
MODEL 8
REMARK VINA RESULT:      -6.8      3.264     10.076
REMARK  Name = 
REMARK  7 active torsions:
REMARK  status: ('A' for Active; 'I' for Inactive)
REMARK    1  A    between atoms: C_1  and  C_10
REMARK    2  A    between atoms: C_2  and  C_3
REMARK    3  A    between atoms: C_3  and  N_4
REMARK    4  A    between atoms: C_10  and  O_11
REMARK    5  A    between atoms: O_11  and  C_12
REMARK    6  A    between atoms: C_12  and  C_13
REMARK    7  A    between atoms: C_14  and  C_15
REMARK                            x       y       z     vdW  Elec       q    Type
REMARK                         _______ _______ _______ _____ _____    ______ ____
ROOT
ATOM      1  C   UNL     1       7.423   7.236  17.187  0.00  0.00    +0.000 C 
ENDROOT
BRANCH   1   2
ATOM      2  C   UNL     1       8.124   8.359  17.935  0.00  0.00    +0.000 C 
ATOM      3  C   UNL     1       8.725   9.321  18.576  0.00  0.00    +0.000 C 
BRANCH   3   4
ATOM      4  C   UNL     1       9.239  10.440  19.364  0.00  0.00    +0.000 C 
BRANCH   4   5
ATOM      5  N   UNL     1       9.424  11.685  18.583  0.00  0.00    +0.000 NA
ATOM      6  C   UNL     1      10.656  11.597  17.772  0.00  0.00    +0.000 C 
ATOM      7  C   UNL     1      11.913  11.717  18.660  0.00  0.00    +0.000 C 
ATOM      8  O   UNL     1      11.907  12.940  19.371  0.00  0.00    +0.000 OA
ATOM      9  C   UNL     1      10.770  13.005  20.213  0.00  0.00    +0.000 C 
ATOM     10  C   UNL     1       9.473  12.925  19.389  0.00  0.00    +0.000 C 
ENDBRANCH   4   5
ENDBRANCH   3   4
ENDBRANCH   1   2
BRANCH   1  11
ATOM     11  O   UNL     1       6.040   7.495  17.172  0.00  0.00    +0.000 OA
BRANCH  11  12
ATOM     12  C   UNL     1       5.383   6.528  16.384  0.00  0.00    +0.000 C 
BRANCH  12  13
ATOM     13  C   UNL     1       4.399   5.877  17.245  0.00  0.00    +0.000 C 
ATOM     14  C   UNL     1       3.607   5.241  17.884  0.00  0.00    +0.000 C 
BRANCH  14  15
ATOM     15  C   UNL     1       2.610   4.495  18.600  0.00  0.00    +0.000 A 
ATOM     16  C   UNL     1       2.057   3.363  17.987  0.00  0.00    +0.000 A 
ATOM     17  C   UNL     1       1.068   2.624  18.636  0.00  0.00    +0.000 A 
ATOM     18  C   UNL     1       0.625   3.015  19.902  0.00  0.00    +0.000 A 
ATOM     19  C   UNL     1       1.177   4.142  20.522  0.00  0.00    +0.000 A 
ATOM     20  C   UNL     1       2.170   4.885  19.873  0.00  0.00    +0.000 A 
ENDBRANCH  14  15
ENDBRANCH  12  13
ENDBRANCH  11  12
ENDBRANCH   1  11
TORSDOF 7
ENDMDL
MODEL 9
REMARK VINA RESULT:      -6.8      3.205      9.892
REMARK  Name = 
REMARK  7 active torsions:
REMARK  status: ('A' for Active; 'I' for Inactive)
REMARK    1  A    between atoms: C_1  and  C_10
REMARK    2  A    between atoms: C_2  and  C_3
REMARK    3  A    between atoms: C_3  and  N_4
REMARK    4  A    between atoms: C_10  and  O_11
REMARK    5  A    between atoms: O_11  and  C_12
REMARK    6  A    between atoms: C_12  and  C_13
REMARK    7  A    between atoms: C_14  and  C_15
REMARK                            x       y       z     vdW  Elec       q    Type
REMARK                         _______ _______ _______ _____ _____    ______ ____
ROOT
ATOM      1  C   UNL     1       7.143   7.414  17.219  0.00  0.00    +0.000 C 
ENDROOT
BRANCH   1   2
ATOM      2  C   UNL     1       7.975   8.495  17.889  0.00  0.00    +0.000 C 
ATOM      3  C   UNL     1       8.689   9.422  18.463  0.00  0.00    +0.000 C 
BRANCH   3   4
ATOM      4  C   UNL     1       9.359  10.575  19.060  0.00  0.00    +0.000 C 
BRANCH   4   5
ATOM      5  N   UNL     1      10.107  11.403  18.085  0.00  0.00    +0.000 NA
ATOM      6  C   UNL     1      11.455  11.709  18.606  0.00  0.00    +0.000 C 
ATOM      7  C   UNL     1      11.385  12.743  19.750  0.00  0.00    +0.000 C 
ATOM      8  O   UNL     1      10.773  13.939  19.304  0.00  0.00    +0.000 OA
ATOM      9  C   UNL     1       9.450  13.674  18.873  0.00  0.00    +0.000 C 
ATOM     10  C   UNL     1       9.444  12.671  17.706  0.00  0.00    +0.000 C 
ENDBRANCH   4   5
ENDBRANCH   3   4
ENDBRANCH   1   2
BRANCH   1  11
ATOM     11  O   UNL     1       7.741   6.164  17.462  0.00  0.00    +0.000 OA
BRANCH  11  12
ATOM     12  C   UNL     1       7.568   5.808  18.815  0.00  0.00    +0.000 C 
BRANCH  12  13
ATOM     13  C   UNL     1       6.237   5.216  18.930  0.00  0.00    +0.000 C 
ATOM     14  C   UNL     1       5.142   4.726  18.900  0.00  0.00    +0.000 C 
BRANCH  14  15
ATOM     15  C   UNL     1       3.805   4.202  18.855  0.00  0.00    +0.000 A 
ATOM     16  C   UNL     1       2.953   4.640  17.833  0.00  0.00    +0.000 A 
ATOM     17  C   UNL     1       1.639   4.178  17.767  0.00  0.00    +0.000 A 
ATOM     18  C   UNL     1       1.169   3.275  18.724  0.00  0.00    +0.000 A 
ATOM     19  C   UNL     1       2.018   2.829  19.744  0.00  0.00    +0.000 A 
ATOM     20  C   UNL     1       3.337   3.291  19.812  0.00  0.00    +0.000 A 
ENDBRANCH  14  15
ENDBRANCH  12  13
ENDBRANCH  11  12
ENDBRANCH   1  11
TORSDOF 7
ENDMDL
