MODEL 1
REMARK VINA RESULT:      -6.7      0.000      0.000
REMARK  Name = 
REMARK  9 active torsions:
REMARK  status: ('A' for Active; 'I' for Inactive)
REMARK    1  A    between atoms: C_1  and  C_2
REMARK    2  A    between atoms: C_2  and  S_3
REMARK    3  A    between atoms: S_3  and  C_4
REMARK    4  A    between atoms: C_4  and  C_5
REMARK    5  A    between atoms: C_5  and  C_6
REMARK    6  A    between atoms: C_5  and  N_7
REMARK    7  A    between atoms: N_7  and  C_8
REMARK    8  A    between atoms: C_8  and  C_9
REMARK    9  A    between atoms: C_11  and  C_12
REMARK                            x       y       z     vdW  Elec       q    Type
REMARK                         _______ _______ _______ _____ _____    ______ ____
ROOT
ATOM      1  C   UNL     1       5.856   4.364  17.814  0.00  0.00    +0.000 A 
ATOM      2  C   UNL     1       5.540   4.365  16.436  0.00  0.00    +0.000 A 
ATOM      3  C   UNL     1       6.743   4.540  15.790  0.00  0.00    +0.000 A 
ATOM      4  O   UNL     1       7.724   4.618  16.740  0.00  0.00    +0.000 OA
ATOM      5  N   UNL     1       7.172   4.514  18.006  0.00  0.00    +0.000 NA
ENDROOT
BRANCH   3   6
ATOM      6  C   UNL     1       6.996   4.642  14.386  0.00  0.00    +0.000 A 
ATOM      7  C   UNL     1       6.424   3.921  13.350  0.00  0.00    +0.000 A 
ATOM      8  C   UNL     1       7.028   4.363  12.149  0.00  0.00    +0.000 A 
ATOM      9  C   UNL     1       7.928   5.334  12.513  0.00  0.00    +0.000 A 
ATOM     10  O   UNL     1       7.914   5.514  13.857  0.00  0.00    +0.000 OA
ENDBRANCH   3   6
BRANCH   1  11
ATOM     11  C   UNL     1       4.928   4.185  18.971  0.00  0.00    +0.000 C 
BRANCH  11  12
ATOM     12  N   UNL     1       5.223   2.914  19.655  0.00  0.00    +0.000 NA
ATOM     13  H   UNL     1       5.923   2.424  19.093  0.00  0.00    +0.000 HD
BRANCH  12  14
ATOM     14  C   UNL     1       4.027   2.050  19.784  0.00  0.00    +0.000 C 
ATOM     15  C   UNL     1       3.387   1.798  18.411  0.00  0.00    +0.000 C 
BRANCH  14  16
ATOM     16  C   UNL     1       3.014   2.712  20.759  0.00  0.00    +0.000 C 
BRANCH  16  17
ATOM     17  S   UNL     1       1.337   2.802  20.026  0.00  0.00    +0.000 S 
BRANCH  17  19
ATOM     18  C   UNL     1       1.799   5.409  20.648  0.00  0.00    +0.000 C 
ATOM     19  C   UNL     1       1.322   4.539  19.496  0.00  0.00    +0.000 C 
ENDBRANCH  17  19
ENDBRANCH  16  17
ENDBRANCH  14  16
ENDBRANCH  12  14
ENDBRANCH  11  12
ENDBRANCH   1  11
TORSDOF 7
ENDMDL
MODEL 2
REMARK VINA RESULT:      -6.6      1.079      1.230
REMARK  Name = 
REMARK  9 active torsions:
REMARK  status: ('A' for Active; 'I' for Inactive)
REMARK    1  A    between atoms: C_1  and  C_2
REMARK    2  A    between atoms: C_2  and  S_3
REMARK    3  A    between atoms: S_3  and  C_4
REMARK    4  A    between atoms: C_4  and  C_5
REMARK    5  A    between atoms: C_5  and  C_6
REMARK    6  A    between atoms: C_5  and  N_7
REMARK    7  A    between atoms: N_7  and  C_8
REMARK    8  A    between atoms: C_8  and  C_9
REMARK    9  A    between atoms: C_11  and  C_12
REMARK                            x       y       z     vdW  Elec       q    Type
REMARK                         _______ _______ _______ _____ _____    ______ ____
ROOT
ATOM      1  C   UNL     1       6.286   5.061  17.660  0.00  0.00    +0.000 A 
ATOM      2  C   UNL     1       6.022   4.356  16.463  0.00  0.00    +0.000 A 
ATOM      3  C   UNL     1       6.775   4.986  15.499  0.00  0.00    +0.000 A 
ATOM      4  O   UNL     1       7.465   6.002  16.101  0.00  0.00    +0.000 OA
ATOM      5  N   UNL     1       7.157   6.055  17.450  0.00  0.00    +0.000 NA
ENDROOT
BRANCH   3   6
ATOM      6  C   UNL     1       6.861   4.694  14.102  0.00  0.00    +0.000 A 
ATOM      7  C   UNL     1       6.203   3.710  13.382  0.00  0.00    +0.000 A 
ATOM      8  C   UNL     1       6.648   3.804  12.041  0.00  0.00    +0.000 A 
ATOM      9  C   UNL     1       7.543   4.843  12.011  0.00  0.00    +0.000 A 
ATOM     10  O   UNL     1       7.676   5.391  13.245  0.00  0.00    +0.000 OA
ENDBRANCH   3   6
BRANCH   1  11
ATOM     11  C   UNL     1       5.749   4.787  19.027  0.00  0.00    +0.000 C 
BRANCH  11  12
ATOM     12  N   UNL     1       5.532   3.341  19.197  0.00  0.00    +0.000 NA
ATOM     13  H   UNL     1       5.860   2.884  18.344  0.00  0.00    +0.000 HD
BRANCH  12  14
ATOM     14  C   UNL     1       4.104   3.003  19.397  0.00  0.00    +0.000 C 
ATOM     15  C   UNL     1       3.711   1.782  18.552  0.00  0.00    +0.000 C 
BRANCH  14  16
ATOM     16  C   UNL     1       3.226   4.234  19.040  0.00  0.00    +0.000 C 
BRANCH  16  17
ATOM     17  S   UNL     1       1.480   3.755  18.757  0.00  0.00    +0.000 S 
BRANCH  17  19
ATOM     18  C   UNL     1       1.240   2.862  21.314  0.00  0.00    +0.000 C 
ATOM     19  C   UNL     1       0.810   4.018  20.424  0.00  0.00    +0.000 C 
ENDBRANCH  17  19
ENDBRANCH  16  17
ENDBRANCH  14  16
ENDBRANCH  12  14
ENDBRANCH  11  12
ENDBRANCH   1  11
TORSDOF 7
ENDMDL
MODEL 3
REMARK VINA RESULT:      -6.5      1.201      2.055
REMARK  Name = 
REMARK  9 active torsions:
REMARK  status: ('A' for Active; 'I' for Inactive)
REMARK    1  A    between atoms: C_1  and  C_2
REMARK    2  A    between atoms: C_2  and  S_3
REMARK    3  A    between atoms: S_3  and  C_4
REMARK    4  A    between atoms: C_4  and  C_5
REMARK    5  A    between atoms: C_5  and  C_6
REMARK    6  A    between atoms: C_5  and  N_7
REMARK    7  A    between atoms: N_7  and  C_8
REMARK    8  A    between atoms: C_8  and  C_9
REMARK    9  A    between atoms: C_11  and  C_12
REMARK                            x       y       z     vdW  Elec       q    Type
REMARK                         _______ _______ _______ _____ _____    ______ ____
ROOT
ATOM      1  C   UNL     1       5.868   4.365  17.996  0.00  0.00    +0.000 A 
ATOM      2  C   UNL     1       5.516   4.334  16.628  0.00  0.00    +0.000 A 
ATOM      3  C   UNL     1       6.700   4.510  15.947  0.00  0.00    +0.000 A 
ATOM      4  O   UNL     1       7.704   4.621  16.869  0.00  0.00    +0.000 OA
ATOM      5  N   UNL     1       7.187   4.536  18.151  0.00  0.00    +0.000 NA
ENDROOT
BRANCH   3   6
ATOM      6  C   UNL     1       6.915   4.586  14.535  0.00  0.00    +0.000 A 
ATOM      7  C   UNL     1       6.322   3.841  13.529  0.00  0.00    +0.000 A 
ATOM      8  C   UNL     1       6.891   4.264  12.304  0.00  0.00    +0.000 A 
ATOM      9  C   UNL     1       7.791   5.249  12.625  0.00  0.00    +0.000 A 
ATOM     10  O   UNL     1       7.810   5.455  13.965  0.00  0.00    +0.000 OA
ENDBRANCH   3   6
BRANCH   1  11
ATOM     11  C   UNL     1       4.973   4.197  19.181  0.00  0.00    +0.000 C 
BRANCH  11  12
ATOM     12  N   UNL     1       4.344   5.486  19.517  0.00  0.00    +0.000 NA
ATOM     13  H   UNL     1       4.310   5.549  20.537  0.00  0.00    +0.000 HD
BRANCH  12  14
ATOM     14  C   UNL     1       2.966   5.600  18.987  0.00  0.00    +0.000 C 
ATOM     15  C   UNL     1       2.749   6.970  18.328  0.00  0.00    +0.000 C 
BRANCH  14  16
ATOM     16  C   UNL     1       1.949   5.369  20.139  0.00  0.00    +0.000 C 
BRANCH  16  17
ATOM     17  S   UNL     1       1.045   3.788  19.931  0.00  0.00    +0.000 S 
BRANCH  17  19
ATOM     18  C   UNL     1       2.804   2.445  21.511  0.00  0.00    +0.000 C 
ATOM     19  C   UNL     1       1.394   3.015  21.537  0.00  0.00    +0.000 C 
ENDBRANCH  17  19
ENDBRANCH  16  17
ENDBRANCH  14  16
ENDBRANCH  12  14
ENDBRANCH  11  12
ENDBRANCH   1  11
TORSDOF 7
ENDMDL
MODEL 4
REMARK VINA RESULT:      -6.4      1.171      1.315
REMARK  Name = 
REMARK  9 active torsions:
REMARK  status: ('A' for Active; 'I' for Inactive)
REMARK    1  A    between atoms: C_1  and  C_2
REMARK    2  A    between atoms: C_2  and  S_3
REMARK    3  A    between atoms: S_3  and  C_4
REMARK    4  A    between atoms: C_4  and  C_5
REMARK    5  A    between atoms: C_5  and  C_6
REMARK    6  A    between atoms: C_5  and  N_7
REMARK    7  A    between atoms: N_7  and  C_8
REMARK    8  A    between atoms: C_8  and  C_9
REMARK    9  A    between atoms: C_11  and  C_12
REMARK                            x       y       z     vdW  Elec       q    Type
REMARK                         _______ _______ _______ _____ _____    ______ ____
ROOT
ATOM      1  C   UNL     1       6.267   4.508  17.924  0.00  0.00    +0.000 A 
ATOM      2  C   UNL     1       5.800   4.539  16.590  0.00  0.00    +0.000 A 
ATOM      3  C   UNL     1       6.934   4.563  15.811  0.00  0.00    +0.000 A 
ATOM      4  O   UNL     1       8.018   4.528  16.644  0.00  0.00    +0.000 OA
ATOM      5  N   UNL     1       7.604   4.499  17.966  0.00  0.00    +0.000 NA
ENDROOT
BRANCH   3   6
ATOM      6  C   UNL     1       7.038   4.626  14.386  0.00  0.00    +0.000 A 
ATOM      7  C   UNL     1       6.354   3.884  13.436  0.00  0.00    +0.000 A 
ATOM      8  C   UNL     1       6.831   4.288  12.166  0.00  0.00    +0.000 A 
ATOM      9  C   UNL     1       7.771   5.259  12.407  0.00  0.00    +0.000 A 
ATOM     10  O   UNL     1       7.900   5.475  13.739  0.00  0.00    +0.000 OA
ENDBRANCH   3   6
BRANCH   1  11
ATOM     11  C   UNL     1       5.460   4.449  19.180  0.00  0.00    +0.000 C 
BRANCH  11  12
ATOM     12  N   UNL     1       4.988   3.072  19.406  0.00  0.00    +0.000 NA
ATOM     13  H   UNL     1       5.354   2.499  18.643  0.00  0.00    +0.000 HD
BRANCH  12  14
ATOM     14  C   UNL     1       3.510   2.973  19.408  0.00  0.00    +0.000 C 
ATOM     15  C   UNL     1       3.053   1.674  18.729  0.00  0.00    +0.000 C 
BRANCH  14  16
ATOM     16  C   UNL     1       2.908   4.216  18.697  0.00  0.00    +0.000 C 
BRANCH  16  17
ATOM     17  S   UNL     1       1.769   5.135  19.800  0.00  0.00    +0.000 S 
BRANCH  17  19
ATOM     18  C   UNL     1       2.434   7.261  18.241  0.00  0.00    +0.000 C 
ATOM     19  C   UNL     1       2.497   6.795  19.687  0.00  0.00    +0.000 C 
ENDBRANCH  17  19
ENDBRANCH  16  17
ENDBRANCH  14  16
ENDBRANCH  12  14
ENDBRANCH  11  12
ENDBRANCH   1  11
TORSDOF 7
ENDMDL
MODEL 5
REMARK VINA RESULT:      -6.4      1.902      2.653
REMARK  Name = 
REMARK  9 active torsions:
REMARK  status: ('A' for Active; 'I' for Inactive)
REMARK    1  A    between atoms: C_1  and  C_2
REMARK    2  A    between atoms: C_2  and  S_3
REMARK    3  A    between atoms: S_3  and  C_4
REMARK    4  A    between atoms: C_4  and  C_5
REMARK    5  A    between atoms: C_5  and  C_6
REMARK    6  A    between atoms: C_5  and  N_7
REMARK    7  A    between atoms: N_7  and  C_8
REMARK    8  A    between atoms: C_8  and  C_9
REMARK    9  A    between atoms: C_11  and  C_12
REMARK                            x       y       z     vdW  Elec       q    Type
REMARK                         _______ _______ _______ _____ _____    ______ ____
ROOT
ATOM      1  C   UNL     1       6.692   5.033  16.229  0.00  0.00    +0.000 A 
ATOM      2  C   UNL     1       5.921   4.107  15.489  0.00  0.00    +0.000 A 
ATOM      3  C   UNL     1       6.315   4.273  14.181  0.00  0.00    +0.000 A 
ATOM      4  O   UNL     1       7.285   5.237  14.152  0.00  0.00    +0.000 OA
ATOM      5  N   UNL     1       7.519   5.718  15.429  0.00  0.00    +0.000 NA
ENDROOT
BRANCH   3   6
ATOM      6  C   UNL     1       5.834   3.604  13.012  0.00  0.00    +0.000 A 
ATOM      7  C   UNL     1       6.516   2.744  12.166  0.00  0.00    +0.000 A 
ATOM      8  C   UNL     1       5.619   2.373  11.135  0.00  0.00    +0.000 A 
ATOM      9  C   UNL     1       4.439   3.017  11.411  0.00  0.00    +0.000 A 
ATOM     10  O   UNL     1       4.554   3.757  12.541  0.00  0.00    +0.000 OA
ENDBRANCH   3   6
BRANCH   1  11
ATOM     11  C   UNL     1       6.688   5.263  17.705  0.00  0.00    +0.000 C 
BRANCH  11  12
ATOM     12  N   UNL     1       6.207   4.055  18.396  0.00  0.00    +0.000 NA
ATOM     13  H   UNL     1       6.419   3.257  17.793  0.00  0.00    +0.000 HD
BRANCH  12  14
ATOM     14  C   UNL     1       4.747   4.087  18.645  0.00  0.00    +0.000 C 
ATOM     15  C   UNL     1       4.349   5.380  19.371  0.00  0.00    +0.000 C 
BRANCH  14  16
ATOM     16  C   UNL     1       4.336   2.835  19.468  0.00  0.00    +0.000 C 
BRANCH  16  17
ATOM     17  S   UNL     1       3.266   1.711  18.493  0.00  0.00    +0.000 S 
BRANCH  17  19
ATOM     18  C   UNL     1       0.992   2.852  19.454  0.00  0.00    +0.000 C 
ATOM     19  C   UNL     1       1.848   2.808  18.198  0.00  0.00    +0.000 C 
ENDBRANCH  17  19
ENDBRANCH  16  17
ENDBRANCH  14  16
ENDBRANCH  12  14
ENDBRANCH  11  12
ENDBRANCH   1  11
TORSDOF 7
ENDMDL
MODEL 6
REMARK VINA RESULT:      -6.2      1.637      2.668
REMARK  Name = 
REMARK  9 active torsions:
REMARK  status: ('A' for Active; 'I' for Inactive)
REMARK    1  A    between atoms: C_1  and  C_2
REMARK    2  A    between atoms: C_2  and  S_3
REMARK    3  A    between atoms: S_3  and  C_4
REMARK    4  A    between atoms: C_4  and  C_5
REMARK    5  A    between atoms: C_5  and  C_6
REMARK    6  A    between atoms: C_5  and  N_7
REMARK    7  A    between atoms: N_7  and  C_8
REMARK    8  A    between atoms: C_8  and  C_9
REMARK    9  A    between atoms: C_11  and  C_12
REMARK                            x       y       z     vdW  Elec       q    Type
REMARK                         _______ _______ _______ _____ _____    ______ ____
ROOT
ATOM      1  C   UNL     1       3.858   5.560  18.733  0.00  0.00    +0.000 A 
ATOM      2  C   UNL     1       3.970   5.537  17.323  0.00  0.00    +0.000 A 
ATOM      3  C   UNL     1       5.245   5.086  17.070  0.00  0.00    +0.000 A 
ATOM      4  O   UNL     1       5.850   4.837  18.271  0.00  0.00    +0.000 OA
ATOM      5  N   UNL     1       4.988   5.138  19.312  0.00  0.00    +0.000 NA
ENDROOT
BRANCH   3   6
ATOM      6  C   UNL     1       5.892   4.900  15.808  0.00  0.00    +0.000 A 
ATOM      7  C   UNL     1       5.468   4.152  14.722  0.00  0.00    +0.000 A 
ATOM      8  C   UNL     1       6.469   4.254  13.727  0.00  0.00    +0.000 A 
ATOM      9  C   UNL     1       7.445   5.062  14.253  0.00  0.00    +0.000 A 
ATOM     10  O   UNL     1       7.106   5.462  15.504  0.00  0.00    +0.000 OA
ENDBRANCH   3   6
BRANCH   1  11
ATOM     11  C   UNL     1       2.672   5.946  19.555  0.00  0.00    +0.000 C 
BRANCH  11  12
ATOM     12  N   UNL     1       2.748   5.298  20.875  0.00  0.00    +0.000 NA
ATOM     13  H   UNL     1       3.685   4.900  20.963  0.00  0.00    +0.000 HD
BRANCH  12  14
ATOM     14  C   UNL     1       1.754   4.210  21.031  0.00  0.00    +0.000 C 
ATOM     15  C   UNL     1       2.432   2.919  21.512  0.00  0.00    +0.000 C 
BRANCH  14  16
ATOM     16  C   UNL     1       1.020   3.984  19.680  0.00  0.00    +0.000 C 
BRANCH  16  17
ATOM     17  S   UNL     1       1.118   2.234  19.146  0.00  0.00    +0.000 S 
BRANCH  17  19
ATOM     18  C   UNL     1       3.592   1.703  18.150  0.00  0.00    +0.000 C 
ATOM     19  C   UNL     1       2.292   2.394  17.769  0.00  0.00    +0.000 C 
ENDBRANCH  17  19
ENDBRANCH  16  17
ENDBRANCH  14  16
ENDBRANCH  12  14
ENDBRANCH  11  12
ENDBRANCH   1  11
TORSDOF 7
ENDMDL
MODEL 7
REMARK VINA RESULT:      -6.2      1.152      2.261
REMARK  Name = 
REMARK  9 active torsions:
REMARK  status: ('A' for Active; 'I' for Inactive)
REMARK    1  A    between atoms: C_1  and  C_2
REMARK    2  A    between atoms: C_2  and  S_3
REMARK    3  A    between atoms: S_3  and  C_4
REMARK    4  A    between atoms: C_4  and  C_5
REMARK    5  A    between atoms: C_5  and  C_6
REMARK    6  A    between atoms: C_5  and  N_7
REMARK    7  A    between atoms: N_7  and  C_8
REMARK    8  A    between atoms: C_8  and  C_9
REMARK    9  A    between atoms: C_11  and  C_12
REMARK                            x       y       z     vdW  Elec       q    Type
REMARK                         _______ _______ _______ _____ _____    ______ ____
ROOT
ATOM      1  C   UNL     1       5.598   4.967  18.185  0.00  0.00    +0.000 A 
ATOM      2  C   UNL     1       5.329   5.086  16.802  0.00  0.00    +0.000 A 
ATOM      3  C   UNL     1       6.489   4.691  16.174  0.00  0.00    +0.000 A 
ATOM      4  O   UNL     1       7.391   4.339  17.139  0.00  0.00    +0.000 OA
ATOM      5  N   UNL     1       6.840   4.516  18.397  0.00  0.00    +0.000 NA
ENDROOT
BRANCH   3   6
ATOM      6  C   UNL     1       6.774   4.645  14.774  0.00  0.00    +0.000 A 
ATOM      7  C   UNL     1       6.181   3.862  13.796  0.00  0.00    +0.000 A 
ATOM      8  C   UNL     1       6.833   4.153  12.574  0.00  0.00    +0.000 A 
ATOM      9  C   UNL     1       7.781   5.101  12.867  0.00  0.00    +0.000 A 
ATOM     10  O   UNL     1       7.751   5.409  14.188  0.00  0.00    +0.000 OA
ENDBRANCH   3   6
BRANCH   1  11
ATOM     11  C   UNL     1       4.676   5.243  19.328  0.00  0.00    +0.000 C 
BRANCH  11  12
ATOM     12  N   UNL     1       3.390   5.750  18.821  0.00  0.00    +0.000 NA
ATOM     13  H   UNL     1       3.457   6.770  18.795  0.00  0.00    +0.000 HD
BRANCH  12  14
ATOM     14  C   UNL     1       2.250   5.371  19.687  0.00  0.00    +0.000 C 
ATOM     15  C   UNL     1       1.830   6.548  20.579  0.00  0.00    +0.000 C 
BRANCH  14  16
ATOM     16  C   UNL     1       2.641   4.134  20.543  0.00  0.00    +0.000 C 
BRANCH  16  17
ATOM     17  S   UNL     1       1.724   2.636  20.018  0.00  0.00    +0.000 S 
BRANCH  17  19
ATOM     18  C   UNL     1       2.575   2.475  17.440  0.00  0.00    +0.000 C 
ATOM     19  C   UNL     1       2.910   1.948  18.826  0.00  0.00    +0.000 C 
ENDBRANCH  17  19
ENDBRANCH  16  17
ENDBRANCH  14  16
ENDBRANCH  12  14
ENDBRANCH  11  12
ENDBRANCH   1  11
TORSDOF 7
ENDMDL
MODEL 8
REMARK VINA RESULT:      -6.2      1.266      1.429
REMARK  Name = 
REMARK  9 active torsions:
REMARK  status: ('A' for Active; 'I' for Inactive)
REMARK    1  A    between atoms: C_1  and  C_2
REMARK    2  A    between atoms: C_2  and  S_3
REMARK    3  A    between atoms: S_3  and  C_4
REMARK    4  A    between atoms: C_4  and  C_5
REMARK    5  A    between atoms: C_5  and  C_6
REMARK    6  A    between atoms: C_5  and  N_7
REMARK    7  A    between atoms: N_7  and  C_8
REMARK    8  A    between atoms: C_8  and  C_9
REMARK    9  A    between atoms: C_11  and  C_12
REMARK                            x       y       z     vdW  Elec       q    Type
REMARK                         _______ _______ _______ _____ _____    ______ ____
ROOT
ATOM      1  C   UNL     1       6.139   4.398  17.839  0.00  0.00    +0.000 A 
ATOM      2  C   UNL     1       5.659   4.286  16.514  0.00  0.00    +0.000 A 
ATOM      3  C   UNL     1       6.779   4.362  15.717  0.00  0.00    +0.000 A 
ATOM      4  O   UNL     1       7.869   4.493  16.533  0.00  0.00    +0.000 OA
ATOM      5  N   UNL     1       7.472   4.522  17.860  0.00  0.00    +0.000 NA
ENDROOT
BRANCH   3   6
ATOM      6  C   UNL     1       6.863   4.330  14.290  0.00  0.00    +0.000 A 
ATOM      7  C   UNL     1       7.629   5.123  13.451  0.00  0.00    +0.000 A 
ATOM      8  C   UNL     1       7.339   4.729  12.122  0.00  0.00    +0.000 A 
ATOM      9  C   UNL     1       6.420   3.715  12.221  0.00  0.00    +0.000 A 
ATOM     10  O   UNL     1       6.130   3.462  13.521  0.00  0.00    +0.000 OA
ENDBRANCH   3   6
BRANCH   1  11
ATOM     11  C   UNL     1       5.353   4.354  19.109  0.00  0.00    +0.000 C 
BRANCH  11  12
ATOM     12  N   UNL     1       5.166   2.956  19.532  0.00  0.00    +0.000 NA
ATOM     13  H   UNL     1       5.606   2.365  18.823  0.00  0.00    +0.000 HD
BRANCH  12  14
ATOM     14  C   UNL     1       3.737   2.583  19.642  0.00  0.00    +0.000 C 
ATOM     15  C   UNL     1       3.153   2.254  18.260  0.00  0.00    +0.000 C 
BRANCH  14  16
ATOM     16  C   UNL     1       2.952   3.742  20.318  0.00  0.00    +0.000 C 
BRANCH  16  17
ATOM     17  S   UNL     1       1.905   4.638  19.110  0.00  0.00    +0.000 S 
BRANCH  17  19
ATOM     18  C   UNL     1       2.513   7.118  18.175  0.00  0.00    +0.000 C 
ATOM     19  C   UNL     1       2.396   6.347  19.481  0.00  0.00    +0.000 C 
ENDBRANCH  17  19
ENDBRANCH  16  17
ENDBRANCH  14  16
ENDBRANCH  12  14
ENDBRANCH  11  12
ENDBRANCH   1  11
TORSDOF 7
ENDMDL
MODEL 9
REMARK VINA RESULT:      -6.1      1.799      2.536
REMARK  Name = 
REMARK  9 active torsions:
REMARK  status: ('A' for Active; 'I' for Inactive)
REMARK    1  A    between atoms: C_1  and  C_2
REMARK    2  A    between atoms: C_2  and  S_3
REMARK    3  A    between atoms: S_3  and  C_4
REMARK    4  A    between atoms: C_4  and  C_5
REMARK    5  A    between atoms: C_5  and  C_6
REMARK    6  A    between atoms: C_5  and  N_7
REMARK    7  A    between atoms: N_7  and  C_8
REMARK    8  A    between atoms: C_8  and  C_9
REMARK    9  A    between atoms: C_11  and  C_12
REMARK                            x       y       z     vdW  Elec       q    Type
REMARK                         _______ _______ _______ _____ _____    ______ ____
ROOT
ATOM      1  C   UNL     1       6.721   4.766  16.359  0.00  0.00    +0.000 A 
ATOM      2  C   UNL     1       6.014   3.836  15.564  0.00  0.00    +0.000 A 
ATOM      3  C   UNL     1       6.343   4.149  14.264  0.00  0.00    +0.000 A 
ATOM      4  O   UNL     1       7.217   5.200  14.293  0.00  0.00    +0.000 OA
ATOM      5  N   UNL     1       7.451   5.592  15.600  0.00  0.00    +0.000 NA
ENDROOT
BRANCH   3   6
ATOM      6  C   UNL     1       5.884   3.538  13.056  0.00  0.00    +0.000 A 
ATOM      7  C   UNL     1       4.676   3.718  12.401  0.00  0.00    +0.000 A 
ATOM      8  C   UNL     1       4.682   2.867  11.270  0.00  0.00    +0.000 A 
ATOM      9  C   UNL     1       5.893   2.220  11.289  0.00  0.00    +0.000 A 
ATOM     10  O   UNL     1       6.627   2.620  12.357  0.00  0.00    +0.000 OA
ENDBRANCH   3   6
BRANCH   1  11
ATOM     11  C   UNL     1       6.749   4.869  17.850  0.00  0.00    +0.000 C 
BRANCH  11  12
ATOM     12  N   UNL     1       6.023   3.732  18.441  0.00  0.00    +0.000 NA
ATOM     13  H   UNL     1       6.018   2.982  17.747  0.00  0.00    +0.000 HD
BRANCH  12  14
ATOM     14  C   UNL     1       4.623   4.071  18.786  0.00  0.00    +0.000 C 
ATOM     15  C   UNL     1       4.500   5.555  19.160  0.00  0.00    +0.000 C 
BRANCH  14  16
ATOM     16  C   UNL     1       4.142   3.160  19.949  0.00  0.00    +0.000 C 
BRANCH  16  17
ATOM     17  S   UNL     1       2.553   3.747  20.649  0.00  0.00    +0.000 S 
BRANCH  17  19
ATOM     18  C   UNL     1       0.884   2.695  18.777  0.00  0.00    +0.000 C 
ATOM     19  C   UNL     1       1.468   2.380  20.145  0.00  0.00    +0.000 C 
ENDBRANCH  17  19
ENDBRANCH  16  17
ENDBRANCH  14  16
ENDBRANCH  12  14
ENDBRANCH  11  12
ENDBRANCH   1  11
TORSDOF 7
ENDMDL
