MODEL 1
REMARK VINA RESULT:      -6.8      0.000      0.000
REMARK  Name = 
REMARK  9 active torsions:
REMARK  status: ('A' for Active; 'I' for Inactive)
REMARK    1  A    between atoms: C_1  and  C_2
REMARK    2  A    between atoms: C_2  and  C_3
REMARK    3  A    between atoms: C_3  and  C_4
REMARK    4  A    between atoms: C_3  and  C_5
REMARK    5  A    between atoms: C_5  and  N_6
REMARK    6  A    between atoms: C_5  and  C_22
REMARK    7  A    between atoms: C_7  and  C_9
REMARK    8  A    between atoms: N_24  and  C_25
REMARK    9  A    between atoms: C_25  and  C_26
REMARK                            x       y       z     vdW  Elec       q    Type
REMARK                         _______ _______ _______ _____ _____    ______ ____
ROOT
ATOM      1  N   UNL     1       2.587   7.122  19.898  0.00  0.00    +0.000 N 
ATOM      2  C   UNL     1       1.569   7.915  20.371  0.00  0.00    +0.000 C 
ATOM      3  O   UNL     1       0.565   7.419  20.882  0.00  0.00    +0.000 OA
ATOM      4  H   UNL     1       3.266   7.540  19.259  0.00  0.00    +0.000 HD
ENDROOT
BRANCH   2   5
ATOM      5  C   UNL     1       1.829   9.457  20.415  0.00  0.00    +0.000 C 
ATOM      6  C   UNL     1       0.839  10.061  21.430  0.00  0.00    +0.000 C 
ATOM      7  S   UNL     1       0.906  11.827  21.092  0.00  0.00    +0.000 S 
ATOM      8  C   UNL     1       1.017  11.511  19.330  0.00  0.00    +0.000 C 
ATOM      9  C   UNL     1      -0.287  11.139  18.684  0.00  0.00    +0.000 A 
ATOM     10  C   UNL     1      -1.573  11.600  18.904  0.00  0.00    +0.000 A 
ATOM     11  C   UNL     1      -2.633  10.849  18.385  0.00  0.00    +0.000 A 
ATOM     12  C   UNL     1      -2.398   9.684  17.628  0.00  0.00    +0.000 A 
ATOM     13  C   UNL     1      -1.098   9.269  17.343  0.00  0.00    +0.000 A 
ATOM     14  C   UNL     1      -0.073  10.022  17.878  0.00  0.00    +0.000 A 
ATOM     15  C   UNL     1       1.331   9.639  18.028  0.00  0.00    +0.000 C 
ATOM     16  O   UNL     1       1.934   8.823  17.361  0.00  0.00    +0.000 OA
ATOM     17  N   UNL     1       1.801  10.281  19.171  0.00  0.00    +0.000 N 
ENDBRANCH   2   5
BRANCH   1  18
ATOM     18  C   UNL     1       2.521   5.657  19.959  0.00  0.00    +0.000 C 
BRANCH  18  19
ATOM     19  C   UNL     1       3.927   5.121  19.587  0.00  0.00    +0.000 C 
ATOM     20  O   UNL     1       4.317   3.990  19.854  0.00  0.00    +0.000 OA
ATOM     21  N   UNL     1       4.668   5.986  18.801  0.00  0.00    +0.000 N 
ATOM     22  H   UNL     1       4.403   6.964  18.745  0.00  0.00    +0.000 HD
BRANCH  21  23
ATOM     23  C   UNL     1       6.015   5.647  18.397  0.00  0.00    +0.000 C 
BRANCH  23  24
ATOM     24  C   UNL     1       6.025   5.212  16.977  0.00  0.00    +0.000 A 
ATOM     25  C   UNL     1       5.069   4.640  16.162  0.00  0.00    +0.000 A 
ATOM     26  C   UNL     1       5.697   4.390  14.917  0.00  0.00    +0.000 A 
ATOM     27  C   UNL     1       6.990   4.836  15.049  0.00  0.00    +0.000 A 
ATOM     28  O   UNL     1       7.200   5.342  16.292  0.00  0.00    +0.000 OA
ENDBRANCH  23  24
ENDBRANCH  21  23
ENDBRANCH  18  19
BRANCH  18  29
ATOM     29  C   UNL     1       1.346   5.047  19.141  0.00  0.00    +0.000 C 
ATOM     30  C   UNL     1       1.672   4.739  17.678  0.00  0.00    +0.000 C 
BRANCH  29  32
ATOM     31  C   UNL     1       0.898   2.516  19.029  0.00  0.00    +0.000 C 
ATOM     32  C   UNL     1       0.777   3.795  19.850  0.00  0.00    +0.000 C 
ENDBRANCH  29  32
ENDBRANCH  18  29
ENDBRANCH   1  18
TORSDOF 7
ENDMDL
MODEL 2
REMARK VINA RESULT:      -6.7      2.206      7.345
REMARK  Name = 
REMARK  9 active torsions:
REMARK  status: ('A' for Active; 'I' for Inactive)
REMARK    1  A    between atoms: C_1  and  C_2
REMARK    2  A    between atoms: C_2  and  C_3
REMARK    3  A    between atoms: C_3  and  C_4
REMARK    4  A    between atoms: C_3  and  C_5
REMARK    5  A    between atoms: C_5  and  N_6
REMARK    6  A    between atoms: C_5  and  C_22
REMARK    7  A    between atoms: C_7  and  C_9
REMARK    8  A    between atoms: N_24  and  C_25
REMARK    9  A    between atoms: C_25  and  C_26
REMARK                            x       y       z     vdW  Elec       q    Type
REMARK                         _______ _______ _______ _____ _____    ______ ____
ROOT
ATOM      1  N   UNL     1       3.359   5.996  19.735  0.00  0.00    +0.000 N 
ATOM      2  C   UNL     1       4.018   6.362  18.587  0.00  0.00    +0.000 C 
ATOM      3  O   UNL     1       3.397   6.718  17.585  0.00  0.00    +0.000 OA
ATOM      4  H   UNL     1       3.876   5.467  20.440  0.00  0.00    +0.000 HD
ENDROOT
BRANCH   2   5
ATOM      5  C   UNL     1       5.575   6.498  18.672  0.00  0.00    +0.000 C 
ATOM      6  C   UNL     1       6.001   7.548  17.627  0.00  0.00    +0.000 C 
ATOM      7  S   UNL     1       7.781   7.317  17.492  0.00  0.00    +0.000 S 
ATOM      8  C   UNL     1       7.585   5.539  17.626  0.00  0.00    +0.000 C 
ATOM      9  C   UNL     1       7.108   4.872  16.368  0.00  0.00    +0.000 A 
ATOM     10  C   UNL     1       7.408   5.120  15.040  0.00  0.00    +0.000 A 
ATOM     11  C   UNL     1       6.574   4.557  14.068  0.00  0.00    +0.000 A 
ATOM     12  C   UNL     1       5.490   3.731  14.427  0.00  0.00    +0.000 A 
ATOM     13  C   UNL     1       5.242   3.421  15.763  0.00  0.00    +0.000 A 
ATOM     14  C   UNL     1       6.073   4.001  16.700  0.00  0.00    +0.000 A 
ATOM     15  C   UNL     1       5.841   4.126  18.140  0.00  0.00    +0.000 C 
ATOM     16  O   UNL     1       5.140   3.412  18.826  0.00  0.00    +0.000 OA
ATOM     17  N   UNL     1       6.464   5.306  18.543  0.00  0.00    +0.000 N 
ENDBRANCH   2   5
BRANCH   1  18
ATOM     18  C   UNL     1       1.893   5.992  19.819  0.00  0.00    +0.000 C 
BRANCH  18  19
ATOM     19  C   UNL     1       1.467   7.358  20.414  0.00  0.00    +0.000 C 
ATOM     20  O   UNL     1       1.222   7.537  21.601  0.00  0.00    +0.000 OA
ATOM     21  N   UNL     1       1.517   8.404  19.509  0.00  0.00    +0.000 N 
ATOM     22  H   UNL     1       1.548   8.206  18.515  0.00  0.00    +0.000 HD
BRANCH  21  23
ATOM     23  C   UNL     1       1.117   9.739  19.900  0.00  0.00    +0.000 C 
BRANCH  23  24
ATOM     24  C   UNL     1      -0.103  10.142  19.155  0.00  0.00    +0.000 A 
ATOM     25  C   UNL     1      -1.210  10.892  19.497  0.00  0.00    +0.000 A 
ATOM     26  C   UNL     1      -2.074  10.871  18.375  0.00  0.00    +0.000 A 
ATOM     27  C   UNL     1      -1.435  10.120  17.418  0.00  0.00    +0.000 A 
ATOM     28  O   UNL     1      -0.235   9.677  17.877  0.00  0.00    +0.000 OA
ENDBRANCH  23  24
ENDBRANCH  21  23
ENDBRANCH  18  19
BRANCH  18  29
ATOM     29  C   UNL     1       1.309   4.746  20.546  0.00  0.00    +0.000 C 
ATOM     30  C   UNL     1       0.731   3.673  19.620  0.00  0.00    +0.000 C 
BRANCH  29  32
ATOM     31  C   UNL     1       2.164   2.640  21.752  0.00  0.00    +0.000 C 
ATOM     32  C   UNL     1       2.354   4.133  21.508  0.00  0.00    +0.000 C 
ENDBRANCH  29  32
ENDBRANCH  18  29
ENDBRANCH   1  18
TORSDOF 7
ENDMDL
MODEL 3
REMARK VINA RESULT:      -6.4      3.607      6.028
REMARK  Name = 
REMARK  9 active torsions:
REMARK  status: ('A' for Active; 'I' for Inactive)
REMARK    1  A    between atoms: C_1  and  C_2
REMARK    2  A    between atoms: C_2  and  C_3
REMARK    3  A    between atoms: C_3  and  C_4
REMARK    4  A    between atoms: C_3  and  C_5
REMARK    5  A    between atoms: C_5  and  N_6
REMARK    6  A    between atoms: C_5  and  C_22
REMARK    7  A    between atoms: C_7  and  C_9
REMARK    8  A    between atoms: N_24  and  C_25
REMARK    9  A    between atoms: C_25  and  C_26
REMARK                            x       y       z     vdW  Elec       q    Type
REMARK                         _______ _______ _______ _____ _____    ______ ____
ROOT
ATOM      1  N   UNL     1       1.382  11.680  18.913  0.00  0.00    +0.000 N 
ATOM      2  C   UNL     1       1.814  12.620  19.817  0.00  0.00    +0.000 C 
ATOM      3  O   UNL     1       1.778  12.397  21.028  0.00  0.00    +0.000 OA
ATOM      4  H   UNL     1       1.182  11.988  17.958  0.00  0.00    +0.000 HD
ENDROOT
BRANCH   2   5
ATOM      5  C   UNL     1       2.533  13.885  19.243  0.00  0.00    +0.000 C 
ATOM      6  C   UNL     1       3.503  14.394  20.326  0.00  0.00    +0.000 C 
ATOM      7  S   UNL     1       3.936  16.049  19.768  0.00  0.00    +0.000 S 
ATOM      8  C   UNL     1       2.253  16.330  19.215  0.00  0.00    +0.000 C 
ATOM      9  C   UNL     1       1.283  16.638  20.318  0.00  0.00    +0.000 A 
ATOM     10  C   UNL     1       1.429  17.386  21.474  0.00  0.00    +0.000 A 
ATOM     11  C   UNL     1       0.462  17.237  22.473  0.00  0.00    +0.000 A 
ATOM     12  C   UNL     1      -0.647  16.388  22.293  0.00  0.00    +0.000 A 
ATOM     13  C   UNL     1      -0.831  15.700  21.095  0.00  0.00    +0.000 A 
ATOM     14  C   UNL     1       0.145  15.855  20.133  0.00  0.00    +0.000 A 
ATOM     15  C   UNL     1       0.381  15.014  18.959  0.00  0.00    +0.000 C 
ATOM     16  O   UNL     1      -0.436  14.324  18.385  0.00  0.00    +0.000 OA
ATOM     17  N   UNL     1       1.754  15.044  18.716  0.00  0.00    +0.000 N 
ENDBRANCH   2   5
BRANCH   1  18
ATOM     18  C   UNL     1       0.841  10.385  19.339  0.00  0.00    +0.000 C 
BRANCH  18  19
ATOM     19  C   UNL     1       1.627   9.289  18.575  0.00  0.00    +0.000 C 
ATOM     20  O   UNL     1       2.065   9.432  17.439  0.00  0.00    +0.000 OA
ATOM     21  N   UNL     1       1.917   8.171  19.337  0.00  0.00    +0.000 N 
ATOM     22  H   UNL     1       1.403   8.002  20.195  0.00  0.00    +0.000 HD
BRANCH  21  23
ATOM     23  C   UNL     1       2.616   7.043  18.759  0.00  0.00    +0.000 C 
BRANCH  23  24
ATOM     24  C   UNL     1       2.082   5.775  19.316  0.00  0.00    +0.000 A 
ATOM     25  C   UNL     1       1.768   5.368  20.598  0.00  0.00    +0.000 A 
ATOM     26  C   UNL     1       1.360   4.015  20.503  0.00  0.00    +0.000 A 
ATOM     27  C   UNL     1       1.441   3.687  19.171  0.00  0.00    +0.000 A 
ATOM     28  O   UNL     1       1.871   4.748  18.440  0.00  0.00    +0.000 OA
ENDBRANCH  23  24
ENDBRANCH  21  23
ENDBRANCH  18  19
BRANCH  18  29
ATOM     29  C   UNL     1      -0.707  10.283  19.228  0.00  0.00    +0.000 C 
ATOM     30  C   UNL     1      -1.479  11.394  19.945  0.00  0.00    +0.000 C 
BRANCH  29  32
ATOM     31  C   UNL     1      -2.627   9.873  17.565  0.00  0.00    +0.000 C 
ATOM     32  C   UNL     1      -1.145  10.180  17.748  0.00  0.00    +0.000 C 
ENDBRANCH  29  32
ENDBRANCH  18  29
ENDBRANCH   1  18
TORSDOF 7
ENDMDL
MODEL 4
REMARK VINA RESULT:      -6.4      1.097      1.639
REMARK  Name = 
REMARK  9 active torsions:
REMARK  status: ('A' for Active; 'I' for Inactive)
REMARK    1  A    between atoms: C_1  and  C_2
REMARK    2  A    between atoms: C_2  and  C_3
REMARK    3  A    between atoms: C_3  and  C_4
REMARK    4  A    between atoms: C_3  and  C_5
REMARK    5  A    between atoms: C_5  and  N_6
REMARK    6  A    between atoms: C_5  and  C_22
REMARK    7  A    between atoms: C_7  and  C_9
REMARK    8  A    between atoms: N_24  and  C_25
REMARK    9  A    between atoms: C_25  and  C_26
REMARK                            x       y       z     vdW  Elec       q    Type
REMARK                         _______ _______ _______ _____ _____    ______ ____
ROOT
ATOM      1  N   UNL     1       2.689   7.211  19.734  0.00  0.00    +0.000 N 
ATOM      2  C   UNL     1       1.679   7.924  20.333  0.00  0.00    +0.000 C 
ATOM      3  O   UNL     1       0.750   7.352  20.903  0.00  0.00    +0.000 OA
ATOM      4  H   UNL     1       3.286   7.694  19.060  0.00  0.00    +0.000 HD
ENDROOT
BRANCH   2   5
ATOM      5  C   UNL     1       1.865   9.475  20.433  0.00  0.00    +0.000 C 
ATOM      6  C   UNL     1       0.835   9.996  21.454  0.00  0.00    +0.000 C 
ATOM      7  S   UNL     1       0.823  11.774  21.178  0.00  0.00    +0.000 S 
ATOM      8  C   UNL     1       0.970  11.524  19.408  0.00  0.00    +0.000 C 
ATOM      9  C   UNL     1      -0.307  11.115  18.732  0.00  0.00    +0.000 A 
ATOM     10  C   UNL     1      -1.616  11.507  18.950  0.00  0.00    +0.000 A 
ATOM     11  C   UNL     1      -2.633  10.725  18.392  0.00  0.00    +0.000 A 
ATOM     12  C   UNL     1      -2.334   9.600  17.598  0.00  0.00    +0.000 A 
ATOM     13  C   UNL     1      -1.012   9.257  17.317  0.00  0.00    +0.000 A 
ATOM     14  C   UNL     1      -0.031  10.038  17.892  0.00  0.00    +0.000 A 
ATOM     15  C   UNL     1       1.388   9.716  18.047  0.00  0.00    +0.000 C 
ATOM     16  O   UNL     1       2.037   8.953  17.361  0.00  0.00    +0.000 OA
ATOM     17  N   UNL     1       1.814  10.340  19.218  0.00  0.00    +0.000 N 
ENDBRANCH   2   5
BRANCH   1  18
ATOM     18  C   UNL     1       2.701   5.743  19.725  0.00  0.00    +0.000 C 
BRANCH  18  19
ATOM     19  C   UNL     1       3.997   5.302  18.999  0.00  0.00    +0.000 C 
ATOM     20  O   UNL     1       4.702   4.370  19.370  0.00  0.00    +0.000 OA
ATOM     21  N   UNL     1       4.227   5.966  17.808  0.00  0.00    +0.000 N 
ATOM     22  H   UNL     1       3.741   6.835  17.617  0.00  0.00    +0.000 HD
BRANCH  21  23
ATOM     23  C   UNL     1       5.414   5.693  17.026  0.00  0.00    +0.000 C 
BRANCH  23  24
ATOM     24  C   UNL     1       6.547   6.516  17.520  0.00  0.00    +0.000 A 
ATOM     25  C   UNL     1       7.520   6.302  18.476  0.00  0.00    +0.000 A 
ATOM     26  C   UNL     1       8.287   7.491  18.544  0.00  0.00    +0.000 A 
ATOM     27  C   UNL     1       7.742   8.348  17.619  0.00  0.00    +0.000 A 
ATOM     28  O   UNL     1       6.690   7.766  16.986  0.00  0.00    +0.000 OA
ENDBRANCH  23  24
ENDBRANCH  21  23
ENDBRANCH  18  19
BRANCH  18  29
ATOM     29  C   UNL     1       1.391   5.107  19.178  0.00  0.00    +0.000 C 
ATOM     30  C   UNL     1       1.526   4.429  17.812  0.00  0.00    +0.000 C 
BRANCH  29  32
ATOM     31  C   UNL     1       1.726   3.019  20.643  0.00  0.00    +0.000 C 
ATOM     32  C   UNL     1       0.779   4.135  20.213  0.00  0.00    +0.000 C 
ENDBRANCH  29  32
ENDBRANCH  18  29
ENDBRANCH   1  18
TORSDOF 7
ENDMDL
MODEL 5
REMARK VINA RESULT:      -6.4      2.838      7.801
REMARK  Name = 
REMARK  9 active torsions:
REMARK  status: ('A' for Active; 'I' for Inactive)
REMARK    1  A    between atoms: C_1  and  C_2
REMARK    2  A    between atoms: C_2  and  C_3
REMARK    3  A    between atoms: C_3  and  C_4
REMARK    4  A    between atoms: C_3  and  C_5
REMARK    5  A    between atoms: C_5  and  N_6
REMARK    6  A    between atoms: C_5  and  C_22
REMARK    7  A    between atoms: C_7  and  C_9
REMARK    8  A    between atoms: N_24  and  C_25
REMARK    9  A    between atoms: C_25  and  C_26
REMARK                            x       y       z     vdW  Elec       q    Type
REMARK                         _______ _______ _______ _____ _____    ______ ____
ROOT
ATOM      1  N   UNL     1       2.322   8.287  19.417  0.00  0.00    +0.000 N 
ATOM      2  C   UNL     1       2.531   7.180  18.630  0.00  0.00    +0.000 C 
ATOM      3  O   UNL     1       1.808   6.945  17.662  0.00  0.00    +0.000 OA
ATOM      4  H   UNL     1       2.758   8.309  20.341  0.00  0.00    +0.000 HD
ENDROOT
BRANCH   2   5
ATOM      5  C   UNL     1       3.832   6.353  18.895  0.00  0.00    +0.000 C 
ATOM      6  C   UNL     1       4.255   5.721  17.554  0.00  0.00    +0.000 C 
ATOM      7  S   UNL     1       5.460   4.472  18.032  0.00  0.00    +0.000 S 
ATOM      8  C   UNL     1       4.488   4.054  19.481  0.00  0.00    +0.000 C 
ATOM      9  C   UNL     1       3.283   3.205  19.194  0.00  0.00    +0.000 A 
ATOM     10  C   UNL     1       3.099   2.162  18.303  0.00  0.00    +0.000 A 
ATOM     11  C   UNL     1       1.787   1.768  18.022  0.00  0.00    +0.000 A 
ATOM     12  C   UNL     1       0.690   2.384  18.658  0.00  0.00    +0.000 A 
ATOM     13  C   UNL     1       0.887   3.379  19.614  0.00  0.00    +0.000 A 
ATOM     14  C   UNL     1       2.190   3.756  19.860  0.00  0.00    +0.000 A 
ATOM     15  C   UNL     1       2.656   4.969  20.533  0.00  0.00    +0.000 C 
ATOM     16  O   UNL     1       2.041   5.628  21.345  0.00  0.00    +0.000 OA
ATOM     17  N   UNL     1       3.879   5.303  19.954  0.00  0.00    +0.000 N 
ENDBRANCH   2   5
BRANCH   1  18
ATOM     18  C   UNL     1       1.225   9.226  19.158  0.00  0.00    +0.000 C 
BRANCH  18  19
ATOM     19  C   UNL     1       1.801  10.371  18.286  0.00  0.00    +0.000 C 
ATOM     20  O   UNL     1       2.214  10.214  17.143  0.00  0.00    +0.000 OA
ATOM     21  N   UNL     1       1.687  11.625  18.859  0.00  0.00    +0.000 N 
ATOM     22  H   UNL     1       1.512  11.707  19.855  0.00  0.00    +0.000 HD
BRANCH  21  23
ATOM     23  C   UNL     1       2.209  12.795  18.187  0.00  0.00    +0.000 C 
BRANCH  23  24
ATOM     24  C   UNL     1       1.371  13.980  18.506  0.00  0.00    +0.000 A 
ATOM     25  C   UNL     1       0.019  14.143  18.730  0.00  0.00    +0.000 A 
ATOM     26  C   UNL     1      -0.194  15.530  18.922  0.00  0.00    +0.000 A 
ATOM     27  C   UNL     1       1.042  16.122  18.814  0.00  0.00    +0.000 A 
ATOM     28  O   UNL     1       2.001  15.190  18.568  0.00  0.00    +0.000 OA
ENDBRANCH  23  24
ENDBRANCH  21  23
ENDBRANCH  18  19
BRANCH  18  29
ATOM     29  C   UNL     1       0.477   9.688  20.441  0.00  0.00    +0.000 C 
ATOM     30  C   UNL     1      -1.010   9.994  20.245  0.00  0.00    +0.000 C 
BRANCH  29  32
ATOM     31  C   UNL     1       0.394   9.244  22.974  0.00  0.00    +0.000 C 
ATOM     32  C   UNL     1       0.679   8.672  21.590  0.00  0.00    +0.000 C 
ENDBRANCH  29  32
ENDBRANCH  18  29
ENDBRANCH   1  18
TORSDOF 7
ENDMDL
MODEL 6
REMARK VINA RESULT:      -6.3      5.336      8.483
REMARK  Name = 
REMARK  9 active torsions:
REMARK  status: ('A' for Active; 'I' for Inactive)
REMARK    1  A    between atoms: C_1  and  C_2
REMARK    2  A    between atoms: C_2  and  C_3
REMARK    3  A    between atoms: C_3  and  C_4
REMARK    4  A    between atoms: C_3  and  C_5
REMARK    5  A    between atoms: C_5  and  N_6
REMARK    6  A    between atoms: C_5  and  C_22
REMARK    7  A    between atoms: C_7  and  C_9
REMARK    8  A    between atoms: N_24  and  C_25
REMARK    9  A    between atoms: C_25  and  C_26
REMARK                            x       y       z     vdW  Elec       q    Type
REMARK                         _______ _______ _______ _____ _____    ______ ____
ROOT
ATOM      1  N   UNL     1      -1.923  11.891  21.032  0.00  0.00    +0.000 N 
ATOM      2  C   UNL     1      -2.516  13.126  21.145  0.00  0.00    +0.000 C 
ATOM      3  O   UNL     1      -1.846  14.157  21.092  0.00  0.00    +0.000 OA
ATOM      4  H   UNL     1      -2.454  11.073  21.337  0.00  0.00    +0.000 HD
ENDROOT
BRANCH   2   5
ATOM      5  C   UNL     1      -4.080  13.169  21.139  0.00  0.00    +0.000 C 
ATOM      6  C   UNL     1      -4.499  14.543  20.582  0.00  0.00    +0.000 C 
ATOM      7  S   UNL     1      -6.241  14.666  21.018  0.00  0.00    +0.000 S 
ATOM      8  C   UNL     1      -5.925  13.883  22.601  0.00  0.00    +0.000 C 
ATOM      9  C   UNL     1      -5.303  14.787  23.626  0.00  0.00    +0.000 A 
ATOM     10  C   UNL     1      -5.515  16.126  23.903  0.00  0.00    +0.000 A 
ATOM     11  C   UNL     1      -4.568  16.786  24.694  0.00  0.00    +0.000 A 
ATOM     12  C   UNL     1      -3.458  16.100  25.226  0.00  0.00    +0.000 A 
ATOM     13  C   UNL     1      -3.293  14.733  25.008  0.00  0.00    +0.000 A 
ATOM     14  C   UNL     1      -4.235  14.112  24.214  0.00  0.00    +0.000 A 
ATOM     15  C   UNL     1      -4.127  12.809  23.558  0.00  0.00    +0.000 C 
ATOM     16  O   UNL     1      -3.432  11.878  23.905  0.00  0.00    +0.000 OA
ATOM     17  N   UNL     1      -4.865  12.894  22.378  0.00  0.00    +0.000 N 
ENDBRANCH   2   5
BRANCH   1  18
ATOM     18  C   UNL     1      -0.473  11.740  20.865  0.00  0.00    +0.000 C 
BRANCH  18  19
ATOM     19  C   UNL     1      -0.225  11.312  19.396  0.00  0.00    +0.000 C 
ATOM     20  O   UNL     1       0.755  11.654  18.744  0.00  0.00    +0.000 OA
ATOM     21  N   UNL     1      -1.141  10.392  18.917  0.00  0.00    +0.000 N 
ATOM     22  H   UNL     1      -2.023  10.265  19.402  0.00  0.00    +0.000 HD
BRANCH  21  23
ATOM     23  C   UNL     1      -1.067   9.918  17.552  0.00  0.00    +0.000 C 
BRANCH  23  24
ATOM     24  C   UNL     1      -2.300  10.297  16.816  0.00  0.00    +0.000 A 
ATOM     25  C   UNL     1      -2.752  10.033  15.538  0.00  0.00    +0.000 A 
ATOM     26  C   UNL     1      -3.978  10.726  15.393  0.00  0.00    +0.000 A 
ATOM     27  C   UNL     1      -4.201  11.359  16.592  0.00  0.00    +0.000 A 
ATOM     28  O   UNL     1      -3.193  11.100  17.466  0.00  0.00    +0.000 OA
ENDBRANCH  23  24
ENDBRANCH  21  23
ENDBRANCH  18  19
BRANCH  18  29
ATOM     29  C   UNL     1       0.192  10.829  21.937  0.00  0.00    +0.000 C 
ATOM     30  C   UNL     1      -0.781  10.197  22.936  0.00  0.00    +0.000 C 
BRANCH  29  32
ATOM     31  C   UNL     1       0.577   8.323  21.504  0.00  0.00    +0.000 C 
ATOM     32  C   UNL     1       1.070   9.747  21.268  0.00  0.00    +0.000 C 
ENDBRANCH  29  32
ENDBRANCH  18  29
ENDBRANCH   1  18
TORSDOF 7
ENDMDL
MODEL 7
REMARK VINA RESULT:      -6.3      1.327      1.666
REMARK  Name = 
REMARK  9 active torsions:
REMARK  status: ('A' for Active; 'I' for Inactive)
REMARK    1  A    between atoms: C_1  and  C_2
REMARK    2  A    between atoms: C_2  and  C_3
REMARK    3  A    between atoms: C_3  and  C_4
REMARK    4  A    between atoms: C_3  and  C_5
REMARK    5  A    between atoms: C_5  and  N_6
REMARK    6  A    between atoms: C_5  and  C_22
REMARK    7  A    between atoms: C_7  and  C_9
REMARK    8  A    between atoms: N_24  and  C_25
REMARK    9  A    between atoms: C_25  and  C_26
REMARK                            x       y       z     vdW  Elec       q    Type
REMARK                         _______ _______ _______ _____ _____    ______ ____
ROOT
ATOM      1  N   UNL     1       2.446   6.967  20.450  0.00  0.00    +0.000 N 
ATOM      2  C   UNL     1       1.210   7.510  20.708  0.00  0.00    +0.000 C 
ATOM      3  O   UNL     1       0.194   6.816  20.683  0.00  0.00    +0.000 OA
ATOM      4  H   UNL     1       3.213   7.602  20.223  0.00  0.00    +0.000 HD
ENDROOT
BRANCH   2   5
ATOM      5  C   UNL     1       1.175   8.987  21.225  0.00  0.00    +0.000 C 
ATOM      6  C   UNL     1      -0.167   9.186  21.955  0.00  0.00    +0.000 C 
ATOM      7  S   UNL     1      -0.304  10.973  22.117  0.00  0.00    +0.000 S 
ATOM      8  C   UNL     1       0.396  11.199  20.480  0.00  0.00    +0.000 C 
ATOM      9  C   UNL     1      -0.561  10.933  19.355  0.00  0.00    +0.000 A 
ATOM     10  C   UNL     1      -1.912  11.208  19.228  0.00  0.00    +0.000 A 
ATOM     11  C   UNL     1      -2.615  10.562  18.206  0.00  0.00    +0.000 A 
ATOM     12  C   UNL     1      -1.963   9.694  17.309  0.00  0.00    +0.000 A 
ATOM     13  C   UNL     1      -0.587   9.484  17.393  0.00  0.00    +0.000 A 
ATOM     14  C   UNL     1       0.078  10.124  18.418  0.00  0.00    +0.000 A 
ATOM     15  C   UNL     1       1.412   9.824  18.939  0.00  0.00    +0.000 C 
ATOM     16  O   UNL     1       2.321   9.291  18.338  0.00  0.00    +0.000 OA
ATOM     17  N   UNL     1       1.391  10.136  20.297  0.00  0.00    +0.000 N 
ENDBRANCH   2   5
BRANCH   1  18
ATOM     18  C   UNL     1       2.613   5.547  20.116  0.00  0.00    +0.000 C 
BRANCH  18  19
ATOM     19  C   UNL     1       2.691   5.449  18.571  0.00  0.00    +0.000 C 
ATOM     20  O   UNL     1       2.206   6.280  17.811  0.00  0.00    +0.000 OA
ATOM     21  N   UNL     1       3.477   4.407  18.114  0.00  0.00    +0.000 N 
ATOM     22  H   UNL     1       3.714   3.645  18.741  0.00  0.00    +0.000 HD
BRANCH  21  23
ATOM     23  C   UNL     1       3.624   4.159  16.695  0.00  0.00    +0.000 C 
BRANCH  23  24
ATOM     24  C   UNL     1       5.032   4.386  16.283  0.00  0.00    +0.000 A 
ATOM     25  C   UNL     1       5.646   4.498  15.052  0.00  0.00    +0.000 A 
ATOM     26  C   UNL     1       7.032   4.644  15.304  0.00  0.00    +0.000 A 
ATOM     27  C   UNL     1       7.174   4.623  16.671  0.00  0.00    +0.000 A 
ATOM     28  O   UNL     1       5.966   4.474  17.276  0.00  0.00    +0.000 OA
ENDBRANCH  23  24
ENDBRANCH  21  23
ENDBRANCH  18  19
BRANCH  18  29
ATOM     29  C   UNL     1       1.560   4.616  20.783  0.00  0.00    +0.000 C 
ATOM     30  C   UNL     1       0.772   3.735  19.811  0.00  0.00    +0.000 C 
BRANCH  29  32
ATOM     31  C   UNL     1       2.705   2.399  21.410  0.00  0.00    +0.000 C 
ATOM     32  C   UNL     1       2.212   3.759  21.893  0.00  0.00    +0.000 C 
ENDBRANCH  29  32
ENDBRANCH  18  29
ENDBRANCH   1  18
TORSDOF 7
ENDMDL
MODEL 8
REMARK VINA RESULT:      -6.3      1.007      1.017
REMARK  Name = 
REMARK  9 active torsions:
REMARK  status: ('A' for Active; 'I' for Inactive)
REMARK    1  A    between atoms: C_1  and  C_2
REMARK    2  A    between atoms: C_2  and  C_3
REMARK    3  A    between atoms: C_3  and  C_4
REMARK    4  A    between atoms: C_3  and  C_5
REMARK    5  A    between atoms: C_5  and  N_6
REMARK    6  A    between atoms: C_5  and  C_22
REMARK    7  A    between atoms: C_7  and  C_9
REMARK    8  A    between atoms: N_24  and  C_25
REMARK    9  A    between atoms: C_25  and  C_26
REMARK                            x       y       z     vdW  Elec       q    Type
REMARK                         _______ _______ _______ _____ _____    ______ ____
ROOT
ATOM      1  N   UNL     1       2.336   7.441  20.196  0.00  0.00    +0.000 N 
ATOM      2  C   UNL     1       1.164   7.862  20.778  0.00  0.00    +0.000 C 
ATOM      3  O   UNL     1       0.295   7.055  21.107  0.00  0.00    +0.000 OA
ATOM      4  H   UNL     1       2.905   8.134  19.706  0.00  0.00    +0.000 HD
ENDROOT
BRANCH   2   5
ATOM      5  C   UNL     1       1.072   9.370  21.184  0.00  0.00    +0.000 C 
ATOM      6  C   UNL     1      -0.264   9.564  21.928  0.00  0.00    +0.000 C 
ATOM      7  S   UNL     1      -0.479  11.350  21.960  0.00  0.00    +0.000 S 
ATOM      8  C   UNL     1       0.178  11.483  20.296  0.00  0.00    +0.000 C 
ATOM      9  C   UNL     1      -0.789  11.091  19.216  0.00  0.00    +0.000 A 
ATOM     10  C   UNL     1      -2.152  11.295  19.100  0.00  0.00    +0.000 A 
ATOM     11  C   UNL     1      -2.846  10.544  18.145  0.00  0.00    +0.000 A 
ATOM     12  C   UNL     1      -2.172   9.640  17.300  0.00  0.00    +0.000 A 
ATOM     13  C   UNL     1      -0.787   9.498  17.368  0.00  0.00    +0.000 A 
ATOM     14  C   UNL     1      -0.132  10.242  18.327  0.00  0.00    +0.000 A 
ATOM     15  C   UNL     1       1.225  10.042  18.838  0.00  0.00    +0.000 C 
ATOM     16  O   UNL     1       2.146   9.505  18.257  0.00  0.00    +0.000 OA
ATOM     17  N   UNL     1       1.216  10.454  20.169  0.00  0.00    +0.000 N 
ENDBRANCH   2   5
BRANCH   1  18
ATOM     18  C   UNL     1       2.599   6.024  19.920  0.00  0.00    +0.000 C 
BRANCH  18  19
ATOM     19  C   UNL     1       3.942   5.951  19.150  0.00  0.00    +0.000 C 
ATOM     20  O   UNL     1       4.349   6.837  18.407  0.00  0.00    +0.000 OA
ATOM     21  N   UNL     1       4.718   4.854  19.477  0.00  0.00    +0.000 N 
ATOM     22  H   UNL     1       4.293   4.062  19.947  0.00  0.00    +0.000 HD
BRANCH  21  23
ATOM     23  C   UNL     1       5.987   4.624  18.821  0.00  0.00    +0.000 C 
BRANCH  23  24
ATOM     24  C   UNL     1       5.793   4.555  17.350  0.00  0.00    +0.000 A 
ATOM     25  C   UNL     1       4.976   3.787  16.544  0.00  0.00    +0.000 A 
ATOM     26  C   UNL     1       5.290   4.131  15.207  0.00  0.00    +0.000 A 
ATOM     27  C   UNL     1       6.270   5.092  15.283  0.00  0.00    +0.000 A 
ATOM     28  O   UNL     1       6.578   5.363  16.578  0.00  0.00    +0.000 OA
ENDBRANCH  23  24
ENDBRANCH  21  23
ENDBRANCH  18  19
BRANCH  18  29
ATOM     29  C   UNL     1       1.410   5.285  19.241  0.00  0.00    +0.000 C 
ATOM     30  C   UNL     1       1.624   4.942  17.765  0.00  0.00    +0.000 C 
BRANCH  29  32
ATOM     31  C   UNL     1       0.940   2.756  19.200  0.00  0.00    +0.000 C 
ATOM     32  C   UNL     1       1.018   4.023  20.045  0.00  0.00    +0.000 C 
ENDBRANCH  29  32
ENDBRANCH  18  29
ENDBRANCH   1  18
TORSDOF 7
ENDMDL
MODEL 9
REMARK VINA RESULT:      -6.2      6.288      9.282
REMARK  Name = 
REMARK  9 active torsions:
REMARK  status: ('A' for Active; 'I' for Inactive)
REMARK    1  A    between atoms: C_1  and  C_2
REMARK    2  A    between atoms: C_2  and  C_3
REMARK    3  A    between atoms: C_3  and  C_4
REMARK    4  A    between atoms: C_3  and  C_5
REMARK    5  A    between atoms: C_5  and  N_6
REMARK    6  A    between atoms: C_5  and  C_22
REMARK    7  A    between atoms: C_7  and  C_9
REMARK    8  A    between atoms: N_24  and  C_25
REMARK    9  A    between atoms: C_25  and  C_26
REMARK                            x       y       z     vdW  Elec       q    Type
REMARK                         _______ _______ _______ _____ _____    ______ ____
ROOT
ATOM      1  N   UNL     1      -2.940  12.513  20.724  0.00  0.00    +0.000 N 
ATOM      2  C   UNL     1      -3.879  13.516  20.714  0.00  0.00    +0.000 C 
ATOM      3  O   UNL     1      -3.544  14.698  20.640  0.00  0.00    +0.000 OA
ATOM      4  H   UNL     1      -3.228  11.587  21.046  0.00  0.00    +0.000 HD
ENDROOT
BRANCH   2   5
ATOM      5  C   UNL     1      -5.379  13.086  20.597  0.00  0.00    +0.000 C 
ATOM      6  C   UNL     1      -6.097  14.150  19.746  0.00  0.00    +0.000 C 
ATOM      7  S   UNL     1      -7.843  13.820  20.032  0.00  0.00    +0.000 S 
ATOM      8  C   UNL     1      -7.516  13.459  21.759  0.00  0.00    +0.000 C 
ATOM      9  C   UNL     1      -7.304  14.674  22.616  0.00  0.00    +0.000 A 
ATOM     10  C   UNL     1      -7.916  15.914  22.599  0.00  0.00    +0.000 A 
ATOM     11  C   UNL     1      -7.298  16.956  23.299  0.00  0.00    +0.000 A 
ATOM     12  C   UNL     1      -6.114  16.740  24.031  0.00  0.00    +0.000 A 
ATOM     13  C   UNL     1      -5.546  15.469  24.108  0.00  0.00    +0.000 A 
ATOM     14  C   UNL     1      -6.170  14.465  23.398  0.00  0.00    +0.000 A 
ATOM     15  C   UNL     1      -5.620  13.160  23.030  0.00  0.00    +0.000 C 
ATOM     16  O   UNL     1      -4.738  12.556  23.605  0.00  0.00    +0.000 OA
ATOM     17  N   UNL     1      -6.201  12.810  21.812  0.00  0.00    +0.000 N 
ENDBRANCH   2   5
BRANCH   1  18
ATOM     18  C   UNL     1      -1.501  12.798  20.669  0.00  0.00    +0.000 C 
BRANCH  18  19
ATOM     19  C   UNL     1      -0.921  11.983  19.485  0.00  0.00    +0.000 C 
ATOM     20  O   UNL     1       0.214  12.135  19.046  0.00  0.00    +0.000 OA
ATOM     21  N   UNL     1      -1.747  10.964  19.046  0.00  0.00    +0.000 N 
ATOM     22  H   UNL     1      -2.730  10.972  19.298  0.00  0.00    +0.000 HD
BRANCH  21  23
ATOM     23  C   UNL     1      -1.364  10.133  17.925  0.00  0.00    +0.000 C 
BRANCH  23  24
ATOM     24  C   UNL     1      -2.355  10.272  16.828  0.00  0.00    +0.000 A 
ATOM     25  C   UNL     1      -2.472   9.681  15.585  0.00  0.00    +0.000 A 
ATOM     26  C   UNL     1      -3.597  10.273  14.962  0.00  0.00    +0.000 A 
ATOM     27  C   UNL     1      -4.100  11.177  15.866  0.00  0.00    +0.000 A 
ATOM     28  O   UNL     1      -3.359  11.181  17.005  0.00  0.00    +0.000 OA
ENDBRANCH  23  24
ENDBRANCH  21  23
ENDBRANCH  18  19
BRANCH  18  29
ATOM     29  C   UNL     1      -0.769  12.601  22.027  0.00  0.00    +0.000 C 
ATOM     30  C   UNL     1      -0.593  13.876  22.855  0.00  0.00    +0.000 C 
BRANCH  29  32
ATOM     31  C   UNL     1      -0.697  10.172  22.873  0.00  0.00    +0.000 C 
ATOM     32  C   UNL     1      -1.454  11.495  22.864  0.00  0.00    +0.000 C 
ENDBRANCH  29  32
ENDBRANCH  18  29
ENDBRANCH   1  18
TORSDOF 7
ENDMDL
