MODEL 1
REMARK VINA RESULT:      -7.4      0.000      0.000
REMARK  Name = 
REMARK  9 active torsions:
REMARK  status: ('A' for Active; 'I' for Inactive)
REMARK    1  A    between atoms: C_1  and  C_2
REMARK    2  A    between atoms: C_4  and  C_5
REMARK    3  A    between atoms: N_13  and  C_14
REMARK    4  A    between atoms: C_14  and  C_15
REMARK    5  A    between atoms: C_15  and  C_16
REMARK    6  A    between atoms: C_16  and  S_17
REMARK    7  A    between atoms: S_17  and  C_18
REMARK    8  A    between atoms: C_21  and  C_22
REMARK    9  A    between atoms: N_28  and  C_29
REMARK                            x       y       z     vdW  Elec       q    Type
REMARK                         _______ _______ _______ _____ _____    ______ ____
ROOT
ATOM      1  C   UNL     1       2.462   7.444  18.669  0.00  0.00    +0.000 A 
ATOM      2  C   UNL     1       2.356   8.372  17.634  0.00  0.00    +0.000 A 
ATOM      3  C   UNL     1       1.694   9.582  17.843  0.00  0.00    +0.000 A 
ATOM      4  C   UNL     1       1.106   9.890  19.084  0.00  0.00    +0.000 A 
ATOM      5  C   UNL     1       1.228   8.972  20.143  0.00  0.00    +0.000 A 
ATOM      6  C   UNL     1       1.911   7.761  19.917  0.00  0.00    +0.000 A 
ATOM      7  C   UNL     1       0.731   9.232  21.546  0.00  0.00    +0.000 C 
ATOM      8  C   UNL     1      -0.743   9.653  21.673  0.00  0.00    +0.000 C 
ATOM      9  N   UNL     1      -1.094  11.027  21.267  0.00  0.00    +0.000 NA
ATOM     10  C   UNL     1      -0.987  11.184  19.811  0.00  0.00    +0.000 C 
ATOM     11  C   UNL     1       0.427  11.233  19.219  0.00  0.00    +0.000 C 
ENDROOT
BRANCH   1  15
ATOM     12  C   UNL     1       3.830   2.555  18.445  0.00  0.00    +0.000 C 
ATOM     13  C   UNL     1       3.649   4.015  18.403  0.00  0.00    +0.000 A 
ATOM     14  C   UNL     1       2.637   4.866  18.772  0.00  0.00    +0.000 A 
ATOM     15  C   UNL     1       3.129   6.163  18.463  0.00  0.00    +0.000 A 
ATOM     16  N   UNL     1       4.365   6.082  17.941  0.00  0.00    +0.000 NA
ATOM     17  O   UNL     1       4.682   4.738  17.900  0.00  0.00    +0.000 OA
ENDBRANCH   1  15
BRANCH   9  18
ATOM     18  C   UNL     1      -0.356  12.025  22.058  0.00  0.00    +0.000 C 
BRANCH  18  19
ATOM     19  C   UNL     1      -0.963  13.436  22.077  0.00  0.00    +0.000 C 
BRANCH  19  20
ATOM     20  C   UNL     1      -1.125  13.987  23.499  0.00  0.00    +0.000 C 
BRANCH  20  21
ATOM     21  S   UNL     1      -2.682  14.922  23.682  0.00  0.00    +0.000 S 
BRANCH  21  22
ATOM     22  C   UNL     1      -3.795  13.900  22.851  0.00  0.00    +0.000 A 
ATOM     23  N   UNL     1      -4.221  12.726  23.243  0.00  0.00    +0.000 NA
ATOM     24  N   UNL     1      -5.025  12.230  22.248  0.00  0.00    +0.000 NA
ATOM     25  C   UNL     1      -5.057  13.098  21.250  0.00  0.00    +0.000 A 
ATOM     26  N   UNL     1      -4.345  14.216  21.637  0.00  0.00    +0.000 N 
ATOM     27  C   UNL     1      -4.245  15.489  20.970  0.00  0.00    +0.000 C 
BRANCH  25  28
ATOM     28  C   UNL     1      -5.765  12.882  19.987  0.00  0.00    +0.000 A 
ATOM     29  C   UNL     1      -5.104  12.239  18.937  0.00  0.00    +0.000 A 
ATOM     30  C   UNL     1      -5.780  12.038  17.745  0.00  0.00    +0.000 A 
ATOM     31  N   UNL     1      -7.053  12.430  17.532  0.00  0.00    +0.000 NA
ATOM     32  C   UNL     1      -7.665  13.079  18.543  0.00  0.00    +0.000 A 
ATOM     33  C   UNL     1      -7.066  13.340  19.765  0.00  0.00    +0.000 A 
ENDBRANCH  25  28
ENDBRANCH  21  22
ENDBRANCH  20  21
ENDBRANCH  19  20
ENDBRANCH  18  19
ENDBRANCH   9  18
TORSDOF 7
ENDMDL
MODEL 2
REMARK VINA RESULT:      -7.4      4.567      7.120
REMARK  Name = 
REMARK  9 active torsions:
REMARK  status: ('A' for Active; 'I' for Inactive)
REMARK    1  A    between atoms: C_1  and  C_2
REMARK    2  A    between atoms: C_4  and  C_5
REMARK    3  A    between atoms: N_13  and  C_14
REMARK    4  A    between atoms: C_14  and  C_15
REMARK    5  A    between atoms: C_15  and  C_16
REMARK    6  A    between atoms: C_16  and  S_17
REMARK    7  A    between atoms: S_17  and  C_18
REMARK    8  A    between atoms: C_21  and  C_22
REMARK    9  A    between atoms: N_28  and  C_29
REMARK                            x       y       z     vdW  Elec       q    Type
REMARK                         _______ _______ _______ _____ _____    ______ ____
ROOT
ATOM      1  C   UNL     1       3.000   6.508  18.384  0.00  0.00    +0.000 A 
ATOM      2  C   UNL     1       2.706   6.153  19.700  0.00  0.00    +0.000 A 
ATOM      3  C   UNL     1       1.934   6.998  20.498  0.00  0.00    +0.000 A 
ATOM      4  C   UNL     1       1.452   8.226  20.010  0.00  0.00    +0.000 A 
ATOM      5  C   UNL     1       1.721   8.584  18.677  0.00  0.00    +0.000 A 
ATOM      6  C   UNL     1       2.491   7.713  17.882  0.00  0.00    +0.000 A 
ATOM      7  C   UNL     1       1.173   9.824  18.008  0.00  0.00    +0.000 C 
ATOM      8  C   UNL     1       1.426  11.152  18.741  0.00  0.00    +0.000 C 
ATOM      9  N   UNL     1       0.630  11.423  19.952  0.00  0.00    +0.000 NA
ATOM     10  C   UNL     1       1.033  10.534  21.050  0.00  0.00    +0.000 C 
ATOM     11  C   UNL     1       0.610   9.063  20.944  0.00  0.00    +0.000 C 
ENDROOT
BRANCH   1  15
ATOM     12  C   UNL     1       6.271   4.525  15.038  0.00  0.00    +0.000 C 
ATOM     13  C   UNL     1       5.271   4.867  16.062  0.00  0.00    +0.000 A 
ATOM     14  C   UNL     1       4.803   6.046  16.589  0.00  0.00    +0.000 A 
ATOM     15  C   UNL     1       3.825   5.650  17.541  0.00  0.00    +0.000 A 
ATOM     16  N   UNL     1       3.721   4.310  17.574  0.00  0.00    +0.000 NA
ATOM     17  O   UNL     1       4.630   3.827  16.654  0.00  0.00    +0.000 OA
ENDBRANCH   1  15
BRANCH   9  18
ATOM     18  C   UNL     1      -0.812  11.434  19.655  0.00  0.00    +0.000 C 
BRANCH  18  19
ATOM     19  C   UNL     1      -1.299  12.596  18.776  0.00  0.00    +0.000 C 
BRANCH  19  20
ATOM     20  C   UNL     1      -0.171  13.571  18.414  0.00  0.00    +0.000 C 
BRANCH  20  21
ATOM     21  S   UNL     1      -0.051  14.933  19.624  0.00  0.00    +0.000 S 
BRANCH  21  22
ATOM     22  C   UNL     1       1.365  15.753  19.078  0.00  0.00    +0.000 A 
ATOM     23  N   UNL     1       1.406  16.853  18.369  0.00  0.00    +0.000 NA
ATOM     24  N   UNL     1       2.725  17.107  18.088  0.00  0.00    +0.000 NA
ATOM     25  C   UNL     1       3.469  16.143  18.606  0.00  0.00    +0.000 A 
ATOM     26  N   UNL     1       2.635  15.302  19.317  0.00  0.00    +0.000 N 
ATOM     27  C   UNL     1       2.996  14.220  20.197  0.00  0.00    +0.000 C 
BRANCH  25  28
ATOM     28  C   UNL     1       4.921  16.045  18.455  0.00  0.00    +0.000 A 
ATOM     29  C   UNL     1       5.470  14.896  17.879  0.00  0.00    +0.000 A 
ATOM     30  C   UNL     1       6.844  14.809  17.740  0.00  0.00    +0.000 A 
ATOM     31  N   UNL     1       7.698  15.778  18.131  0.00  0.00    +0.000 NA
ATOM     32  C   UNL     1       7.156  16.865  18.714  0.00  0.00    +0.000 A 
ATOM     33  C   UNL     1       5.795  17.034  18.912  0.00  0.00    +0.000 A 
ENDBRANCH  25  28
ENDBRANCH  21  22
ENDBRANCH  20  21
ENDBRANCH  19  20
ENDBRANCH  18  19
ENDBRANCH   9  18
TORSDOF 7
ENDMDL
MODEL 3
REMARK VINA RESULT:      -7.4      4.181      6.705
REMARK  Name = 
REMARK  9 active torsions:
REMARK  status: ('A' for Active; 'I' for Inactive)
REMARK    1  A    between atoms: C_1  and  C_2
REMARK    2  A    between atoms: C_4  and  C_5
REMARK    3  A    between atoms: N_13  and  C_14
REMARK    4  A    between atoms: C_14  and  C_15
REMARK    5  A    between atoms: C_15  and  C_16
REMARK    6  A    between atoms: C_16  and  S_17
REMARK    7  A    between atoms: S_17  and  C_18
REMARK    8  A    between atoms: C_21  and  C_22
REMARK    9  A    between atoms: N_28  and  C_29
REMARK                            x       y       z     vdW  Elec       q    Type
REMARK                         _______ _______ _______ _____ _____    ______ ____
ROOT
ATOM      1  C   UNL     1       3.542   6.204  18.063  0.00  0.00    +0.000 A 
ATOM      2  C   UNL     1       3.295   5.722  19.348  0.00  0.00    +0.000 A 
ATOM      3  C   UNL     1       2.455   6.426  20.211  0.00  0.00    +0.000 A 
ATOM      4  C   UNL     1       1.855   7.638  19.822  0.00  0.00    +0.000 A 
ATOM      5  C   UNL     1       2.077   8.121  18.521  0.00  0.00    +0.000 A 
ATOM      6  C   UNL     1       2.918   7.391  17.658  0.00  0.00    +0.000 A 
ATOM      7  C   UNL     1       1.409   9.353  17.953  0.00  0.00    +0.000 C 
ATOM      8  C   UNL     1       1.543  10.638  18.786  0.00  0.00    +0.000 C 
ATOM      9  N   UNL     1       0.737  10.738  20.016  0.00  0.00    +0.000 NA
ATOM     10  C   UNL     1       1.232   9.808  21.041  0.00  0.00    +0.000 C 
ATOM     11  C   UNL     1       0.947   8.317  20.821  0.00  0.00    +0.000 C 
ENDROOT
BRANCH   1  15
ATOM     12  C   UNL     1       6.772   4.778  14.409  0.00  0.00    +0.000 C 
ATOM     13  C   UNL     1       5.842   4.956  15.536  0.00  0.00    +0.000 A 
ATOM     14  C   UNL     1       5.189   6.036  16.077  0.00  0.00    +0.000 A 
ATOM     15  C   UNL     1       4.435   5.495  17.154  0.00  0.00    +0.000 A 
ATOM     16  N   UNL     1       4.632   4.168  17.243  0.00  0.00    +0.000 NA
ATOM     17  O   UNL     1       5.516   3.839  16.234  0.00  0.00    +0.000 OA
ENDBRANCH   1  15
BRANCH   9  18
ATOM     18  C   UNL     1      -0.702  10.636  19.725  0.00  0.00    +0.000 C 
BRANCH  18  19
ATOM     19  C   UNL     1      -1.527  11.900  20.012  0.00  0.00    +0.000 C 
BRANCH  19  20
ATOM     20  C   UNL     1      -1.024  13.120  19.228  0.00  0.00    +0.000 C 
BRANCH  20  21
ATOM     21  S   UNL     1      -0.778  14.562  20.320  0.00  0.00    +0.000 S 
BRANCH  21  22
ATOM     22  C   UNL     1       0.566  15.337  19.567  0.00  0.00    +0.000 A 
ATOM     23  N   UNL     1       0.517  16.259  18.640  0.00  0.00    +0.000 NA
ATOM     24  N   UNL     1       1.809  16.534  18.268  0.00  0.00    +0.000 NA
ATOM     25  C   UNL     1       2.628  15.754  18.955  0.00  0.00    +0.000 A 
ATOM     26  N   UNL     1       1.870  15.032  19.855  0.00  0.00    +0.000 N 
ATOM     27  C   UNL     1       2.321  14.189  20.932  0.00  0.00    +0.000 C 
BRANCH  25  28
ATOM     28  C   UNL     1       4.081  15.721  18.781  0.00  0.00    +0.000 A 
ATOM     29  C   UNL     1       4.870  16.646  19.470  0.00  0.00    +0.000 A 
ATOM     30  C   UNL     1       6.244  16.609  19.300  0.00  0.00    +0.000 A 
ATOM     31  N   UNL     1       6.876  15.725  18.501  0.00  0.00    +0.000 NA
ATOM     32  C   UNL     1       6.098  14.862  17.818  0.00  0.00    +0.000 A 
ATOM     33  C   UNL     1       4.716  14.833  17.909  0.00  0.00    +0.000 A 
ENDBRANCH  25  28
ENDBRANCH  21  22
ENDBRANCH  20  21
ENDBRANCH  19  20
ENDBRANCH  18  19
ENDBRANCH   9  18
TORSDOF 7
ENDMDL
MODEL 4
REMARK VINA RESULT:      -7.4      4.601     10.991
REMARK  Name = 
REMARK  9 active torsions:
REMARK  status: ('A' for Active; 'I' for Inactive)
REMARK    1  A    between atoms: C_1  and  C_2
REMARK    2  A    between atoms: C_4  and  C_5
REMARK    3  A    between atoms: N_13  and  C_14
REMARK    4  A    between atoms: C_14  and  C_15
REMARK    5  A    between atoms: C_15  and  C_16
REMARK    6  A    between atoms: C_16  and  S_17
REMARK    7  A    between atoms: S_17  and  C_18
REMARK    8  A    between atoms: C_21  and  C_22
REMARK    9  A    between atoms: N_28  and  C_29
REMARK                            x       y       z     vdW  Elec       q    Type
REMARK                         _______ _______ _______ _____ _____    ______ ____
ROOT
ATOM      1  C   UNL     1      -0.404  11.540  21.142  0.00  0.00    +0.000 A 
ATOM      2  C   UNL     1      -0.232  11.908  19.808  0.00  0.00    +0.000 A 
ATOM      3  C   UNL     1       0.298  10.999  18.893  0.00  0.00    +0.000 A 
ATOM      4  C   UNL     1       0.687   9.705  19.288  0.00  0.00    +0.000 A 
ATOM      5  C   UNL     1       0.495   9.315  20.625  0.00  0.00    +0.000 A 
ATOM      6  C   UNL     1      -0.053  10.242  21.532  0.00  0.00    +0.000 A 
ATOM      7  C   UNL     1       0.775   7.923  21.146  0.00  0.00    +0.000 C 
ATOM      8  C   UNL     1       2.180   7.367  20.861  0.00  0.00    +0.000 C 
ATOM      9  N   UNL     1       2.474   6.937  19.482  0.00  0.00    +0.000 NA
ATOM     10  C   UNL     1       2.554   8.094  18.581  0.00  0.00    +0.000 C 
ATOM     11  C   UNL     1       1.233   8.787  18.220  0.00  0.00    +0.000 C 
ENDROOT
BRANCH   1  15
ATOM     12  C   UNL     1      -3.276  14.459  24.151  0.00  0.00    +0.000 C 
ATOM     13  C   UNL     1      -2.255  13.720  23.392  0.00  0.00    +0.000 A 
ATOM     14  C   UNL     1      -2.298  12.743  22.427  0.00  0.00    +0.000 A 
ATOM     15  C   UNL     1      -0.935  12.485  22.119  0.00  0.00    +0.000 A 
ATOM     16  N   UNL     1      -0.131  13.268  22.859  0.00  0.00    +0.000 NA
ATOM     17  O   UNL     1      -0.961  14.031  23.656  0.00  0.00    +0.000 OA
ENDBRANCH   1  15
BRANCH   9  18
ATOM     18  C   UNL     1       1.559   5.869  19.046  0.00  0.00    +0.000 C 
BRANCH  18  19
ATOM     19  C   UNL     1       1.366   4.715  20.043  0.00  0.00    +0.000 C 
BRANCH  19  20
ATOM     20  C   UNL     1       0.682   3.499  19.406  0.00  0.00    +0.000 C 
BRANCH  20  21
ATOM     21  S   UNL     1       1.705   1.995  19.571  0.00  0.00    +0.000 S 
BRANCH  21  22
ATOM     22  C   UNL     1       3.291   2.632  19.343  0.00  0.00    +0.000 A 
ATOM     23  N   UNL     1       4.260   2.648  20.223  0.00  0.00    +0.000 NA
ATOM     24  N   UNL     1       5.315   3.319  19.656  0.00  0.00    +0.000 NA
ATOM     25  C   UNL     1       4.963   3.727  18.447  0.00  0.00    +0.000 A 
ATOM     26  N   UNL     1       3.701   3.233  18.183  0.00  0.00    +0.000 N 
ATOM     27  C   UNL     1       2.972   3.257  16.941  0.00  0.00    +0.000 C 
BRANCH  25  28
ATOM     28  C   UNL     1       5.811   4.531  17.565  0.00  0.00    +0.000 A 
ATOM     29  C   UNL     1       6.237   5.791  17.992  0.00  0.00    +0.000 A 
ATOM     30  C   UNL     1       7.039   6.546  17.153  0.00  0.00    +0.000 A 
ATOM     31  N   UNL     1       7.439   6.135  15.932  0.00  0.00    +0.000 NA
ATOM     32  C   UNL     1       6.993   4.932  15.521  0.00  0.00    +0.000 A 
ATOM     33  C   UNL     1       6.175   4.112  16.282  0.00  0.00    +0.000 A 
ENDBRANCH  25  28
ENDBRANCH  21  22
ENDBRANCH  20  21
ENDBRANCH  19  20
ENDBRANCH  18  19
ENDBRANCH   9  18
TORSDOF 7
ENDMDL
MODEL 5
REMARK VINA RESULT:      -7.4      3.789      6.329
REMARK  Name = 
REMARK  9 active torsions:
REMARK  status: ('A' for Active; 'I' for Inactive)
REMARK    1  A    between atoms: C_1  and  C_2
REMARK    2  A    between atoms: C_4  and  C_5
REMARK    3  A    between atoms: N_13  and  C_14
REMARK    4  A    between atoms: C_14  and  C_15
REMARK    5  A    between atoms: C_15  and  C_16
REMARK    6  A    between atoms: C_16  and  S_17
REMARK    7  A    between atoms: S_17  and  C_18
REMARK    8  A    between atoms: C_21  and  C_22
REMARK    9  A    between atoms: N_28  and  C_29
REMARK                            x       y       z     vdW  Elec       q    Type
REMARK                         _______ _______ _______ _____ _____    ______ ____
ROOT
ATOM      1  C   UNL     1       4.137   5.996  17.799  0.00  0.00    +0.000 A 
ATOM      2  C   UNL     1       3.822   5.369  19.005  0.00  0.00    +0.000 A 
ATOM      3  C   UNL     1       2.880   5.935  19.864  0.00  0.00    +0.000 A 
ATOM      4  C   UNL     1       2.240   7.149  19.551  0.00  0.00    +0.000 A 
ATOM      5  C   UNL     1       2.531   7.777  18.327  0.00  0.00    +0.000 A 
ATOM      6  C   UNL     1       3.476   7.185  17.466  0.00  0.00    +0.000 A 
ATOM      7  C   UNL     1       1.836   9.025  17.833  0.00  0.00    +0.000 C 
ATOM      8  C   UNL     1       1.831  10.221  18.800  0.00  0.00    +0.000 C 
ATOM      9  N   UNL     1       0.929  10.150  19.964  0.00  0.00    +0.000 NA
ATOM     10  C   UNL     1       1.399   9.145  20.927  0.00  0.00    +0.000 C 
ATOM     11  C   UNL     1       1.221   7.672  20.536  0.00  0.00    +0.000 C 
ENDROOT
BRANCH   1  15
ATOM     12  C   UNL     1       7.092   4.697  13.875  0.00  0.00    +0.000 C 
ATOM     13  C   UNL     1       6.377   4.920  15.141  0.00  0.00    +0.000 A 
ATOM     14  C   UNL     1       5.327   5.722  15.521  0.00  0.00    +0.000 A 
ATOM     15  C   UNL     1       5.137   5.432  16.899  0.00  0.00    +0.000 A 
ATOM     16  N   UNL     1       6.024   4.510  17.311  0.00  0.00    +0.000 NA
ATOM     17  O   UNL     1       6.799   4.200  16.211  0.00  0.00    +0.000 OA
ENDBRANCH   1  15
BRANCH   9  18
ATOM     18  C   UNL     1      -0.475  10.006  19.548  0.00  0.00    +0.000 C 
BRANCH  18  19
ATOM     19  C   UNL     1      -0.977  11.049  18.536  0.00  0.00    +0.000 C 
BRANCH  19  20
ATOM     20  C   UNL     1      -1.964  12.044  19.160  0.00  0.00    +0.000 C 
BRANCH  20  21
ATOM     21  S   UNL     1      -1.236  12.893  20.603  0.00  0.00    +0.000 S 
BRANCH  21  22
ATOM     22  C   UNL     1      -0.174  14.017  19.839  0.00  0.00    +0.000 A 
ATOM     23  N   UNL     1      -0.510  14.959  18.994  0.00  0.00    +0.000 NA
ATOM     24  N   UNL     1       0.649  15.561  18.573  0.00  0.00    +0.000 NA
ATOM     25  C   UNL     1       1.679  14.959  19.146  0.00  0.00    +0.000 A 
ATOM     26  N   UNL     1       1.182  14.018  20.027  0.00  0.00    +0.000 N 
ATOM     27  C   UNL     1       1.900  13.242  21.005  0.00  0.00    +0.000 C 
BRANCH  25  28
ATOM     28  C   UNL     1       3.081  15.290  18.888  0.00  0.00    +0.000 A 
ATOM     29  C   UNL     1       3.606  16.480  19.400  0.00  0.00    +0.000 A 
ATOM     30  C   UNL     1       4.932  16.786  19.150  0.00  0.00    +0.000 A 
ATOM     31  N   UNL     1       5.761  15.997  18.436  0.00  0.00    +0.000 NA
ATOM     32  C   UNL     1       5.231  14.870  17.921  0.00  0.00    +0.000 A 
ATOM     33  C   UNL     1       3.912  14.487  18.102  0.00  0.00    +0.000 A 
ENDBRANCH  25  28
ENDBRANCH  21  22
ENDBRANCH  20  21
ENDBRANCH  19  20
ENDBRANCH  18  19
ENDBRANCH   9  18
TORSDOF 7
ENDMDL
MODEL 6
REMARK VINA RESULT:      -7.4      4.178      6.975
REMARK  Name = 
REMARK  9 active torsions:
REMARK  status: ('A' for Active; 'I' for Inactive)
REMARK    1  A    between atoms: C_1  and  C_2
REMARK    2  A    between atoms: C_4  and  C_5
REMARK    3  A    between atoms: N_13  and  C_14
REMARK    4  A    between atoms: C_14  and  C_15
REMARK    5  A    between atoms: C_15  and  C_16
REMARK    6  A    between atoms: C_16  and  S_17
REMARK    7  A    between atoms: S_17  and  C_18
REMARK    8  A    between atoms: C_21  and  C_22
REMARK    9  A    between atoms: N_28  and  C_29
REMARK                            x       y       z     vdW  Elec       q    Type
REMARK                         _______ _______ _______ _____ _____    ______ ____
ROOT
ATOM      1  C   UNL     1       4.236   6.431  17.541  0.00  0.00    +0.000 A 
ATOM      2  C   UNL     1       4.013   5.692  18.702  0.00  0.00    +0.000 A 
ATOM      3  C   UNL     1       3.072   6.121  19.637  0.00  0.00    +0.000 A 
ATOM      4  C   UNL     1       2.341   7.309  19.447  0.00  0.00    +0.000 A 
ATOM      5  C   UNL     1       2.540   8.051  18.269  0.00  0.00    +0.000 A 
ATOM      6  C   UNL     1       3.486   7.595  17.330  0.00  0.00    +0.000 A 
ATOM      7  C   UNL     1       1.745   9.284  17.903  0.00  0.00    +0.000 C 
ATOM      8  C   UNL     1       1.701  10.396  18.964  0.00  0.00    +0.000 C 
ATOM      9  N   UNL     1       0.855  10.172  20.150  0.00  0.00    +0.000 NA
ATOM     10  C   UNL     1       1.429   9.128  21.010  0.00  0.00    +0.000 C 
ATOM     11  C   UNL     1       1.332   7.682  20.507  0.00  0.00    +0.000 C 
ENDROOT
BRANCH   1  15
ATOM     12  C   UNL     1       6.856   4.280  13.755  0.00  0.00    +0.000 C 
ATOM     13  C   UNL     1       6.303   5.028  14.895  0.00  0.00    +0.000 A 
ATOM     14  C   UNL     1       5.071   5.078  15.502  0.00  0.00    +0.000 A 
ATOM     15  C   UNL     1       5.233   6.011  16.563  0.00  0.00    +0.000 A 
ATOM     16  N   UNL     1       6.491   6.484  16.582  0.00  0.00    +0.000 NA
ATOM     17  O   UNL     1       7.152   5.872  15.535  0.00  0.00    +0.000 OA
ENDBRANCH   1  15
BRANCH   9  18
ATOM     18  C   UNL     1      -0.553   9.965  19.774  0.00  0.00    +0.000 C 
BRANCH  18  19
ATOM     19  C   UNL     1      -1.386  11.244  19.599  0.00  0.00    +0.000 C 
BRANCH  19  20
ATOM     20  C   UNL     1      -0.952  12.363  20.555  0.00  0.00    +0.000 C 
BRANCH  20  21
ATOM     21  S   UNL     1      -0.158  13.740  19.655  0.00  0.00    +0.000 S 
BRANCH  21  22
ATOM     22  C   UNL     1       1.176  14.099  20.688  0.00  0.00    +0.000 A 
ATOM     23  N   UNL     1       1.125  14.345  21.972  0.00  0.00    +0.000 NA
ATOM     24  N   UNL     1       2.398  14.661  22.377  0.00  0.00    +0.000 NA
ATOM     25  C   UNL     1       3.203  14.629  21.327  0.00  0.00    +0.000 A 
ATOM     26  N   UNL     1       2.467  14.193  20.243  0.00  0.00    +0.000 N 
ATOM     27  C   UNL     1       2.938  13.829  18.931  0.00  0.00    +0.000 C 
BRANCH  25  28
ATOM     28  C   UNL     1       4.626  14.972  21.364  0.00  0.00    +0.000 A 
ATOM     29  C   UNL     1       5.512  14.128  22.038  0.00  0.00    +0.000 A 
ATOM     30  C   UNL     1       6.856  14.459  22.068  0.00  0.00    +0.000 A 
ATOM     31  N   UNL     1       7.370  15.559  21.479  0.00  0.00    +0.000 NA
ATOM     32  C   UNL     1       6.497  16.379  20.862  0.00  0.00    +0.000 A 
ATOM     33  C   UNL     1       5.133  16.142  20.793  0.00  0.00    +0.000 A 
ENDBRANCH  25  28
ENDBRANCH  21  22
ENDBRANCH  20  21
ENDBRANCH  19  20
ENDBRANCH  18  19
ENDBRANCH   9  18
TORSDOF 7
ENDMDL
MODEL 7
REMARK VINA RESULT:      -7.3      3.090      5.471
REMARK  Name = 
REMARK  9 active torsions:
REMARK  status: ('A' for Active; 'I' for Inactive)
REMARK    1  A    between atoms: C_1  and  C_2
REMARK    2  A    between atoms: C_4  and  C_5
REMARK    3  A    between atoms: N_13  and  C_14
REMARK    4  A    between atoms: C_14  and  C_15
REMARK    5  A    between atoms: C_15  and  C_16
REMARK    6  A    between atoms: C_16  and  S_17
REMARK    7  A    between atoms: S_17  and  C_18
REMARK    8  A    between atoms: C_21  and  C_22
REMARK    9  A    between atoms: N_28  and  C_29
REMARK                            x       y       z     vdW  Elec       q    Type
REMARK                         _______ _______ _______ _____ _____    ______ ____
ROOT
ATOM      1  C   UNL     1       2.891   6.306  19.002  0.00  0.00    +0.000 A 
ATOM      2  C   UNL     1       2.963   7.132  17.880  0.00  0.00    +0.000 A 
ATOM      3  C   UNL     1       2.372   8.395  17.900  0.00  0.00    +0.000 A 
ATOM      4  C   UNL     1       1.678   8.860  19.033  0.00  0.00    +0.000 A 
ATOM      5  C   UNL     1       1.620   8.047  20.178  0.00  0.00    +0.000 A 
ATOM      6  C   UNL     1       2.234   6.780  20.145  0.00  0.00    +0.000 A 
ATOM      7  C   UNL     1       0.996   8.476  21.487  0.00  0.00    +0.000 C 
ATOM      8  C   UNL     1      -0.449   8.998  21.405  0.00  0.00    +0.000 C 
ATOM      9  N   UNL     1      -0.654  10.343  20.838  0.00  0.00    +0.000 NA
ATOM     10  C   UNL     1      -0.382  10.347  19.394  0.00  0.00    +0.000 C 
ATOM     11  C   UNL     1       1.088  10.249  18.964  0.00  0.00    +0.000 C 
ENDROOT
BRANCH   1  15
ATOM     12  C   UNL     1       3.901   1.343  18.599  0.00  0.00    +0.000 C 
ATOM     13  C   UNL     1       3.841   2.801  18.790  0.00  0.00    +0.000 A 
ATOM     14  C   UNL     1       2.872   3.754  18.591  0.00  0.00    +0.000 A 
ATOM     15  C   UNL     1       3.483   4.973  18.992  0.00  0.00    +0.000 A 
ATOM     16  N   UNL     1       4.742   4.752  19.406  0.00  0.00    +0.000 NA
ATOM     17  O   UNL     1       4.962   3.395  19.271  0.00  0.00    +0.000 OA
ENDBRANCH   1  15
BRANCH   9  18
ATOM     18  C   UNL     1       0.065  11.368  21.611  0.00  0.00    +0.000 C 
BRANCH  18  19
ATOM     19  C   UNL     1      -0.817  12.301  22.455  0.00  0.00    +0.000 C 
BRANCH  19  20
ATOM     20  C   UNL     1      -2.080  12.749  21.709  0.00  0.00    +0.000 C 
BRANCH  20  21
ATOM     21  S   UNL     1      -1.943  14.477  21.138  0.00  0.00    +0.000 S 
BRANCH  21  22
ATOM     22  C   UNL     1      -0.618  14.371  20.040  0.00  0.00    +0.000 A 
ATOM     23  N   UNL     1      -0.610  13.762  18.882  0.00  0.00    +0.000 NA
ATOM     24  N   UNL     1       0.664  13.853  18.381  0.00  0.00    +0.000 NA
ATOM     25  C   UNL     1       1.424  14.495  19.254  0.00  0.00    +0.000 A 
ATOM     26  N   UNL     1       0.614  14.913  20.292  0.00  0.00    +0.000 N 
ATOM     27  C   UNL     1       0.942  15.794  21.383  0.00  0.00    +0.000 C 
BRANCH  25  28
ATOM     28  C   UNL     1       2.859  14.728  19.090  0.00  0.00    +0.000 A 
ATOM     29  C   UNL     1       3.696  14.636  20.206  0.00  0.00    +0.000 A 
ATOM     30  C   UNL     1       5.053  14.858  20.043  0.00  0.00    +0.000 A 
ATOM     31  N   UNL     1       5.625  15.161  18.859  0.00  0.00    +0.000 NA
ATOM     32  C   UNL     1       4.800  15.278  17.800  0.00  0.00    +0.000 A 
ATOM     33  C   UNL     1       3.429  15.091  17.867  0.00  0.00    +0.000 A 
ENDBRANCH  25  28
ENDBRANCH  21  22
ENDBRANCH  20  21
ENDBRANCH  19  20
ENDBRANCH  18  19
ENDBRANCH   9  18
TORSDOF 7
ENDMDL
MODEL 8
REMARK VINA RESULT:      -7.3      0.752      1.111
REMARK  Name = 
REMARK  9 active torsions:
REMARK  status: ('A' for Active; 'I' for Inactive)
REMARK    1  A    between atoms: C_1  and  C_2
REMARK    2  A    between atoms: C_4  and  C_5
REMARK    3  A    between atoms: N_13  and  C_14
REMARK    4  A    between atoms: C_14  and  C_15
REMARK    5  A    between atoms: C_15  and  C_16
REMARK    6  A    between atoms: C_16  and  S_17
REMARK    7  A    between atoms: S_17  and  C_18
REMARK    8  A    between atoms: C_21  and  C_22
REMARK    9  A    between atoms: N_28  and  C_29
REMARK                            x       y       z     vdW  Elec       q    Type
REMARK                         _______ _______ _______ _____ _____    ______ ____
ROOT
ATOM      1  C   UNL     1       2.220   7.513  18.886  0.00  0.00    +0.000 A 
ATOM      2  C   UNL     1       2.256   8.351  17.772  0.00  0.00    +0.000 A 
ATOM      3  C   UNL     1       1.739   9.644  17.850  0.00  0.00    +0.000 A 
ATOM      4  C   UNL     1       1.157  10.128  19.036  0.00  0.00    +0.000 A 
ATOM      5  C   UNL     1       1.137   9.302  20.173  0.00  0.00    +0.000 A 
ATOM      6  C   UNL     1       1.675   8.003  20.079  0.00  0.00    +0.000 A 
ATOM      7  C   UNL     1       0.635   9.743  21.529  0.00  0.00    +0.000 C 
ATOM      8  C   UNL     1      -0.780  10.344  21.561  0.00  0.00    +0.000 C 
ATOM      9  N   UNL     1      -0.951  11.707  21.026  0.00  0.00    +0.000 NA
ATOM     10  C   UNL     1      -0.786  11.719  19.566  0.00  0.00    +0.000 C 
ATOM     11  C   UNL     1       0.641  11.548  19.028  0.00  0.00    +0.000 C 
ENDROOT
BRANCH   1  15
ATOM     12  C   UNL     1       4.512   3.043  19.651  0.00  0.00    +0.000 C 
ATOM     13  C   UNL     1       3.764   4.236  19.224  0.00  0.00    +0.000 A 
ATOM     14  C   UNL     1       3.547   5.478  19.769  0.00  0.00    +0.000 A 
ATOM     15  C   UNL     1       2.734   6.149  18.816  0.00  0.00    +0.000 A 
ATOM     16  N   UNL     1       2.485   5.349  17.766  0.00  0.00    +0.000 NA
ATOM     17  O   UNL     1       3.125   4.154  18.029  0.00  0.00    +0.000 OA
ENDBRANCH   1  15
BRANCH   9  18
ATOM     18  C   UNL     1      -0.122  12.679  21.756  0.00  0.00    +0.000 C 
BRANCH  18  19
ATOM     19  C   UNL     1      -0.767  13.293  23.008  0.00  0.00    +0.000 C 
BRANCH  19  20
ATOM     20  C   UNL     1      -1.458  14.631  22.716  0.00  0.00    +0.000 C 
BRANCH  20  21
ATOM     21  S   UNL     1      -3.016  14.798  23.653  0.00  0.00    +0.000 S 
BRANCH  21  22
ATOM     22  C   UNL     1      -4.086  13.823  22.716  0.00  0.00    +0.000 A 
ATOM     23  N   UNL     1      -4.558  12.646  23.041  0.00  0.00    +0.000 NA
ATOM     24  N   UNL     1      -5.299  12.195  21.978  0.00  0.00    +0.000 NA
ATOM     25  C   UNL     1      -5.247  13.093  21.007  0.00  0.00    +0.000 A 
ATOM     26  N   UNL     1      -4.545  14.185  21.477  0.00  0.00    +0.000 N 
ATOM     27  C   UNL     1      -4.377  15.475  20.859  0.00  0.00    +0.000 C 
BRANCH  25  28
ATOM     28  C   UNL     1      -5.869  12.928  19.692  0.00  0.00    +0.000 A 
ATOM     29  C   UNL     1      -7.147  13.450  19.473  0.00  0.00    +0.000 A 
ATOM     30  C   UNL     1      -7.729  13.290  18.228  0.00  0.00    +0.000 A 
ATOM     31  N   UNL     1      -7.131  12.654  17.199  0.00  0.00    +0.000 NA
ATOM     32  C   UNL     1      -5.914  12.128  17.436  0.00  0.00    +0.000 A 
ATOM     33  C   UNL     1      -5.258  12.223  18.653  0.00  0.00    +0.000 A 
ENDBRANCH  25  28
ENDBRANCH  21  22
ENDBRANCH  20  21
ENDBRANCH  19  20
ENDBRANCH  18  19
ENDBRANCH   9  18
TORSDOF 7
ENDMDL
MODEL 9
REMARK VINA RESULT:      -7.2      3.495      5.836
REMARK  Name = 
REMARK  9 active torsions:
REMARK  status: ('A' for Active; 'I' for Inactive)
REMARK    1  A    between atoms: C_1  and  C_2
REMARK    2  A    between atoms: C_4  and  C_5
REMARK    3  A    between atoms: N_13  and  C_14
REMARK    4  A    between atoms: C_14  and  C_15
REMARK    5  A    between atoms: C_15  and  C_16
REMARK    6  A    between atoms: C_16  and  S_17
REMARK    7  A    between atoms: S_17  and  C_18
REMARK    8  A    between atoms: C_21  and  C_22
REMARK    9  A    between atoms: N_28  and  C_29
REMARK                            x       y       z     vdW  Elec       q    Type
REMARK                         _______ _______ _______ _____ _____    ______ ____
ROOT
ATOM      1  C   UNL     1       3.461   6.886  18.025  0.00  0.00    +0.000 A 
ATOM      2  C   UNL     1       3.182   6.271  19.245  0.00  0.00    +0.000 A 
ATOM      3  C   UNL     1       2.294   6.864  20.142  0.00  0.00    +0.000 A 
ATOM      4  C   UNL     1       1.675   8.095  19.854  0.00  0.00    +0.000 A 
ATOM      5  C   UNL     1       1.930   8.712  18.616  0.00  0.00    +0.000 A 
ATOM      6  C   UNL     1       2.819   8.092  17.717  0.00  0.00    +0.000 A 
ATOM      7  C   UNL     1       1.249   9.979  18.149  0.00  0.00    +0.000 C 
ATOM      8  C   UNL     1       1.320  11.176  19.111  0.00  0.00    +0.000 C 
ATOM      9  N   UNL     1       0.468  11.133  20.314  0.00  0.00    +0.000 NA
ATOM     10  C   UNL     1       0.952  10.117  21.258  0.00  0.00    +0.000 C 
ATOM     11  C   UNL     1       0.716   8.649  20.881  0.00  0.00    +0.000 C 
ENDROOT
BRANCH   1  15
ATOM     12  C   UNL     1       6.157   3.848  14.971  0.00  0.00    +0.000 C 
ATOM     13  C   UNL     1       5.526   4.905  15.778  0.00  0.00    +0.000 A 
ATOM     14  C   UNL     1       4.451   4.946  16.632  0.00  0.00    +0.000 A 
ATOM     15  C   UNL     1       4.404   6.293  17.084  0.00  0.00    +0.000 A 
ATOM     16  N   UNL     1       5.398   7.007  16.528  0.00  0.00    +0.000 NA
ATOM     17  O   UNL     1       6.091   6.137  15.709  0.00  0.00    +0.000 OA
ENDBRANCH   1  15
BRANCH   9  18
ATOM     18  C   UNL     1      -0.956  11.027  19.960  0.00  0.00    +0.000 C 
BRANCH  18  19
ATOM     19  C   UNL     1      -1.840  12.199  20.416  0.00  0.00    +0.000 C 
BRANCH  19  20
ATOM     20  C   UNL     1      -1.416  12.760  21.779  0.00  0.00    +0.000 C 
BRANCH  20  21
ATOM     21  S   UNL     1      -1.550  14.580  21.825  0.00  0.00    +0.000 S 
BRANCH  21  22
ATOM     22  C   UNL     1      -0.471  15.035  20.559  0.00  0.00    +0.000 A 
ATOM     23  N   UNL     1      -0.796  15.346  19.330  0.00  0.00    +0.000 NA
ATOM     24  N   UNL     1       0.371  15.561  18.641  0.00  0.00    +0.000 NA
ATOM     25  C   UNL     1       1.394  15.353  19.455  0.00  0.00    +0.000 A 
ATOM     26  N   UNL     1       0.888  15.094  20.713  0.00  0.00    +0.000 N 
ATOM     27  C   UNL     1       1.602  14.981  21.959  0.00  0.00    +0.000 C 
BRANCH  25  28
ATOM     28  C   UNL     1       2.800  15.428  19.054  0.00  0.00    +0.000 A 
ATOM     29  C   UNL     1       3.518  16.600  19.308  0.00  0.00    +0.000 A 
ATOM     30  C   UNL     1       4.847  16.664  18.926  0.00  0.00    +0.000 A 
ATOM     31  N   UNL     1       5.501  15.653  18.317  0.00  0.00    +0.000 NA
ATOM     32  C   UNL     1       4.785  14.543  18.049  0.00  0.00    +0.000 A 
ATOM     33  C   UNL     1       3.447  14.392  18.378  0.00  0.00    +0.000 A 
ENDBRANCH  25  28
ENDBRANCH  21  22
ENDBRANCH  20  21
ENDBRANCH  19  20
ENDBRANCH  18  19
ENDBRANCH   9  18
TORSDOF 7
ENDMDL
