MODEL 1
REMARK VINA RESULT:      -6.8      0.000      0.000
REMARK  Name = 
REMARK  5 active torsions:
REMARK  status: ('A' for Active; 'I' for Inactive)
REMARK    1  A    between atoms: C_1  and  O_2
REMARK    2  A    between atoms: O_2  and  C_3
REMARK    3  A    between atoms: C_6  and  N_7
REMARK    4  A    between atoms: C_8  and  C_10
REMARK    5  A    between atoms: C_13  and  C_14
REMARK                            x       y       z     vdW  Elec       q    Type
REMARK                         _______ _______ _______ _____ _____    ______ ____
ROOT
ATOM      1  N   UNL     1       4.471   4.711  16.361  0.00  0.00    +0.000 N 
ATOM      2  C   UNL     1       5.847   4.533  16.441  0.00  0.00    +0.000 C 
ATOM      3  O   UNL     1       6.441   4.195  17.462  0.00  0.00    +0.000 OA
ATOM      4  H   UNL     1       4.108   5.003  15.458  0.00  0.00    +0.000 HD
ENDROOT
BRANCH   2   5
ATOM      5  C   UNL     1       6.560   4.766  15.211  0.00  0.00    +0.000 A 
ATOM      6  O   UNL     1       7.722   5.480  15.229  0.00  0.00    +0.000 OA
ATOM      7  N   UNL     1       8.220   5.598  13.942  0.00  0.00    +0.000 NA
ATOM      8  C   UNL     1       7.348   4.953  13.157  0.00  0.00    +0.000 A 
ATOM      9  C   UNL     1       7.546   4.895  11.690  0.00  0.00    +0.000 C 
ATOM     10  C   UNL     1       6.289   4.401  13.913  0.00  0.00    +0.000 A 
ATOM     11 CL   UNL     1       4.984   3.513  13.293  0.00  0.00    +0.000 Cl
ENDBRANCH   2   5
BRANCH   1  15
ATOM     12  C   UNL     1       1.643   3.885  19.400  0.00  0.00    +0.000 A 
ATOM     13  C   UNL     1       2.382   5.062  19.446  0.00  0.00    +0.000 A 
ATOM     14  C   UNL     1       3.305   5.365  18.443  0.00  0.00    +0.000 A 
ATOM     15  C   UNL     1       3.522   4.483  17.383  0.00  0.00    +0.000 A 
ATOM     16  C   UNL     1       2.779   3.297  17.341  0.00  0.00    +0.000 A 
ATOM     17  C   UNL     1       1.843   2.999  18.345  0.00  0.00    +0.000 A 
BRANCH  12  19
ATOM     18  C   UNL     1       1.282   2.841  21.490  0.00  0.00    +0.000 C 
ATOM     19  O   UNL     1       0.803   3.695  20.461  0.00  0.00    +0.000 OA
ENDBRANCH  12  19
ENDBRANCH   1  15
TORSDOF 3
ENDMDL
MODEL 2
REMARK VINA RESULT:      -6.8      0.610      1.206
REMARK  Name = 
REMARK  5 active torsions:
REMARK  status: ('A' for Active; 'I' for Inactive)
REMARK    1  A    between atoms: C_1  and  O_2
REMARK    2  A    between atoms: O_2  and  C_3
REMARK    3  A    between atoms: C_6  and  N_7
REMARK    4  A    between atoms: C_8  and  C_10
REMARK    5  A    between atoms: C_13  and  C_14
REMARK                            x       y       z     vdW  Elec       q    Type
REMARK                         _______ _______ _______ _____ _____    ______ ____
ROOT
ATOM      1  N   UNL     1       4.570   4.157  16.291  0.00  0.00    +0.000 N 
ATOM      2  C   UNL     1       5.939   4.362  16.410  0.00  0.00    +0.000 C 
ATOM      3  O   UNL     1       6.559   4.287  17.467  0.00  0.00    +0.000 OA
ATOM      4  H   UNL     1       4.179   4.260  15.360  0.00  0.00    +0.000 HD
ENDROOT
BRANCH   2   5
ATOM      5  C   UNL     1       6.614   4.669  15.175  0.00  0.00    +0.000 A 
ATOM      6  O   UNL     1       7.757   5.414  15.197  0.00  0.00    +0.000 OA
ATOM      7  N   UNL     1       8.218   5.603  13.905  0.00  0.00    +0.000 NA
ATOM      8  C   UNL     1       7.344   4.969  13.113  0.00  0.00    +0.000 A 
ATOM      9  C   UNL     1       7.507   4.981  11.640  0.00  0.00    +0.000 C 
ATOM     10  C   UNL     1       6.321   4.354  13.869  0.00  0.00    +0.000 A 
ATOM     11 CL   UNL     1       5.025   3.458  13.241  0.00  0.00    +0.000 Cl
ENDBRANCH   2   5
BRANCH   1  15
ATOM     12  C   UNL     1       1.810   3.127  19.331  0.00  0.00    +0.000 A 
ATOM     13  C   UNL     1       2.529   2.128  18.685  0.00  0.00    +0.000 A 
ATOM     14  C   UNL     1       3.459   2.446  17.694  0.00  0.00    +0.000 A 
ATOM     15  C   UNL     1       3.674   3.773  17.315  0.00  0.00    +0.000 A 
ATOM     16  C   UNL     1       2.946   4.777  17.966  0.00  0.00    +0.000 A 
ATOM     17  C   UNL     1       2.018   4.456  18.970  0.00  0.00    +0.000 A 
BRANCH  12  19
ATOM     18  C   UNL     1       1.329   2.719  21.610  0.00  0.00    +0.000 C 
ATOM     19  O   UNL     1       0.907   2.677  20.254  0.00  0.00    +0.000 OA
ENDBRANCH  12  19
ENDBRANCH   1  15
TORSDOF 3
ENDMDL
MODEL 3
REMARK VINA RESULT:      -6.6      1.143      1.182
REMARK  Name = 
REMARK  5 active torsions:
REMARK  status: ('A' for Active; 'I' for Inactive)
REMARK    1  A    between atoms: C_1  and  O_2
REMARK    2  A    between atoms: O_2  and  C_3
REMARK    3  A    between atoms: C_6  and  N_7
REMARK    4  A    between atoms: C_8  and  C_10
REMARK    5  A    between atoms: C_13  and  C_14
REMARK                            x       y       z     vdW  Elec       q    Type
REMARK                         _______ _______ _______ _____ _____    ______ ____
ROOT
ATOM      1  N   UNL     1       4.744   3.755  16.529  0.00  0.00    +0.000 N 
ATOM      2  C   UNL     1       5.356   4.981  16.296  0.00  0.00    +0.000 C 
ATOM      3  O   UNL     1       5.186   5.980  16.989  0.00  0.00    +0.000 OA
ATOM      4  H   UNL     1       4.963   3.012  15.872  0.00  0.00    +0.000 HD
ENDROOT
BRANCH   2   5
ATOM      5  C   UNL     1       6.242   5.009  15.160  0.00  0.00    +0.000 A 
ATOM      6  O   UNL     1       7.448   5.640  15.260  0.00  0.00    +0.000 OA
ATOM      7  N   UNL     1       8.119   5.562  14.051  0.00  0.00    +0.000 NA
ATOM      8  C   UNL     1       7.307   4.884  13.229  0.00  0.00    +0.000 A 
ATOM      9  C   UNL     1       7.692   4.629  11.822  0.00  0.00    +0.000 C 
ATOM     10  C   UNL     1       6.116   4.504  13.887  0.00  0.00    +0.000 A 
ATOM     11 CL   UNL     1       4.834   3.635  13.195  0.00  0.00    +0.000 Cl
ENDBRANCH   2   5
BRANCH   1  15
ATOM     12  C   UNL     1       2.099   2.690  19.657  0.00  0.00    +0.000 A 
ATOM     13  C   UNL     1       3.456   2.842  19.922  0.00  0.00    +0.000 A 
ATOM     14  C   UNL     1       4.343   3.213  18.910  0.00  0.00    +0.000 A 
ATOM     15  C   UNL     1       3.892   3.420  17.605  0.00  0.00    +0.000 A 
ATOM     16  C   UNL     1       2.525   3.263  17.340  0.00  0.00    +0.000 A 
ATOM     17  C   UNL     1       1.632   2.900  18.362  0.00  0.00    +0.000 A 
BRANCH  12  19
ATOM     18  C   UNL     1       1.753   2.790  21.993  0.00  0.00    +0.000 C 
ATOM     19  O   UNL     1       1.349   2.289  20.727  0.00  0.00    +0.000 OA
ENDBRANCH  12  19
ENDBRANCH   1  15
TORSDOF 3
ENDMDL
MODEL 4
REMARK VINA RESULT:      -6.4      0.994      1.223
REMARK  Name = 
REMARK  5 active torsions:
REMARK  status: ('A' for Active; 'I' for Inactive)
REMARK    1  A    between atoms: C_1  and  O_2
REMARK    2  A    between atoms: O_2  and  C_3
REMARK    3  A    between atoms: C_6  and  N_7
REMARK    4  A    between atoms: C_8  and  C_10
REMARK    5  A    between atoms: C_13  and  C_14
REMARK                            x       y       z     vdW  Elec       q    Type
REMARK                         _______ _______ _______ _____ _____    ______ ____
ROOT
ATOM      1  N   UNL     1       4.553   3.889  16.425  0.00  0.00    +0.000 N 
ATOM      2  C   UNL     1       5.449   4.951  16.391  0.00  0.00    +0.000 C 
ATOM      3  O   UNL     1       5.548   5.800  17.272  0.00  0.00    +0.000 OA
ATOM      4  H   UNL     1       4.566   3.264  15.626  0.00  0.00    +0.000 HD
ENDROOT
BRANCH   2   5
ATOM      5  C   UNL     1       6.294   4.991  15.224  0.00  0.00    +0.000 A 
ATOM      6  O   UNL     1       7.498   5.630  15.284  0.00  0.00    +0.000 OA
ATOM      7  N   UNL     1       8.126   5.564  14.052  0.00  0.00    +0.000 NA
ATOM      8  C   UNL     1       7.290   4.884  13.256  0.00  0.00    +0.000 A 
ATOM      9  C   UNL     1       7.626   4.640  11.834  0.00  0.00    +0.000 C 
ATOM     10  C   UNL     1       6.126   4.492  13.954  0.00  0.00    +0.000 A 
ATOM     11 CL   UNL     1       4.826   3.617  13.303  0.00  0.00    +0.000 Cl
ENDBRANCH   2   5
BRANCH   1  15
ATOM     12  C   UNL     1       1.987   2.947  19.658  0.00  0.00    +0.000 A 
ATOM     13  C   UNL     1       1.445   3.310  18.429  0.00  0.00    +0.000 A 
ATOM     14  C   UNL     1       2.273   3.604  17.344  0.00  0.00    +0.000 A 
ATOM     15  C   UNL     1       3.662   3.561  17.472  0.00  0.00    +0.000 A 
ATOM     16  C   UNL     1       4.205   3.199  18.711  0.00  0.00    +0.000 A 
ATOM     17  C   UNL     1       3.372   2.892  19.800  0.00  0.00    +0.000 A 
BRANCH  12  19
ATOM     18  C   UNL     1       1.574   2.689  21.971  0.00  0.00    +0.000 C 
ATOM     19  O   UNL     1       1.068   2.720  20.644  0.00  0.00    +0.000 OA
ENDBRANCH  12  19
ENDBRANCH   1  15
TORSDOF 3
ENDMDL
MODEL 5
REMARK VINA RESULT:      -6.4      5.351      8.353
REMARK  Name = 
REMARK  5 active torsions:
REMARK  status: ('A' for Active; 'I' for Inactive)
REMARK    1  A    between atoms: C_1  and  O_2
REMARK    2  A    between atoms: O_2  and  C_3
REMARK    3  A    between atoms: C_6  and  N_7
REMARK    4  A    between atoms: C_8  and  C_10
REMARK    5  A    between atoms: C_13  and  C_14
REMARK                            x       y       z     vdW  Elec       q    Type
REMARK                         _______ _______ _______ _____ _____    ______ ____
ROOT
ATOM      1  N   UNL     1       1.707   6.931  20.797  0.00  0.00    +0.000 N 
ATOM      2  C   UNL     1       1.430   8.218  20.350  0.00  0.00    +0.000 C 
ATOM      3  O   UNL     1       1.680   8.625  19.220  0.00  0.00    +0.000 OA
ATOM      4  H   UNL     1       1.458   6.727  21.760  0.00  0.00    +0.000 HD
ENDROOT
BRANCH   2   5
ATOM      5  C   UNL     1       0.798   9.073  21.323  0.00  0.00    +0.000 A 
ATOM      6  O   UNL     1       1.131   8.957  22.641  0.00  0.00    +0.000 OA
ATOM      7  N   UNL     1       0.391   9.854  23.392  0.00  0.00    +0.000 NA
ATOM      8  C   UNL     1      -0.387  10.504  22.517  0.00  0.00    +0.000 A 
ATOM      9  C   UNL     1      -1.347  11.536  22.973  0.00  0.00    +0.000 C 
ATOM     10  C   UNL     1      -0.158  10.054  21.197  0.00  0.00    +0.000 A 
ATOM     11 CL   UNL     1      -0.942  10.622  19.804  0.00  0.00    +0.000 Cl
ENDBRANCH   2   5
BRANCH   1  15
ATOM     12  C   UNL     1       3.469   3.795  18.567  0.00  0.00    +0.000 A 
ATOM     13  C   UNL     1       2.223   3.608  19.155  0.00  0.00    +0.000 A 
ATOM     14  C   UNL     1       1.614   4.636  19.877  0.00  0.00    +0.000 A 
ATOM     15  C   UNL     1       2.251   5.867  20.043  0.00  0.00    +0.000 A 
ATOM     16  C   UNL     1       3.507   6.051  19.453  0.00  0.00    +0.000 A 
ATOM     17  C   UNL     1       4.114   5.020  18.717  0.00  0.00    +0.000 A 
BRANCH  12  19
ATOM     18  C   UNL     1       3.527   1.437  18.405  0.00  0.00    +0.000 C 
ATOM     19  O   UNL     1       3.967   2.698  17.921  0.00  0.00    +0.000 OA
ENDBRANCH  12  19
ENDBRANCH   1  15
TORSDOF 3
ENDMDL
MODEL 6
REMARK VINA RESULT:      -6.2      5.329      8.038
REMARK  Name = 
REMARK  5 active torsions:
REMARK  status: ('A' for Active; 'I' for Inactive)
REMARK    1  A    between atoms: C_1  and  O_2
REMARK    2  A    between atoms: O_2  and  C_3
REMARK    3  A    between atoms: C_6  and  N_7
REMARK    4  A    between atoms: C_8  and  C_10
REMARK    5  A    between atoms: C_13  and  C_14
REMARK                            x       y       z     vdW  Elec       q    Type
REMARK                         _______ _______ _______ _____ _____    ______ ____
ROOT
ATOM      1  N   UNL     1       1.507   6.490  21.086  0.00  0.00    +0.000 N 
ATOM      2  C   UNL     1       1.549   7.727  20.455  0.00  0.00    +0.000 C 
ATOM      3  O   UNL     1       2.003   7.912  19.329  0.00  0.00    +0.000 OA
ATOM      4  H   UNL     1       1.115   6.477  22.023  0.00  0.00    +0.000 HD
ENDROOT
BRANCH   2   5
ATOM      5  C   UNL     1       1.000   8.817  21.221  0.00  0.00    +0.000 A 
ATOM      6  O   UNL     1       1.320   8.941  22.542  0.00  0.00    +0.000 OA
ATOM      7  N   UNL     1       0.666  10.037  23.081  0.00  0.00    +0.000 NA
ATOM      8  C   UNL     1      -0.047  10.563  22.076  0.00  0.00    +0.000 A 
ATOM      9  C   UNL     1      -0.905  11.750  22.295  0.00  0.00    +0.000 C 
ATOM     10  C   UNL     1       0.140   9.834  20.880  0.00  0.00    +0.000 A 
ATOM     11 CL   UNL     1      -0.585  10.177  19.386  0.00  0.00    +0.000 Cl
ENDBRANCH   2   5
BRANCH   1  15
ATOM     12  C   UNL     1       2.557   2.738  19.431  0.00  0.00    +0.000 A 
ATOM     13  C   UNL     1       3.513   3.745  19.522  0.00  0.00    +0.000 A 
ATOM     14  C   UNL     1       3.194   4.982  20.084  0.00  0.00    +0.000 A 
ATOM     15  C   UNL     1       1.903   5.245  20.548  0.00  0.00    +0.000 A 
ATOM     16  C   UNL     1       0.942   4.231  20.451  0.00  0.00    +0.000 A 
ATOM     17  C   UNL     1       1.268   2.983  19.895  0.00  0.00    +0.000 A 
BRANCH  12  19
ATOM     18  C   UNL     1       3.901   1.758  17.750  0.00  0.00    +0.000 C 
ATOM     19  O   UNL     1       2.991   1.591  18.829  0.00  0.00    +0.000 OA
ENDBRANCH  12  19
ENDBRANCH   1  15
TORSDOF 3
ENDMDL
MODEL 7
REMARK VINA RESULT:      -6.2      5.571      8.554
REMARK  Name = 
REMARK  5 active torsions:
REMARK  status: ('A' for Active; 'I' for Inactive)
REMARK    1  A    between atoms: C_1  and  O_2
REMARK    2  A    between atoms: O_2  and  C_3
REMARK    3  A    between atoms: C_6  and  N_7
REMARK    4  A    between atoms: C_8  and  C_10
REMARK    5  A    between atoms: C_13  and  C_14
REMARK                            x       y       z     vdW  Elec       q    Type
REMARK                         _______ _______ _______ _____ _____    ______ ____
ROOT
ATOM      1  N   UNL     1       1.646   7.276  20.955  0.00  0.00    +0.000 N 
ATOM      2  C   UNL     1       1.278   8.528  20.477  0.00  0.00    +0.000 C 
ATOM      3  O   UNL     1       1.489   8.919  19.332  0.00  0.00    +0.000 OA
ATOM      4  H   UNL     1       1.422   7.083  21.926  0.00  0.00    +0.000 HD
ENDROOT
BRANCH   2   5
ATOM      5  C   UNL     1       0.601   9.366  21.434  0.00  0.00    +0.000 A 
ATOM      6  O   UNL     1       0.879   9.233  22.763  0.00  0.00    +0.000 OA
ATOM      7  N   UNL     1       0.102  10.115  23.495  0.00  0.00    +0.000 NA
ATOM      8  C   UNL     1      -0.642  10.774  22.596  0.00  0.00    +0.000 A 
ATOM      9  C   UNL     1      -1.625  11.795  23.026  0.00  0.00    +0.000 C 
ATOM     10  C   UNL     1      -0.354  10.344  21.281  0.00  0.00    +0.000 A 
ATOM     11 CL   UNL     1      -1.081  10.928  19.865  0.00  0.00    +0.000 Cl
ENDBRANCH   2   5
BRANCH   1  15
ATOM     12  C   UNL     1       3.359   4.051  18.815  0.00  0.00    +0.000 A 
ATOM     13  C   UNL     1       3.516   5.351  18.347  0.00  0.00    +0.000 A 
ATOM     14  C   UNL     1       2.978   6.431  19.048  0.00  0.00    +0.000 A 
ATOM     15  C   UNL     1       2.252   6.230  20.223  0.00  0.00    +0.000 A 
ATOM     16  C   UNL     1       2.092   4.919  20.690  0.00  0.00    +0.000 A 
ATOM     17  C   UNL     1       2.644   3.834  19.989  0.00  0.00    +0.000 A 
BRANCH  12  19
ATOM     18  C   UNL     1       3.238   1.830  18.013  0.00  0.00    +0.000 C 
ATOM     19  O   UNL     1       3.904   3.085  18.015  0.00  0.00    +0.000 OA
ENDBRANCH  12  19
ENDBRANCH   1  15
TORSDOF 3
ENDMDL
MODEL 8
REMARK VINA RESULT:      -6.1      5.427      8.526
REMARK  Name = 
REMARK  5 active torsions:
REMARK  status: ('A' for Active; 'I' for Inactive)
REMARK    1  A    between atoms: C_1  and  O_2
REMARK    2  A    between atoms: O_2  and  C_3
REMARK    3  A    between atoms: C_6  and  N_7
REMARK    4  A    between atoms: C_8  and  C_10
REMARK    5  A    between atoms: C_13  and  C_14
REMARK                            x       y       z     vdW  Elec       q    Type
REMARK                         _______ _______ _______ _____ _____    ______ ____
ROOT
ATOM      1  N   UNL     1       1.855   7.357  20.428  0.00  0.00    +0.000 N 
ATOM      2  C   UNL     1       1.381   8.623  20.106  0.00  0.00    +0.000 C 
ATOM      3  O   UNL     1       1.478   9.133  18.993  0.00  0.00    +0.000 OA
ATOM      4  H   UNL     1       1.720   7.058  21.389  0.00  0.00    +0.000 HD
ENDROOT
BRANCH   2   5
ATOM      5  C   UNL     1       0.737   9.322  21.189  0.00  0.00    +0.000 A 
ATOM      6  O   UNL     1       1.100   9.053  22.476  0.00  0.00    +0.000 OA
ATOM      7  N   UNL     1       0.341   9.817  23.346  0.00  0.00    +0.000 NA
ATOM      8  C   UNL     1      -0.478  10.541  22.572  0.00  0.00    +0.000 A 
ATOM      9  C   UNL     1      -1.466  11.468  23.170  0.00  0.00    +0.000 C 
ATOM     10  C   UNL     1      -0.257  10.272  21.202  0.00  0.00    +0.000 A 
ATOM     11 CL   UNL     1      -1.089  10.981  19.905  0.00  0.00    +0.000 Cl
ENDBRANCH   2   5
BRANCH   1  15
ATOM     12  C   UNL     1       3.547   4.477  17.828  0.00  0.00    +0.000 A 
ATOM     13  C   UNL     1       3.861   5.822  17.667  0.00  0.00    +0.000 A 
ATOM     14  C   UNL     1       3.331   6.786  18.526  0.00  0.00    +0.000 A 
ATOM     15  C   UNL     1       2.458   6.425  19.553  0.00  0.00    +0.000 A 
ATOM     16  C   UNL     1       2.140   5.070  19.711  0.00  0.00    +0.000 A 
ATOM     17  C   UNL     1       2.682   4.100  18.853  0.00  0.00    +0.000 A 
BRANCH  12  19
ATOM     18  C   UNL     1       5.135   4.205  16.098  0.00  0.00    +0.000 C 
ATOM     19  O   UNL     1       4.104   3.644  16.899  0.00  0.00    +0.000 OA
ENDBRANCH  12  19
ENDBRANCH   1  15
TORSDOF 3
ENDMDL
MODEL 9
REMARK VINA RESULT:      -6.1      4.239      5.603
REMARK  Name = 
REMARK  5 active torsions:
REMARK  status: ('A' for Active; 'I' for Inactive)
REMARK    1  A    between atoms: C_1  and  O_2
REMARK    2  A    between atoms: O_2  and  C_3
REMARK    3  A    between atoms: C_6  and  N_7
REMARK    4  A    between atoms: C_8  and  C_10
REMARK    5  A    between atoms: C_13  and  C_14
REMARK                            x       y       z     vdW  Elec       q    Type
REMARK                         _______ _______ _______ _____ _____    ______ ____
ROOT
ATOM      1  N   UNL     1       2.944   7.503  18.935  0.00  0.00    +0.000 N 
ATOM      2  C   UNL     1       2.919   6.203  18.446  0.00  0.00    +0.000 C 
ATOM      3  O   UNL     1       1.897   5.613  18.106  0.00  0.00    +0.000 OA
ATOM      4  H   UNL     1       3.856   7.869  19.190  0.00  0.00    +0.000 HD
ENDROOT
BRANCH   2   5
ATOM      5  C   UNL     1       4.209   5.569  18.346  0.00  0.00    +0.000 A 
ATOM      6  O   UNL     1       4.651   4.775  19.364  0.00  0.00    +0.000 OA
ATOM      7  N   UNL     1       5.914   4.292  19.066  0.00  0.00    +0.000 NA
ATOM      8  C   UNL     1       6.224   4.804  17.868  0.00  0.00    +0.000 A 
ATOM      9  C   UNL     1       7.534   4.519  17.236  0.00  0.00    +0.000 C 
ATOM     10  C   UNL     1       5.175   5.607  17.368  0.00  0.00    +0.000 A 
ATOM     11 CL   UNL     1       5.176   6.432  15.886  0.00  0.00    +0.000 Cl
ENDBRANCH   2   5
BRANCH   1  15
ATOM     12  C   UNL     1      -0.305  10.162  19.476  0.00  0.00    +0.000 A 
ATOM     13  C   UNL     1       0.253  10.003  18.212  0.00  0.00    +0.000 A 
ATOM     14  C   UNL     1       1.312   9.115  18.007  0.00  0.00    +0.000 A 
ATOM     15  C   UNL     1       1.847   8.384  19.069  0.00  0.00    +0.000 A 
ATOM     16  C   UNL     1       1.285   8.549  20.341  0.00  0.00    +0.000 A 
ATOM     17  C   UNL     1       0.213   9.434  20.544  0.00  0.00    +0.000 A 
BRANCH  12  19
ATOM     18  C   UNL     1      -1.366  11.856  20.738  0.00  0.00    +0.000 C 
ATOM     19  O   UNL     1      -1.309  11.087  19.545  0.00  0.00    +0.000 OA
ENDBRANCH  12  19
ENDBRANCH   1  15
TORSDOF 3
ENDMDL
