MODEL 1
REMARK VINA RESULT:      -7.7      0.000      0.000
REMARK  Name = 
REMARK  8 active torsions:
REMARK  status: ('A' for Active; 'I' for Inactive)
REMARK    1  A    between atoms: C_1  and  O_2
REMARK    2  A    between atoms: O_2  and  C_3
REMARK    3  A    between atoms: C_7  and  N_8
REMARK    4  A    between atoms: N_8  and  C_9
REMARK    5  A    between atoms: C_10  and  C_11
REMARK    6  A    between atoms: C_14  and  C_15
REMARK    7  A    between atoms: C_22  and  S_23
REMARK    8  A    between atoms: S_23  and  C_24
REMARK                            x       y       z     vdW  Elec       q    Type
REMARK                         _______ _______ _______ _____ _____    ______ ____
ROOT
ATOM      1  C   UNL     1       3.312   6.132  17.136  0.00  0.00    +0.000 A 
ATOM      2  C   UNL     1       4.715   6.206  17.275  0.00  0.00    +0.000 A 
ATOM      3  C   UNL     1       5.083   6.203  18.617  0.00  0.00    +0.000 A 
ATOM      4  N   UNL     1       4.173   6.311  19.644  0.00  0.00    +0.000 NA
ATOM      5  C   UNL     1       2.962   6.819  19.348  0.00  0.00    +0.000 A 
ATOM      6  C   UNL     1       2.182   7.367  20.352  0.00  0.00    +0.000 A 
ATOM      7  C   UNL     1       1.390   8.478  20.108  0.00  0.00    +0.000 A 
ATOM      8  C   UNL     1       1.467   9.069  18.854  0.00  0.00    +0.000 A 
ATOM      9  C   UNL     1       2.012   8.323  17.776  0.00  0.00    +0.000 A 
ATOM     10  C   UNL     1       2.614   7.027  18.025  0.00  0.00    +0.000 A 
ENDROOT
BRANCH   2  11
ATOM     11  C   UNL     1       5.698   5.830  16.272  0.00  0.00    +0.000 A 
ATOM     12  N   UNL     1       7.002   6.033  16.278  0.00  0.00    +0.000 NA
ATOM     13  N   UNL     1       7.511   5.384  15.172  0.00  0.00    +0.000 NA
ATOM     14  C   UNL     1       6.483   4.821  14.571  0.00  0.00    +0.000 A 
ATOM     15  C   UNL     1       6.463   3.936  13.394  0.00  0.00    +0.000 C 
ATOM     16  O   UNL     1       5.291   5.082  15.195  0.00  0.00    +0.000 OA
ENDBRANCH   2  11
BRANCH   8  17
ATOM     17  S   UNL     1       1.099  10.822  18.815  0.00  0.00    +0.000 S 
ATOM     18  C   UNL     1       1.041  11.296  20.547  0.00  0.00    +0.000 C 
ATOM     19  O   UNL     1       2.229  11.509  18.220  0.00  0.00    +0.000 OA
ATOM     20  O   UNL     1      -0.238  10.958  18.274  0.00  0.00    +0.000 OA
ENDBRANCH   8  17
BRANCH   1  21
ATOM     21  N   UNL     1       3.054   4.557  17.337  0.00  0.00    +0.000 N 
ATOM     22  H   UNL     1       4.041   4.259  17.437  0.00  0.00    +0.000 HD
BRANCH  21  27
ATOM     23  C   UNL     1       3.113   2.435  20.401  0.00  0.00    +0.000 A 
ATOM     24  C   UNL     1       1.755   2.307  20.668  0.00  0.00    +0.000 A 
ATOM     25  C   UNL     1       0.799   2.818  19.782  0.00  0.00    +0.000 A 
ATOM     26  C   UNL     1       1.181   3.505  18.619  0.00  0.00    +0.000 A 
ATOM     27  C   UNL     1       2.528   3.684  18.342  0.00  0.00    +0.000 A 
ATOM     28  C   UNL     1       3.493   3.110  19.236  0.00  0.00    +0.000 A 
BRANCH  23  30
ATOM     29  C   UNL     1       5.166   1.324  20.995  0.00  0.00    +0.000 C 
ATOM     30  O   UNL     1       3.917   1.893  21.364  0.00  0.00    +0.000 OA
ENDBRANCH  23  30
ENDBRANCH  21  27
ENDBRANCH   1  21
TORSDOF 5
ENDMDL
MODEL 2
REMARK VINA RESULT:      -7.6      2.909      7.163
REMARK  Name = 
REMARK  8 active torsions:
REMARK  status: ('A' for Active; 'I' for Inactive)
REMARK    1  A    between atoms: C_1  and  O_2
REMARK    2  A    between atoms: O_2  and  C_3
REMARK    3  A    between atoms: C_7  and  N_8
REMARK    4  A    between atoms: N_8  and  C_9
REMARK    5  A    between atoms: C_10  and  C_11
REMARK    6  A    between atoms: C_14  and  C_15
REMARK    7  A    between atoms: C_22  and  S_23
REMARK    8  A    between atoms: S_23  and  C_24
REMARK                            x       y       z     vdW  Elec       q    Type
REMARK                         _______ _______ _______ _____ _____    ______ ____
ROOT
ATOM      1  C   UNL     1       3.694   5.039  17.071  0.00  0.00    +0.000 A 
ATOM      2  C   UNL     1       3.755   3.982  18.005  0.00  0.00    +0.000 A 
ATOM      3  C   UNL     1       5.053   3.811  18.478  0.00  0.00    +0.000 A 
ATOM      4  N   UNL     1       6.138   4.467  17.943  0.00  0.00    +0.000 NA
ATOM      5  C   UNL     1       6.006   4.975  16.704  0.00  0.00    +0.000 A 
ATOM      6  C   UNL     1       7.134   5.233  15.943  0.00  0.00    +0.000 A 
ATOM      7  C   UNL     1       7.128   5.028  14.572  0.00  0.00    +0.000 A 
ATOM      8  C   UNL     1       5.986   4.480  14.002  0.00  0.00    +0.000 A 
ATOM      9  C   UNL     1       4.768   4.522  14.730  0.00  0.00    +0.000 A 
ATOM     10  C   UNL     1       4.761   4.993  16.102  0.00  0.00    +0.000 A 
ENDROOT
BRANCH   2  11
ATOM     11  C   UNL     1       2.645   3.459  18.783  0.00  0.00    +0.000 A 
ATOM     12  N   UNL     1       1.535   2.886  18.356  0.00  0.00    +0.000 NA
ATOM     13  N   UNL     1       0.856   2.449  19.474  0.00  0.00    +0.000 NA
ATOM     14  C   UNL     1       1.603   2.779  20.509  0.00  0.00    +0.000 A 
ATOM     15  C   UNL     1       1.400   2.477  21.936  0.00  0.00    +0.000 C 
ATOM     16  O   UNL     1       2.744   3.448  20.152  0.00  0.00    +0.000 OA
ENDBRANCH   2  11
BRANCH   8  17
ATOM     17  S   UNL     1       6.260   3.540  12.501  0.00  0.00    +0.000 S 
ATOM     18  C   UNL     1       4.683   3.614  11.644  0.00  0.00    +0.000 C 
ATOM     19  O   UNL     1       7.224   4.257  11.688  0.00  0.00    +0.000 OA
ATOM     20  O   UNL     1       6.482   2.166  12.902  0.00  0.00    +0.000 OA
ENDBRANCH   8  17
BRANCH   1  21
ATOM     21  N   UNL     1       3.648   6.321  18.042  0.00  0.00    +0.000 N 
ATOM     22  H   UNL     1       4.244   6.953  17.479  0.00  0.00    +0.000 HD
BRANCH  21  27
ATOM     23  C   UNL     1       1.511   8.259  20.403  0.00  0.00    +0.000 A 
ATOM     24  C   UNL     1       1.212   9.382  19.638  0.00  0.00    +0.000 A 
ATOM     25  C   UNL     1       1.612   9.464  18.299  0.00  0.00    +0.000 A 
ATOM     26  C   UNL     1       2.356   8.435  17.699  0.00  0.00    +0.000 A 
ATOM     27  C   UNL     1       2.703   7.319  18.444  0.00  0.00    +0.000 A 
ATOM     28  C   UNL     1       2.242   7.230  19.800  0.00  0.00    +0.000 A 
BRANCH  23  30
ATOM     29  C   UNL     1      -0.206   8.922  21.956  0.00  0.00    +0.000 C 
ATOM     30  O   UNL     1       1.060   8.334  21.690  0.00  0.00    +0.000 OA
ENDBRANCH  23  30
ENDBRANCH  21  27
ENDBRANCH   1  21
TORSDOF 5
ENDMDL
MODEL 3
REMARK VINA RESULT:      -7.3      2.472      4.883
REMARK  Name = 
REMARK  8 active torsions:
REMARK  status: ('A' for Active; 'I' for Inactive)
REMARK    1  A    between atoms: C_1  and  O_2
REMARK    2  A    between atoms: O_2  and  C_3
REMARK    3  A    between atoms: C_7  and  N_8
REMARK    4  A    between atoms: N_8  and  C_9
REMARK    5  A    between atoms: C_10  and  C_11
REMARK    6  A    between atoms: C_14  and  C_15
REMARK    7  A    between atoms: C_22  and  S_23
REMARK    8  A    between atoms: S_23  and  C_24
REMARK                            x       y       z     vdW  Elec       q    Type
REMARK                         _______ _______ _______ _____ _____    ______ ____
ROOT
ATOM      1  C   UNL     1       2.905   6.363  19.393  0.00  0.00    +0.000 A 
ATOM      2  C   UNL     1       2.067   5.632  18.524  0.00  0.00    +0.000 A 
ATOM      3  C   UNL     1       1.476   6.469  17.581  0.00  0.00    +0.000 A 
ATOM      4  N   UNL     1       1.563   7.842  17.639  0.00  0.00    +0.000 NA
ATOM      5  C   UNL     1       1.885   8.393  18.824  0.00  0.00    +0.000 A 
ATOM      6  C   UNL     1       1.560   9.715  19.077  0.00  0.00    +0.000 A 
ATOM      7  C   UNL     1       1.164  10.118  20.344  0.00  0.00    +0.000 A 
ATOM      8  C   UNL     1       1.026   9.143  21.323  0.00  0.00    +0.000 A 
ATOM      9  C   UNL     1       1.654   7.884  21.131  0.00  0.00    +0.000 A 
ATOM     10  C   UNL     1       2.296   7.581  19.866  0.00  0.00    +0.000 A 
ENDROOT
BRANCH   2  11
ATOM     11  C   UNL     1       2.147   4.207  18.250  0.00  0.00    +0.000 A 
ATOM     12  N   UNL     1       1.467   3.496  17.371  0.00  0.00    +0.000 NA
ATOM     13  N   UNL     1       1.988   2.218  17.402  0.00  0.00    +0.000 NA
ATOM     14  C   UNL     1       2.958   2.240  18.295  0.00  0.00    +0.000 A 
ATOM     15  C   UNL     1       3.904   1.174  18.666  0.00  0.00    +0.000 C 
ATOM     16  O   UNL     1       3.102   3.462  18.896  0.00  0.00    +0.000 OA
ENDBRANCH   2  11
BRANCH   8  17
ATOM     17  S   UNL     1      -0.165   9.518  22.607  0.00  0.00    +0.000 S 
ATOM     18  C   UNL     1      -0.872  11.091  22.104  0.00  0.00    +0.000 C 
ATOM     19  O   UNL     1      -1.227   8.531  22.544  0.00  0.00    +0.000 OA
ATOM     20  O   UNL     1       0.588   9.740  23.825  0.00  0.00    +0.000 OA
ENDBRANCH   8  17
BRANCH   1  21
ATOM     21  N   UNL     1       4.236   6.513  18.501  0.00  0.00    +0.000 N 
ATOM     22  H   UNL     1       4.733   7.201  19.096  0.00  0.00    +0.000 HD
BRANCH  21  27
ATOM     23  C   UNL     1       6.663   4.760  16.280  0.00  0.00    +0.000 A 
ATOM     24  C   UNL     1       7.743   4.591  17.140  0.00  0.00    +0.000 A 
ATOM     25  C   UNL     1       7.646   4.946  18.490  0.00  0.00    +0.000 A 
ATOM     26  C   UNL     1       6.473   5.516  19.010  0.00  0.00    +0.000 A 
ATOM     27  C   UNL     1       5.390   5.733  18.171  0.00  0.00    +0.000 A 
ATOM     28  C   UNL     1       5.490   5.317  16.801  0.00  0.00    +0.000 A 
BRANCH  23  30
ATOM     29  C   UNL     1       5.832   4.094  14.120  0.00  0.00    +0.000 C 
ATOM     30  O   UNL     1       6.916   4.375  14.994  0.00  0.00    +0.000 OA
ENDBRANCH  23  30
ENDBRANCH  21  27
ENDBRANCH   1  21
TORSDOF 5
ENDMDL
MODEL 4
REMARK VINA RESULT:      -7.3      3.010      7.090
REMARK  Name = 
REMARK  8 active torsions:
REMARK  status: ('A' for Active; 'I' for Inactive)
REMARK    1  A    between atoms: C_1  and  O_2
REMARK    2  A    between atoms: O_2  and  C_3
REMARK    3  A    between atoms: C_7  and  N_8
REMARK    4  A    between atoms: N_8  and  C_9
REMARK    5  A    between atoms: C_10  and  C_11
REMARK    6  A    between atoms: C_14  and  C_15
REMARK    7  A    between atoms: C_22  and  S_23
REMARK    8  A    between atoms: S_23  and  C_24
REMARK                            x       y       z     vdW  Elec       q    Type
REMARK                         _______ _______ _______ _____ _____    ______ ____
ROOT
ATOM      1  C   UNL     1       4.335   4.771  17.285  0.00  0.00    +0.000 A 
ATOM      2  C   UNL     1       4.912   3.921  18.254  0.00  0.00    +0.000 A 
ATOM      3  C   UNL     1       6.275   4.168  18.385  0.00  0.00    +0.000 A 
ATOM      4  N   UNL     1       6.972   4.996  17.534  0.00  0.00    +0.000 NA
ATOM      5  C   UNL     1       6.420   5.258  16.335  0.00  0.00    +0.000 A 
ATOM      6  C   UNL     1       7.220   5.683  15.288  0.00  0.00    +0.000 A 
ATOM      7  C   UNL     1       6.963   5.277  13.988  0.00  0.00    +0.000 A 
ATOM      8  C   UNL     1       5.932   4.369  13.782  0.00  0.00    +0.000 A 
ATOM      9  C   UNL     1       4.953   4.202  14.796  0.00  0.00    +0.000 A 
ATOM     10  C   UNL     1       5.121   4.858  16.079  0.00  0.00    +0.000 A 
ENDROOT
BRANCH   2  11
ATOM     11  C   UNL     1       4.208   3.250  19.335  0.00  0.00    +0.000 A 
ATOM     12  N   UNL     1       4.693   2.442  20.258  0.00  0.00    +0.000 NA
ATOM     13  N   UNL     1       3.659   2.166  21.130  0.00  0.00    +0.000 NA
ATOM     14  C   UNL     1       2.615   2.833  20.682  0.00  0.00    +0.000 A 
ATOM     15  C   UNL     1       1.274   2.969  21.275  0.00  0.00    +0.000 C 
ATOM     16  O   UNL     1       2.878   3.525  19.529  0.00  0.00    +0.000 OA
ENDBRANCH   2  11
BRANCH   8  17
ATOM     17  S   UNL     1       6.120   3.318  12.344  0.00  0.00    +0.000 S 
ATOM     18  C   UNL     1       4.535   3.435  11.505  0.00  0.00    +0.000 C 
ATOM     19  O   UNL     1       7.112   3.915  11.471  0.00  0.00    +0.000 OA
ATOM     20  O   UNL     1       6.262   1.961  12.832  0.00  0.00    +0.000 OA
ENDBRANCH   8  17
BRANCH   1  21
ATOM     21  N   UNL     1       4.140   6.127  18.126  0.00  0.00    +0.000 N 
ATOM     22  H   UNL     1       4.687   6.759  17.514  0.00  0.00    +0.000 HD
BRANCH  21  27
ATOM     23  C   UNL     1       1.648   7.939  20.226  0.00  0.00    +0.000 A 
ATOM     24  C   UNL     1       1.350   9.028  19.414  0.00  0.00    +0.000 A 
ATOM     25  C   UNL     1       1.876   9.121  18.120  0.00  0.00    +0.000 A 
ATOM     26  C   UNL     1       2.746   8.141  17.616  0.00  0.00    +0.000 A 
ATOM     27  C   UNL     1       3.093   7.061  18.413  0.00  0.00    +0.000 A 
ATOM     28  C   UNL     1       2.505   6.956  19.719  0.00  0.00    +0.000 A 
BRANCH  23  30
ATOM     29  C   UNL     1       0.377   9.176  21.855  0.00  0.00    +0.000 C 
ATOM     30  O   UNL     1       1.067   7.998  21.461  0.00  0.00    +0.000 OA
ENDBRANCH  23  30
ENDBRANCH  21  27
ENDBRANCH   1  21
TORSDOF 5
ENDMDL
MODEL 5
REMARK VINA RESULT:      -7.3      7.533      9.721
REMARK  Name = 
REMARK  8 active torsions:
REMARK  status: ('A' for Active; 'I' for Inactive)
REMARK    1  A    between atoms: C_1  and  O_2
REMARK    2  A    between atoms: O_2  and  C_3
REMARK    3  A    between atoms: C_7  and  N_8
REMARK    4  A    between atoms: N_8  and  C_9
REMARK    5  A    between atoms: C_10  and  C_11
REMARK    6  A    between atoms: C_14  and  C_15
REMARK    7  A    between atoms: C_22  and  S_23
REMARK    8  A    between atoms: S_23  and  C_24
REMARK                            x       y       z     vdW  Elec       q    Type
REMARK                         _______ _______ _______ _____ _____    ______ ____
ROOT
ATOM      1  C   UNL     1      -3.139  11.487  16.274  0.00  0.00    +0.000 A 
ATOM      2  C   UNL     1      -2.821  10.313  15.558  0.00  0.00    +0.000 A 
ATOM      3  C   UNL     1      -2.657   9.233  16.420  0.00  0.00    +0.000 A 
ATOM      4  N   UNL     1      -2.622   9.366  17.789  0.00  0.00    +0.000 NA
ATOM      5  C   UNL     1      -2.350  10.587  18.287  0.00  0.00    +0.000 A 
ATOM      6  C   UNL     1      -1.862  10.710  19.577  0.00  0.00    +0.000 A 
ATOM      7  C   UNL     1      -0.922  11.679  19.891  0.00  0.00    +0.000 A 
ATOM      8  C   UNL     1      -0.427  12.463  18.857  0.00  0.00    +0.000 A 
ATOM      9  C   UNL     1      -1.153  12.532  17.640  0.00  0.00    +0.000 A 
ATOM     10  C   UNL     1      -2.307  11.677  17.436  0.00  0.00    +0.000 A 
ENDROOT
BRANCH   2  11
ATOM     11  C   UNL     1      -3.105  10.060  14.155  0.00  0.00    +0.000 A 
ATOM     12  N   UNL     1      -2.286   9.637  13.211  0.00  0.00    +0.000 NA
ATOM     13  N   UNL     1      -3.052   9.432  12.081  0.00  0.00    +0.000 NA
ATOM     14  C   UNL     1      -4.289   9.737  12.416  0.00  0.00    +0.000 A 
ATOM     15  C   UNL     1      -5.524   9.618  11.623  0.00  0.00    +0.000 C 
ATOM     16  O   UNL     1      -4.399  10.171  13.711  0.00  0.00    +0.000 OA
ENDBRANCH   2  11
BRANCH   8  17
ATOM     17  S   UNL     1       1.232  13.093  19.108  0.00  0.00    +0.000 S 
ATOM     18  C   UNL     1       2.266  12.010  18.115  0.00  0.00    +0.000 C 
ATOM     19  O   UNL     1       1.308  14.417  18.519  0.00  0.00    +0.000 OA
ATOM     20  O   UNL     1       1.561  12.865  20.500  0.00  0.00    +0.000 OA
ENDBRANCH   8  17
BRANCH   1  21
ATOM     21  N   UNL     1      -4.714  11.287  16.531  0.00  0.00    +0.000 N 
ATOM     22  H   UNL     1      -4.696  10.281  16.777  0.00  0.00    +0.000 HD
BRANCH  21  27
ATOM     23  C   UNL     1      -6.784  10.945  19.612  0.00  0.00    +0.000 A 
ATOM     24  C   UNL     1      -7.221  12.253  19.792  0.00  0.00    +0.000 A 
ATOM     25  C   UNL     1      -6.936  13.241  18.842  0.00  0.00    +0.000 A 
ATOM     26  C   UNL     1      -6.173  12.951  17.699  0.00  0.00    +0.000 A 
ATOM     27  C   UNL     1      -5.691  11.665  17.509  0.00  0.00    +0.000 A 
ATOM     28  C   UNL     1      -6.035  10.654  18.468  0.00  0.00    +0.000 A 
BRANCH  23  30
ATOM     29  C   UNL     1      -7.485   8.758  20.337  0.00  0.00    +0.000 C 
ATOM     30  O   UNL     1      -7.135  10.103  20.630  0.00  0.00    +0.000 OA
ENDBRANCH  23  30
ENDBRANCH  21  27
ENDBRANCH   1  21
TORSDOF 5
ENDMDL
MODEL 6
REMARK VINA RESULT:      -7.2      3.383      6.466
REMARK  Name = 
REMARK  8 active torsions:
REMARK  status: ('A' for Active; 'I' for Inactive)
REMARK    1  A    between atoms: C_1  and  O_2
REMARK    2  A    between atoms: O_2  and  C_3
REMARK    3  A    between atoms: C_7  and  N_8
REMARK    4  A    between atoms: N_8  and  C_9
REMARK    5  A    between atoms: C_10  and  C_11
REMARK    6  A    between atoms: C_14  and  C_15
REMARK    7  A    between atoms: C_22  and  S_23
REMARK    8  A    between atoms: S_23  and  C_24
REMARK                            x       y       z     vdW  Elec       q    Type
REMARK                         _______ _______ _______ _____ _____    ______ ____
ROOT
ATOM      1  C   UNL     1       6.220   6.383  17.029  0.00  0.00    +0.000 A 
ATOM      2  C   UNL     1       7.116   6.889  17.996  0.00  0.00    +0.000 A 
ATOM      3  C   UNL     1       7.687   5.857  18.735  0.00  0.00    +0.000 A 
ATOM      4  N   UNL     1       7.268   4.549  18.643  0.00  0.00    +0.000 NA
ATOM      5  C   UNL     1       6.042   4.326  18.134  0.00  0.00    +0.000 A 
ATOM      6  C   UNL     1       5.387   3.139  18.418  0.00  0.00    +0.000 A 
ATOM      7  C   UNL     1       4.013   3.114  18.603  0.00  0.00    +0.000 A 
ATOM      8  C   UNL     1       3.331   4.323  18.577  0.00  0.00    +0.000 A 
ATOM      9  C   UNL     1       3.958   5.452  17.985  0.00  0.00    +0.000 A 
ATOM     10  C   UNL     1       5.341   5.369  17.557  0.00  0.00    +0.000 A 
ENDROOT
BRANCH   2  11
ATOM     11  C   UNL     1       7.780   8.181  17.957  0.00  0.00    +0.000 A 
ATOM     12  N   UNL     1       7.577   9.189  17.129  0.00  0.00    +0.000 NA
ATOM     13  N   UNL     1       8.360  10.235  17.574  0.00  0.00    +0.000 NA
ATOM     14  C   UNL     1       8.981   9.795  18.650  0.00  0.00    +0.000 A 
ATOM     15  C   UNL     1       9.870  10.521  19.572  0.00  0.00    +0.000 C 
ATOM     16  O   UNL     1       8.685   8.490  18.942  0.00  0.00    +0.000 OA
ENDBRANCH   2  11
BRANCH   8  17
ATOM     17  S   UNL     1       1.824   4.369  19.544  0.00  0.00    +0.000 S 
ATOM     18  C   UNL     1       2.180   3.322  20.960  0.00  0.00    +0.000 C 
ATOM     19  O   UNL     1       1.645   5.719  20.043  0.00  0.00    +0.000 OA
ATOM     20  O   UNL     1       0.800   3.713  18.756  0.00  0.00    +0.000 OA
ENDBRANCH   8  17
BRANCH   1  21
ATOM     21  N   UNL     1       7.232   5.933  15.862  0.00  0.00    +0.000 N 
ATOM     22  H   UNL     1       7.733   5.189  16.381  0.00  0.00    +0.000 HD
BRANCH  21  27
ATOM     23  C   UNL     1       5.683   3.922  13.132  0.00  0.00    +0.000 A 
ATOM     24  C   UNL     1       6.584   4.136  12.094  0.00  0.00    +0.000 A 
ATOM     25  C   UNL     1       7.769   4.849  12.309  0.00  0.00    +0.000 A 
ATOM     26  C   UNL     1       8.069   5.399  13.566  0.00  0.00    +0.000 A 
ATOM     27  C   UNL     1       7.174   5.235  14.613  0.00  0.00    +0.000 A 
ATOM     28  C   UNL     1       5.988   4.460  14.387  0.00  0.00    +0.000 A 
BRANCH  23  30
ATOM     29  C   UNL     1       4.192   3.180  11.392  0.00  0.00    +0.000 C 
ATOM     30  O   UNL     1       4.573   3.219  12.761  0.00  0.00    +0.000 OA
ENDBRANCH  23  30
ENDBRANCH  21  27
ENDBRANCH   1  21
TORSDOF 5
ENDMDL
MODEL 7
REMARK VINA RESULT:      -7.2      1.071      1.176
REMARK  Name = 
REMARK  8 active torsions:
REMARK  status: ('A' for Active; 'I' for Inactive)
REMARK    1  A    between atoms: C_1  and  O_2
REMARK    2  A    between atoms: O_2  and  C_3
REMARK    3  A    between atoms: C_7  and  N_8
REMARK    4  A    between atoms: N_8  and  C_9
REMARK    5  A    between atoms: C_10  and  C_11
REMARK    6  A    between atoms: C_14  and  C_15
REMARK    7  A    between atoms: C_22  and  S_23
REMARK    8  A    between atoms: S_23  and  C_24
REMARK                            x       y       z     vdW  Elec       q    Type
REMARK                         _______ _______ _______ _____ _____    ______ ____
ROOT
ATOM      1  C   UNL     1       2.835   6.706  17.462  0.00  0.00    +0.000 A 
ATOM      2  C   UNL     1       4.208   6.545  17.746  0.00  0.00    +0.000 A 
ATOM      3  C   UNL     1       4.407   6.255  19.093  0.00  0.00    +0.000 A 
ATOM      4  N   UNL     1       3.400   6.319  20.029  0.00  0.00    +0.000 NA
ATOM      5  C   UNL     1       2.310   7.044  19.719  0.00  0.00    +0.000 A 
ATOM      6  C   UNL     1       1.491   7.520  20.729  0.00  0.00    +0.000 A 
ATOM      7  C   UNL     1       0.884   8.763  20.624  0.00  0.00    +0.000 A 
ATOM      8  C   UNL     1       1.189   9.543  19.517  0.00  0.00    +0.000 A 
ATOM      9  C   UNL     1       1.760   8.922  18.376  0.00  0.00    +0.000 A 
ATOM     10  C   UNL     1       2.155   7.528  18.432  0.00  0.00    +0.000 A 
ENDROOT
BRANCH   2  11
ATOM     11  C   UNL     1       5.248   6.206  16.789  0.00  0.00    +0.000 A 
ATOM     12  N   UNL     1       6.482   6.668  16.714  0.00  0.00    +0.000 NA
ATOM     13  N   UNL     1       7.117   5.952  15.720  0.00  0.00    +0.000 NA
ATOM     14  C   UNL     1       6.227   5.095  15.261  0.00  0.00    +0.000 A 
ATOM     15  C   UNL     1       6.392   4.030  14.257  0.00  0.00    +0.000 C 
ATOM     16  O   UNL     1       5.007   5.213  15.873  0.00  0.00    +0.000 OA
ENDBRANCH   2  11
BRANCH   8  17
ATOM     17  S   UNL     1       1.058  11.312  19.774  0.00  0.00    +0.000 S 
ATOM     18  C   UNL     1      -0.658  11.684  19.390  0.00  0.00    +0.000 C 
ATOM     19  O   UNL     1       1.249  11.581  21.186  0.00  0.00    +0.000 OA
ATOM     20  O   UNL     1       1.884  11.944  18.765  0.00  0.00    +0.000 OA
ENDBRANCH   8  17
BRANCH   1  21
ATOM     21  N   UNL     1       2.353   5.177  17.337  0.00  0.00    +0.000 N 
ATOM     22  H   UNL     1       3.184   4.801  16.845  0.00  0.00    +0.000 HD
BRANCH  21  27
ATOM     23  C   UNL     1       3.332   2.164  19.302  0.00  0.00    +0.000 A 
ATOM     24  C   UNL     1       2.233   2.019  20.141  0.00  0.00    +0.000 A 
ATOM     25  C   UNL     1       1.107   2.838  19.995  0.00  0.00    +0.000 A 
ATOM     26  C   UNL     1       1.066   3.852  19.024  0.00  0.00    +0.000 A 
ATOM     27  C   UNL     1       2.161   4.047  18.195  0.00  0.00    +0.000 A 
ATOM     28  C   UNL     1       3.286   3.166  18.326  0.00  0.00    +0.000 A 
BRANCH  23  30
ATOM     29  C   UNL     1       5.065   1.420  20.800  0.00  0.00    +0.000 C 
ATOM     30  O   UNL     1       4.352   1.298  19.576  0.00  0.00    +0.000 OA
ENDBRANCH  23  30
ENDBRANCH  21  27
ENDBRANCH   1  21
TORSDOF 5
ENDMDL
MODEL 8
REMARK VINA RESULT:      -7.2      2.769      7.323
REMARK  Name = 
REMARK  8 active torsions:
REMARK  status: ('A' for Active; 'I' for Inactive)
REMARK    1  A    between atoms: C_1  and  O_2
REMARK    2  A    between atoms: O_2  and  C_3
REMARK    3  A    between atoms: C_7  and  N_8
REMARK    4  A    between atoms: N_8  and  C_9
REMARK    5  A    between atoms: C_10  and  C_11
REMARK    6  A    between atoms: C_14  and  C_15
REMARK    7  A    between atoms: C_22  and  S_23
REMARK    8  A    between atoms: S_23  and  C_24
REMARK                            x       y       z     vdW  Elec       q    Type
REMARK                         _______ _______ _______ _____ _____    ______ ____
ROOT
ATOM      1  C   UNL     1       3.839   5.088  17.026  0.00  0.00    +0.000 A 
ATOM      2  C   UNL     1       3.784   3.988  17.909  0.00  0.00    +0.000 A 
ATOM      3  C   UNL     1       5.056   3.648  18.362  0.00  0.00    +0.000 A 
ATOM      4  N   UNL     1       6.206   4.202  17.847  0.00  0.00    +0.000 NA
ATOM      5  C   UNL     1       6.128   4.779  16.634  0.00  0.00    +0.000 A 
ATOM      6  C   UNL     1       7.274   4.944  15.876  0.00  0.00    +0.000 A 
ATOM      7  C   UNL     1       7.239   4.805  14.497  0.00  0.00    +0.000 A 
ATOM      8  C   UNL     1       6.041   4.417  13.913  0.00  0.00    +0.000 A 
ATOM      9  C   UNL     1       4.838   4.563  14.654  0.00  0.00    +0.000 A 
ATOM     10  C   UNL     1       4.890   4.966  16.046  0.00  0.00    +0.000 A 
ENDROOT
BRANCH   2  11
ATOM     11  C   UNL     1       2.624   3.557  18.673  0.00  0.00    +0.000 A 
ATOM     12  N   UNL     1       1.452   3.144  18.230  0.00  0.00    +0.000 NA
ATOM     13  N   UNL     1       0.733   2.730  19.332  0.00  0.00    +0.000 NA
ATOM     14  C   UNL     1       1.521   2.911  20.373  0.00  0.00    +0.000 A 
ATOM     15  C   UNL     1       1.294   2.556  21.784  0.00  0.00    +0.000 C 
ATOM     16  O   UNL     1       2.731   3.459  20.038  0.00  0.00    +0.000 OA
ENDBRANCH   2  11
BRANCH   8  17
ATOM     17  S   UNL     1       6.200   3.524  12.368  0.00  0.00    +0.000 S 
ATOM     18  C   UNL     1       4.576   3.662  11.613  0.00  0.00    +0.000 C 
ATOM     19  O   UNL     1       7.130   4.247  11.521  0.00  0.00    +0.000 OA
ATOM     20  O   UNL     1       6.414   2.132  12.708  0.00  0.00    +0.000 OA
ENDBRANCH   8  17
BRANCH   1  21
ATOM     21  N   UNL     1       3.943   6.319  18.056  0.00  0.00    +0.000 N 
ATOM     22  H   UNL     1       4.257   7.044  17.386  0.00  0.00    +0.000 HD
BRANCH  21  27
ATOM     23  C   UNL     1       1.506   9.090  18.586  0.00  0.00    +0.000 A 
ATOM     24  C   UNL     1       0.968   8.745  19.821  0.00  0.00    +0.000 A 
ATOM     25  C   UNL     1       1.479   7.663  20.549  0.00  0.00    +0.000 A 
ATOM     26  C   UNL     1       2.523   6.874  20.039  0.00  0.00    +0.000 A 
ATOM     27  C   UNL     1       3.056   7.167  18.794  0.00  0.00    +0.000 A 
ATOM     28  C   UNL     1       2.554   8.310  18.085  0.00  0.00    +0.000 A 
BRANCH  23  30
ATOM     29  C   UNL     1      -0.335  10.641  18.525  0.00  0.00    +0.000 C 
ATOM     30  O   UNL     1       0.894  10.161  17.999  0.00  0.00    +0.000 OA
ENDBRANCH  23  30
ENDBRANCH  21  27
ENDBRANCH   1  21
TORSDOF 5
ENDMDL
MODEL 9
REMARK VINA RESULT:      -7.2      4.101      7.754
REMARK  Name = 
REMARK  8 active torsions:
REMARK  status: ('A' for Active; 'I' for Inactive)
REMARK    1  A    between atoms: C_1  and  O_2
REMARK    2  A    between atoms: O_2  and  C_3
REMARK    3  A    between atoms: C_7  and  N_8
REMARK    4  A    between atoms: N_8  and  C_9
REMARK    5  A    between atoms: C_10  and  C_11
REMARK    6  A    between atoms: C_14  and  C_15
REMARK    7  A    between atoms: C_22  and  S_23
REMARK    8  A    between atoms: S_23  and  C_24
REMARK                            x       y       z     vdW  Elec       q    Type
REMARK                         _______ _______ _______ _____ _____    ______ ____
ROOT
ATOM      1  C   UNL     1       0.709  10.543  19.910  0.00  0.00    +0.000 A 
ATOM      2  C   UNL     1       1.002   9.501  20.817  0.00  0.00    +0.000 A 
ATOM      3  C   UNL     1       0.283   9.654  21.999  0.00  0.00    +0.000 A 
ATOM      4  N   UNL     1      -0.452  10.781  22.288  0.00  0.00    +0.000 NA
ATOM      5  C   UNL     1      -0.160  11.904  21.607  0.00  0.00    +0.000 A 
ATOM      6  C   UNL     1      -0.513  13.136  22.129  0.00  0.00    +0.000 A 
ATOM      7  C   UNL     1       0.308  14.240  21.960  0.00  0.00    +0.000 A 
ATOM      8  C   UNL     1       1.528  14.052  21.325  0.00  0.00    +0.000 A 
ATOM      9  C   UNL     1       1.720  12.884  20.540  0.00  0.00    +0.000 A 
ATOM     10  C   UNL     1       0.710  11.843  20.533  0.00  0.00    +0.000 A 
ENDROOT
BRANCH   2  11
ATOM     11  C   UNL     1       1.533   8.192  20.477  0.00  0.00    +0.000 A 
ATOM     12  N   UNL     1       1.371   7.046  21.111  0.00  0.00    +0.000 NA
ATOM     13  N   UNL     1       1.963   6.072  20.333  0.00  0.00    +0.000 NA
ATOM     14  C   UNL     1       2.439   6.691  19.271  0.00  0.00    +0.000 A 
ATOM     15  C   UNL     1       3.088   6.123  18.078  0.00  0.00    +0.000 C 
ATOM     16  O   UNL     1       2.228   8.044  19.303  0.00  0.00    +0.000 OA
ENDBRANCH   2  11
BRANCH   8  17
ATOM     17  S   UNL     1       2.818  15.202  21.798  0.00  0.00    +0.000 S 
ATOM     18  C   UNL     1       1.947  16.496  22.688  0.00  0.00    +0.000 C 
ATOM     19  O   UNL     1       3.690  14.539  22.749  0.00  0.00    +0.000 OA
ATOM     20  O   UNL     1       3.335  15.778  20.573  0.00  0.00    +0.000 OA
ENDBRANCH   8  17
BRANCH   1  21
ATOM     21  N   UNL     1      -0.682  10.037  19.281  0.00  0.00    +0.000 N 
ATOM     22  H   UNL     1      -1.262  10.101  20.137  0.00  0.00    +0.000 HD
BRANCH  21  27
ATOM     23  C   UNL     1      -2.807  10.077  16.218  0.00  0.00    +0.000 A 
ATOM     24  C   UNL     1      -3.816  10.954  16.600  0.00  0.00    +0.000 A 
ATOM     25  C   UNL     1      -3.752  11.631  17.823  0.00  0.00    +0.000 A 
ATOM     26  C   UNL     1      -2.688  11.421  18.716  0.00  0.00    +0.000 A 
ATOM     27  C   UNL     1      -1.684  10.525  18.382  0.00  0.00    +0.000 A 
ATOM     28  C   UNL     1      -1.741   9.877  17.102  0.00  0.00    +0.000 A 
BRANCH  23  30
ATOM     29  C   UNL     1      -3.788  10.167  14.021  0.00  0.00    +0.000 C 
ATOM     30  O   UNL     1      -3.019   9.488  15.004  0.00  0.00    +0.000 OA
ENDBRANCH  23  30
ENDBRANCH  21  27
ENDBRANCH   1  21
TORSDOF 5
ENDMDL
