MODEL 1
REMARK VINA RESULT:      -7.8      0.000      0.000
REMARK  Name = 
REMARK  7 active torsions:
REMARK  status: ('A' for Active; 'I' for Inactive)
REMARK    1  A    between atoms: C_2  and  O_3
REMARK    2  A    between atoms: C_2  and  C_4
REMARK    3  A    between atoms: C_4  and  C_5
REMARK    4  A    between atoms: C_5  and  C_6
REMARK    5  A    between atoms: C_6  and  O_7
REMARK    6  A    between atoms: O_7  and  C_8
REMARK    7  A    between atoms: C_11  and  C_12
REMARK                            x       y       z     vdW  Elec       q    Type
REMARK                         _______ _______ _______ _____ _____    ______ ____
ROOT
ATOM      1  C   UNL     1       4.050   4.928  19.223  0.00  0.00    +0.000 A 
ATOM      2  C   UNL     1       5.015   3.979  18.898  0.00  0.00    +0.000 A 
ATOM      3  C   UNL     1       5.771   4.112  17.739  0.00  0.00    +0.000 A 
ATOM      4  C   UNL     1       5.559   5.167  16.835  0.00  0.00    +0.000 A 
ATOM      5  C   UNL     1       4.568   6.124  17.146  0.00  0.00    +0.000 A 
ATOM      6 CL   UNL     1       4.183   7.417  16.043  0.00  0.00    +0.000 Cl
ATOM      7  C   UNL     1       3.834   6.011  18.349  0.00  0.00    +0.000 A 
ATOM      8 CL   UNL     1       2.635   7.199  18.790  0.00  0.00    +0.000 Cl
ENDROOT
BRANCH   4   9
ATOM      9  C   UNL     1       6.402   5.205  15.631  0.00  0.00    +0.000 A 
ATOM     10  N   UNL     1       7.587   5.841  15.619  0.00  0.00    +0.000 NA
ATOM     11  O   UNL     1       8.118   5.671  14.362  0.00  0.00    +0.000 OA
ATOM     12  C   UNL     1       7.299   4.884  13.623  0.00  0.00    +0.000 A 
ATOM     13  C   UNL     1       7.530   4.463  12.317  0.00  0.00    +0.000 A 
ATOM     14  C   UNL     1       6.564   3.619  11.756  0.00  0.00    +0.000 A 
ATOM     15  C   UNL     1       5.429   3.246  12.477  0.00  0.00    +0.000 A 
ATOM     16  C   UNL     1       5.215   3.715  13.780  0.00  0.00    +0.000 A 
ATOM     17  C   UNL     1       6.187   4.547  14.375  0.00  0.00    +0.000 A 
ENDBRANCH   4   9
BRANCH   1  18
ATOM     18  O   UNL     1       3.289   4.868  20.363  0.00  0.00    +0.000 OA
BRANCH  18  19
ATOM     19  C   UNL     1       2.749   3.594  20.718  0.00  0.00    +0.000 C 
BRANCH  19  20
ATOM     20  C   UNL     1       1.238   3.622  20.505  0.00  0.00    +0.000 C 
BRANCH  20  21
ATOM     21  C   UNL     1       0.765   2.601  19.471  0.00  0.00    +0.000 C 
BRANCH  21  23
ATOM     22  O   UNL     1       1.325   3.745  17.411  0.00  0.00    +0.000 OA
ATOM     23  C   UNL     1       1.459   2.773  18.142  0.00  0.00    +0.000 C 
BRANCH  23  24
ATOM     24  O   UNL     1       2.279   1.746  17.833  0.00  0.00    +0.000 OA
ATOM     25  H   UNL     1       2.821   1.429  18.581  0.00  0.00    +0.000 HD
ENDBRANCH  23  24
ENDBRANCH  21  23
ENDBRANCH  20  21
ENDBRANCH  19  20
ENDBRANCH  18  19
ENDBRANCH   1  18
TORSDOF 7
ENDMDL
MODEL 2
REMARK VINA RESULT:      -7.2      4.660      6.034
REMARK  Name = 
REMARK  7 active torsions:
REMARK  status: ('A' for Active; 'I' for Inactive)
REMARK    1  A    between atoms: C_2  and  O_3
REMARK    2  A    between atoms: C_2  and  C_4
REMARK    3  A    between atoms: C_4  and  C_5
REMARK    4  A    between atoms: C_5  and  C_6
REMARK    5  A    between atoms: C_6  and  O_7
REMARK    6  A    between atoms: O_7  and  C_8
REMARK    7  A    between atoms: C_11  and  C_12
REMARK                            x       y       z     vdW  Elec       q    Type
REMARK                         _______ _______ _______ _____ _____    ______ ____
ROOT
ATOM      1  C   UNL     1       1.508   9.343  19.268  0.00  0.00    +0.000 A 
ATOM      2  C   UNL     1       2.104   9.293  18.011  0.00  0.00    +0.000 A 
ATOM      3  C   UNL     1       2.669   8.110  17.547  0.00  0.00    +0.000 A 
ATOM      4  C   UNL     1       2.707   6.949  18.336  0.00  0.00    +0.000 A 
ATOM      5  C   UNL     1       2.123   6.995  19.621  0.00  0.00    +0.000 A 
ATOM      6 CL   UNL     1       2.196   5.626  20.698  0.00  0.00    +0.000 Cl
ATOM      7  C   UNL     1       1.507   8.186  20.071  0.00  0.00    +0.000 A 
ATOM      8 CL   UNL     1       0.734   8.267  21.632  0.00  0.00    +0.000 Cl
ENDROOT
BRANCH   4   9
ATOM      9  C   UNL     1       3.343   5.757  17.754  0.00  0.00    +0.000 A 
ATOM     10  N   UNL     1       2.660   4.615  17.562  0.00  0.00    +0.000 NA
ATOM     11  O   UNL     1       3.534   3.718  16.994  0.00  0.00    +0.000 OA
ATOM     12  C   UNL     1       4.728   4.320  16.779  0.00  0.00    +0.000 A 
ATOM     13  C   UNL     1       5.841   3.735  16.183  0.00  0.00    +0.000 A 
ATOM     14  C   UNL     1       6.966   4.555  16.025  0.00  0.00    +0.000 A 
ATOM     15  C   UNL     1       6.956   5.880  16.465  0.00  0.00    +0.000 A 
ATOM     16  C   UNL     1       5.827   6.425  17.090  0.00  0.00    +0.000 A 
ATOM     17  C   UNL     1       4.674   5.625  17.237  0.00  0.00    +0.000 A 
ENDBRANCH   4   9
BRANCH   1  18
ATOM     18  O   UNL     1       0.912  10.469  19.775  0.00  0.00    +0.000 OA
BRANCH  18  19
ATOM     19  C   UNL     1       0.053  11.200  18.897  0.00  0.00    +0.000 C 
BRANCH  19  20
ATOM     20  C   UNL     1      -1.325  10.543  18.898  0.00  0.00    +0.000 C 
BRANCH  20  21
ATOM     21  C   UNL     1      -1.724   9.999  17.526  0.00  0.00    +0.000 C 
BRANCH  21  23
ATOM     22  O   UNL     1      -2.646  10.959  15.502  0.00  0.00    +0.000 OA
ATOM     23  C   UNL     1      -2.496  11.012  16.715  0.00  0.00    +0.000 C 
BRANCH  23  24
ATOM     24  O   UNL     1      -3.038  11.993  17.466  0.00  0.00    +0.000 OA
ATOM     25  H   UNL     1      -3.869  11.741  17.914  0.00  0.00    +0.000 HD
ENDBRANCH  23  24
ENDBRANCH  21  23
ENDBRANCH  20  21
ENDBRANCH  19  20
ENDBRANCH  18  19
ENDBRANCH   1  18
TORSDOF 7
ENDMDL
MODEL 3
REMARK VINA RESULT:      -7.2      1.556      2.109
REMARK  Name = 
REMARK  7 active torsions:
REMARK  status: ('A' for Active; 'I' for Inactive)
REMARK    1  A    between atoms: C_2  and  O_3
REMARK    2  A    between atoms: C_2  and  C_4
REMARK    3  A    between atoms: C_4  and  C_5
REMARK    4  A    between atoms: C_5  and  C_6
REMARK    5  A    between atoms: C_6  and  O_7
REMARK    6  A    between atoms: O_7  and  C_8
REMARK    7  A    between atoms: C_11  and  C_12
REMARK                            x       y       z     vdW  Elec       q    Type
REMARK                         _______ _______ _______ _____ _____    ______ ____
ROOT
ATOM      1  C   UNL     1       2.211   4.501  18.306  0.00  0.00    +0.000 A 
ATOM      2  C   UNL     1       2.672   3.501  17.455  0.00  0.00    +0.000 A 
ATOM      3  C   UNL     1       3.793   3.715  16.659  0.00  0.00    +0.000 A 
ATOM      4  C   UNL     1       4.464   4.949  16.644  0.00  0.00    +0.000 A 
ATOM      5  C   UNL     1       3.991   5.977  17.489  0.00  0.00    +0.000 A 
ATOM      6 CL   UNL     1       4.713   7.563  17.475  0.00  0.00    +0.000 Cl
ATOM      7  C   UNL     1       2.880   5.740  18.332  0.00  0.00    +0.000 A 
ATOM      8 CL   UNL     1       2.297   6.969  19.424  0.00  0.00    +0.000 Cl
ENDROOT
BRANCH   4   9
ATOM      9  C   UNL     1       5.627   5.074  15.754  0.00  0.00    +0.000 A 
ATOM     10  N   UNL     1       6.757   5.686  16.151  0.00  0.00    +0.000 NA
ATOM     11  O   UNL     1       7.640   5.615  15.099  0.00  0.00    +0.000 OA
ATOM     12  C   UNL     1       7.084   4.910  14.084  0.00  0.00    +0.000 A 
ATOM     13  C   UNL     1       7.697   4.600  12.874  0.00  0.00    +0.000 A 
ATOM     14  C   UNL     1       6.948   3.826  11.978  0.00  0.00    +0.000 A 
ATOM     15  C   UNL     1       5.652   3.414  12.293  0.00  0.00    +0.000 A 
ATOM     16  C   UNL     1       5.056   3.773  13.509  0.00  0.00    +0.000 A 
ATOM     17  C   UNL     1       5.801   4.531  14.437  0.00  0.00    +0.000 A 
ENDBRANCH   4   9
BRANCH   1  18
ATOM     18  O   UNL     1       1.128   4.345  19.133  0.00  0.00    +0.000 OA
BRANCH  18  19
ATOM     19  C   UNL     1       1.162   3.248  20.048  0.00  0.00    +0.000 C 
BRANCH  19  20
ATOM     20  C   UNL     1       2.469   3.302  20.834  0.00  0.00    +0.000 C 
BRANCH  20  21
ATOM     21  C   UNL     1       3.251   1.990  20.778  0.00  0.00    +0.000 C 
BRANCH  21  23
ATOM     22  O   UNL     1       5.187   3.013  19.743  0.00  0.00    +0.000 OA
ATOM     23  C   UNL     1       4.726   2.215  20.547  0.00  0.00    +0.000 C 
BRANCH  23  24
ATOM     24  O   UNL     1       5.511   1.457  21.342  0.00  0.00    +0.000 OA
ATOM     25  H   UNL     1       5.019   0.912  21.985  0.00  0.00    +0.000 HD
ENDBRANCH  23  24
ENDBRANCH  21  23
ENDBRANCH  20  21
ENDBRANCH  19  20
ENDBRANCH  18  19
ENDBRANCH   1  18
TORSDOF 7
ENDMDL
MODEL 4
REMARK VINA RESULT:      -7.1      1.071      1.283
REMARK  Name = 
REMARK  7 active torsions:
REMARK  status: ('A' for Active; 'I' for Inactive)
REMARK    1  A    between atoms: C_2  and  O_3
REMARK    2  A    between atoms: C_2  and  C_4
REMARK    3  A    between atoms: C_4  and  C_5
REMARK    4  A    between atoms: C_5  and  C_6
REMARK    5  A    between atoms: C_6  and  O_7
REMARK    6  A    between atoms: O_7  and  C_8
REMARK    7  A    between atoms: C_11  and  C_12
REMARK                            x       y       z     vdW  Elec       q    Type
REMARK                         _______ _______ _______ _____ _____    ______ ____
ROOT
ATOM      1  C   UNL     1       3.449   4.532  20.267  0.00  0.00    +0.000 A 
ATOM      2  C   UNL     1       4.472   3.669  19.882  0.00  0.00    +0.000 A 
ATOM      3  C   UNL     1       5.292   3.988  18.805  0.00  0.00    +0.000 A 
ATOM      4  C   UNL     1       5.092   5.150  18.041  0.00  0.00    +0.000 A 
ATOM      5  C   UNL     1       4.044   6.022  18.412  0.00  0.00    +0.000 A 
ATOM      6 CL   UNL     1       3.674   7.442  17.474  0.00  0.00    +0.000 Cl
ATOM      7  C   UNL     1       3.243   5.718  19.538  0.00  0.00    +0.000 A 
ATOM      8 CL   UNL     1       1.970   6.793  20.055  0.00  0.00    +0.000 Cl
ENDROOT
BRANCH   4   9
ATOM      9  C   UNL     1       6.006   5.383  16.914  0.00  0.00    +0.000 A 
ATOM     10  N   UNL     1       7.108   6.143  17.043  0.00  0.00    +0.000 NA
ATOM     11  O   UNL     1       7.741   6.140  15.822  0.00  0.00    +0.000 OA
ATOM     12  C   UNL     1       7.069   5.335  14.963  0.00  0.00    +0.000 A 
ATOM     13  C   UNL     1       7.436   5.056  13.650  0.00  0.00    +0.000 A 
ATOM     14  C   UNL     1       6.614   4.163  12.950  0.00  0.00    +0.000 A 
ATOM     15  C   UNL     1       5.482   3.608  13.550  0.00  0.00    +0.000 A 
ATOM     16  C   UNL     1       5.127   3.938  14.865  0.00  0.00    +0.000 A 
ATOM     17  C   UNL     1       5.954   4.816  15.597  0.00  0.00    +0.000 A 
ENDBRANCH   4   9
BRANCH   1  18
ATOM     18  O   UNL     1       2.622   4.289  21.334  0.00  0.00    +0.000 OA
BRANCH  18  19
ATOM     19  C   UNL     1       1.360   3.682  21.054  0.00  0.00    +0.000 C 
BRANCH  19  20
ATOM     20  C   UNL     1       1.595   2.404  20.253  0.00  0.00    +0.000 C 
BRANCH  20  21
ATOM     21  C   UNL     1       1.010   2.471  18.842  0.00  0.00    +0.000 C 
BRANCH  21  23
ATOM     22  O   UNL     1       2.224   3.220  16.884  0.00  0.00    +0.000 OA
ATOM     23  C   UNL     1       2.079   2.398  17.779  0.00  0.00    +0.000 C 
BRANCH  23  24
ATOM     24  O   UNL     1       2.897   1.333  17.918  0.00  0.00    +0.000 OA
ATOM     25  H   UNL     1       2.839   0.687  17.188  0.00  0.00    +0.000 HD
ENDBRANCH  23  24
ENDBRANCH  21  23
ENDBRANCH  20  21
ENDBRANCH  19  20
ENDBRANCH  18  19
ENDBRANCH   1  18
TORSDOF 7
ENDMDL
MODEL 5
REMARK VINA RESULT:      -7.0      3.719      7.214
REMARK  Name = 
REMARK  7 active torsions:
REMARK  status: ('A' for Active; 'I' for Inactive)
REMARK    1  A    between atoms: C_2  and  O_3
REMARK    2  A    between atoms: C_2  and  C_4
REMARK    3  A    between atoms: C_4  and  C_5
REMARK    4  A    between atoms: C_5  and  C_6
REMARK    5  A    between atoms: C_6  and  O_7
REMARK    6  A    between atoms: O_7  and  C_8
REMARK    7  A    between atoms: C_11  and  C_12
REMARK                            x       y       z     vdW  Elec       q    Type
REMARK                         _______ _______ _______ _____ _____    ______ ____
ROOT
ATOM      1  C   UNL     1       4.683   4.344  16.902  0.00  0.00    +0.000 A 
ATOM      2  C   UNL     1       4.973   5.700  17.028  0.00  0.00    +0.000 A 
ATOM      3  C   UNL     1       4.191   6.513  17.841  0.00  0.00    +0.000 A 
ATOM      4  C   UNL     1       3.064   6.018  18.518  0.00  0.00    +0.000 A 
ATOM      5  C   UNL     1       2.750   4.648  18.380  0.00  0.00    +0.000 A 
ATOM      6 CL   UNL     1       1.325   3.968  19.117  0.00  0.00    +0.000 Cl
ATOM      7  C   UNL     1       3.575   3.814  17.591  0.00  0.00    +0.000 A 
ATOM      8 CL   UNL     1       3.248   2.108  17.435  0.00  0.00    +0.000 Cl
ENDROOT
BRANCH   4   9
ATOM      9  C   UNL     1       2.297   6.968  19.338  0.00  0.00    +0.000 A 
ATOM     10  N   UNL     1       1.921   6.672  20.594  0.00  0.00    +0.000 NA
ATOM     11  O   UNL     1       1.245   7.768  21.077  0.00  0.00    +0.000 OA
ATOM     12  C   UNL     1       1.258   8.756  20.150  0.00  0.00    +0.000 A 
ATOM     13  C   UNL     1       0.708  10.025  20.302  0.00  0.00    +0.000 A 
ATOM     14  C   UNL     1       0.869  10.906  19.225  0.00  0.00    +0.000 A 
ATOM     15  C   UNL     1       1.534  10.507  18.064  0.00  0.00    +0.000 A 
ATOM     16  C   UNL     1       2.047   9.210  17.935  0.00  0.00    +0.000 A 
ATOM     17  C   UNL     1       1.917   8.314  19.017  0.00  0.00    +0.000 A 
ENDBRANCH   4   9
BRANCH   1  18
ATOM     18  O   UNL     1       5.429   3.483  16.138  0.00  0.00    +0.000 OA
BRANCH  18  19
ATOM     19  C   UNL     1       6.300   4.065  15.166  0.00  0.00    +0.000 C 
BRANCH  19  20
ATOM     20  C   UNL     1       5.556   4.165  13.836  0.00  0.00    +0.000 C 
BRANCH  20  21
ATOM     21  C   UNL     1       6.331   3.545  12.674  0.00  0.00    +0.000 C 
BRANCH  21  23
ATOM     22  O   UNL     1       5.743   1.598  11.358  0.00  0.00    +0.000 OA
ATOM     23  C   UNL     1       5.447   2.706  11.784  0.00  0.00    +0.000 C 
BRANCH  23  24
ATOM     24  O   UNL     1       4.261   3.290  11.510  0.00  0.00    +0.000 OA
ATOM     25  H   UNL     1       4.008   3.256  10.567  0.00  0.00    +0.000 HD
ENDBRANCH  23  24
ENDBRANCH  21  23
ENDBRANCH  20  21
ENDBRANCH  19  20
ENDBRANCH  18  19
ENDBRANCH   1  18
TORSDOF 7
ENDMDL
MODEL 6
REMARK VINA RESULT:      -7.0      4.512      7.912
REMARK  Name = 
REMARK  7 active torsions:
REMARK  status: ('A' for Active; 'I' for Inactive)
REMARK    1  A    between atoms: C_2  and  O_3
REMARK    2  A    between atoms: C_2  and  C_4
REMARK    3  A    between atoms: C_4  and  C_5
REMARK    4  A    between atoms: C_5  and  C_6
REMARK    5  A    between atoms: C_6  and  O_7
REMARK    6  A    between atoms: O_7  and  C_8
REMARK    7  A    between atoms: C_11  and  C_12
REMARK                            x       y       z     vdW  Elec       q    Type
REMARK                         _______ _______ _______ _____ _____    ______ ____
ROOT
ATOM      1  C   UNL     1       3.784   6.083  17.556  0.00  0.00    +0.000 A 
ATOM      2  C   UNL     1       3.609   7.443  17.317  0.00  0.00    +0.000 A 
ATOM      3  C   UNL     1       2.841   8.216  18.182  0.00  0.00    +0.000 A 
ATOM      4  C   UNL     1       2.178   7.653  19.285  0.00  0.00    +0.000 A 
ATOM      5  C   UNL     1       2.333   6.270  19.524  0.00  0.00    +0.000 A 
ATOM      6 CL   UNL     1       1.482   5.475  20.821  0.00  0.00    +0.000 Cl
ATOM      7  C   UNL     1       3.154   5.497  18.670  0.00  0.00    +0.000 A 
ATOM      8 CL   UNL     1       3.408   3.796  18.961  0.00  0.00    +0.000 Cl
ENDROOT
BRANCH   4   9
ATOM      9  C   UNL     1       1.378   8.557  20.125  0.00  0.00    +0.000 A 
ATOM     10  N   UNL     1       1.502   8.572  21.464  0.00  0.00    +0.000 NA
ATOM     11  O   UNL     1       0.635   9.530  21.935  0.00  0.00    +0.000 OA
ATOM     12  C   UNL     1       0.025  10.145  20.892  0.00  0.00    +0.000 A 
ATOM     13  C   UNL     1      -0.886  11.192  20.982  0.00  0.00    +0.000 A 
ATOM     14  C   UNL     1      -1.366  11.705  19.770  0.00  0.00    +0.000 A 
ATOM     15  C   UNL     1      -0.954  11.167  18.549  0.00  0.00    +0.000 A 
ATOM     16  C   UNL     1      -0.059  10.091  18.499  0.00  0.00    +0.000 A 
ATOM     17  C   UNL     1       0.457   9.575  19.707  0.00  0.00    +0.000 A 
ENDBRANCH   4   9
BRANCH   1  18
ATOM     18  O   UNL     1       4.549   5.271  16.758  0.00  0.00    +0.000 OA
BRANCH  18  19
ATOM     19  C   UNL     1       5.499   5.909  15.903  0.00  0.00    +0.000 C 
BRANCH  19  20
ATOM     20  C   UNL     1       6.905   5.545  16.371  0.00  0.00    +0.000 C 
BRANCH  20  21
ATOM     21  C   UNL     1       7.288   6.224  17.686  0.00  0.00    +0.000 C 
BRANCH  21  23
ATOM     22  O   UNL     1       7.526   5.564  20.005  0.00  0.00    +0.000 OA
ATOM     23  C   UNL     1       7.211   5.275  18.858  0.00  0.00    +0.000 C 
BRANCH  23  24
ATOM     24  O   UNL     1       6.733   4.057  18.527  0.00  0.00    +0.000 OA
ATOM     25  H   UNL     1       5.886   4.080  18.042  0.00  0.00    +0.000 HD
ENDBRANCH  23  24
ENDBRANCH  21  23
ENDBRANCH  20  21
ENDBRANCH  19  20
ENDBRANCH  18  19
ENDBRANCH   1  18
TORSDOF 7
ENDMDL
MODEL 7
REMARK VINA RESULT:      -6.9      4.942      6.610
REMARK  Name = 
REMARK  7 active torsions:
REMARK  status: ('A' for Active; 'I' for Inactive)
REMARK    1  A    between atoms: C_2  and  O_3
REMARK    2  A    between atoms: C_2  and  C_4
REMARK    3  A    between atoms: C_4  and  C_5
REMARK    4  A    between atoms: C_5  and  C_6
REMARK    5  A    between atoms: C_6  and  O_7
REMARK    6  A    between atoms: O_7  and  C_8
REMARK    7  A    between atoms: C_11  and  C_12
REMARK                            x       y       z     vdW  Elec       q    Type
REMARK                         _______ _______ _______ _____ _____    ______ ____
ROOT
ATOM      1  C   UNL     1       1.086   9.909  19.064  0.00  0.00    +0.000 A 
ATOM      2  C   UNL     1       1.791   9.749  17.874  0.00  0.00    +0.000 A 
ATOM      3  C   UNL     1       2.468   8.563  17.610  0.00  0.00    +0.000 A 
ATOM      4  C   UNL     1       2.510   7.513  18.543  0.00  0.00    +0.000 A 
ATOM      5  C   UNL     1       1.816   7.673  19.762  0.00  0.00    +0.000 A 
ATOM      6 CL   UNL     1       1.883   6.457  21.008  0.00  0.00    +0.000 Cl
ATOM      7  C   UNL     1       1.089   8.862  20.006  0.00  0.00    +0.000 A 
ATOM      8 CL   UNL     1       0.180   9.077  21.479  0.00  0.00    +0.000 Cl
ENDROOT
BRANCH   4   9
ATOM      9  C   UNL     1       3.269   6.310  18.171  0.00  0.00    +0.000 A 
ATOM     10  N   UNL     1       4.589   6.357  17.919  0.00  0.00    +0.000 NA
ATOM     11  O   UNL     1       4.985   5.074  17.621  0.00  0.00    +0.000 OA
ATOM     12  C   UNL     1       3.931   4.231  17.749  0.00  0.00    +0.000 A 
ATOM     13  C   UNL     1       3.963   2.852  17.567  0.00  0.00    +0.000 A 
ATOM     14  C   UNL     1       2.760   2.168  17.788  0.00  0.00    +0.000 A 
ATOM     15  C   UNL     1       1.600   2.853  18.153  0.00  0.00    +0.000 A 
ATOM     16  C   UNL     1       1.600   4.247  18.296  0.00  0.00    +0.000 A 
ATOM     17  C   UNL     1       2.805   4.954  18.102  0.00  0.00    +0.000 A 
ENDBRANCH   4   9
BRANCH   1  18
ATOM     18  O   UNL     1       0.378  11.042  19.373  0.00  0.00    +0.000 OA
BRANCH  18  19
ATOM     19  C   UNL     1      -0.730  11.366  18.532  0.00  0.00    +0.000 C 
BRANCH  19  20
ATOM     20  C   UNL     1      -1.415  10.072  18.100  0.00  0.00    +0.000 C 
BRANCH  20  21
ATOM     21  C   UNL     1      -2.895  10.264  17.772  0.00  0.00    +0.000 C 
BRANCH  21  23
ATOM     22  O   UNL     1      -2.636  10.505  15.375  0.00  0.00    +0.000 OA
ATOM     23  C   UNL     1      -3.099  10.922  16.428  0.00  0.00    +0.000 C 
BRANCH  23  24
ATOM     24  O   UNL     1      -3.874  12.025  16.488  0.00  0.00    +0.000 OA
ATOM     25  H   UNL     1      -4.800  11.877  16.214  0.00  0.00    +0.000 HD
ENDBRANCH  23  24
ENDBRANCH  21  23
ENDBRANCH  20  21
ENDBRANCH  19  20
ENDBRANCH  18  19
ENDBRANCH   1  18
TORSDOF 7
ENDMDL
MODEL 8
REMARK VINA RESULT:      -6.9      2.692      7.006
REMARK  Name = 
REMARK  7 active torsions:
REMARK  status: ('A' for Active; 'I' for Inactive)
REMARK    1  A    between atoms: C_2  and  O_3
REMARK    2  A    between atoms: C_2  and  C_4
REMARK    3  A    between atoms: C_4  and  C_5
REMARK    4  A    between atoms: C_5  and  C_6
REMARK    5  A    between atoms: C_6  and  O_7
REMARK    6  A    between atoms: O_7  and  C_8
REMARK    7  A    between atoms: C_11  and  C_12
REMARK                            x       y       z     vdW  Elec       q    Type
REMARK                         _______ _______ _______ _____ _____    ______ ____
ROOT
ATOM      1  C   UNL     1       6.058   5.160  15.708  0.00  0.00    +0.000 A 
ATOM      2  C   UNL     1       5.118   4.136  15.645  0.00  0.00    +0.000 A 
ATOM      3  C   UNL     1       4.612   3.572  16.812  0.00  0.00    +0.000 A 
ATOM      4  C   UNL     1       5.063   3.971  18.081  0.00  0.00    +0.000 A 
ATOM      5  C   UNL     1       6.032   4.996  18.155  0.00  0.00    +0.000 A 
ATOM      6 CL   UNL     1       6.705   5.496  19.683  0.00  0.00    +0.000 Cl
ATOM      7  C   UNL     1       6.508   5.600  16.968  0.00  0.00    +0.000 A 
ATOM      8 CL   UNL     1       7.669   6.901  17.021  0.00  0.00    +0.000 Cl
ENDROOT
BRANCH   4   9
ATOM      9  C   UNL     1       4.475   3.298  19.249  0.00  0.00    +0.000 A 
ATOM     10  N   UNL     1       5.211   2.516  20.058  0.00  0.00    +0.000 NA
ATOM     11  O   UNL     1       4.371   2.062  21.047  0.00  0.00    +0.000 OA
ATOM     12  C   UNL     1       3.141   2.607  20.887  0.00  0.00    +0.000 A 
ATOM     13  C   UNL     1       2.045   2.409  21.721  0.00  0.00    +0.000 A 
ATOM     14  C   UNL     1       0.876   3.104  21.387  0.00  0.00    +0.000 A 
ATOM     15  C   UNL     1       0.828   3.932  20.264  0.00  0.00    +0.000 A 
ATOM     16  C   UNL     1       1.943   4.082  19.429  0.00  0.00    +0.000 A 
ATOM     17  C   UNL     1       3.139   3.411  19.760  0.00  0.00    +0.000 A 
ENDBRANCH   4   9
BRANCH   1  18
ATOM     18  O   UNL     1       6.576   5.776  14.597  0.00  0.00    +0.000 OA
BRANCH  18  19
ATOM     19  C   UNL     1       7.206   4.939  13.625  0.00  0.00    +0.000 C 
BRANCH  19  20
ATOM     20  C   UNL     1       6.158   4.006  13.026  0.00  0.00    +0.000 C 
BRANCH  20  21
ATOM     21  C   UNL     1       6.737   3.064  11.970  0.00  0.00    +0.000 C 
BRANCH  21  23
ATOM     22  O   UNL     1       4.543   2.403  11.180  0.00  0.00    +0.000 OA
ATOM     23  C   UNL     1       5.701   2.102  11.438  0.00  0.00    +0.000 C 
BRANCH  23  24
ATOM     24  O   UNL     1       6.182   0.856  11.244  0.00  0.00    +0.000 OA
ATOM     25  H   UNL     1       5.731   0.168  11.772  0.00  0.00    +0.000 HD
ENDBRANCH  23  24
ENDBRANCH  21  23
ENDBRANCH  20  21
ENDBRANCH  19  20
ENDBRANCH  18  19
ENDBRANCH   1  18
TORSDOF 7
ENDMDL
MODEL 9
REMARK VINA RESULT:      -6.9      3.491      4.480
REMARK  Name = 
REMARK  7 active torsions:
REMARK  status: ('A' for Active; 'I' for Inactive)
REMARK    1  A    between atoms: C_2  and  O_3
REMARK    2  A    between atoms: C_2  and  C_4
REMARK    3  A    between atoms: C_4  and  C_5
REMARK    4  A    between atoms: C_5  and  C_6
REMARK    5  A    between atoms: C_6  and  O_7
REMARK    6  A    between atoms: O_7  and  C_8
REMARK    7  A    between atoms: C_11  and  C_12
REMARK                            x       y       z     vdW  Elec       q    Type
REMARK                         _______ _______ _______ _____ _____    ______ ____
ROOT
ATOM      1  C   UNL     1       2.477   6.640  19.417  0.00  0.00    +0.000 A 
ATOM      2  C   UNL     1       2.792   7.552  18.414  0.00  0.00    +0.000 A 
ATOM      3  C   UNL     1       3.830   7.292  17.526  0.00  0.00    +0.000 A 
ATOM      4  C   UNL     1       4.626   6.139  17.637  0.00  0.00    +0.000 A 
ATOM      5  C   UNL     1       4.328   5.217  18.664  0.00  0.00    +0.000 A 
ATOM      6 CL   UNL     1       5.313   3.803  18.924  0.00  0.00    +0.000 Cl
ATOM      7  C   UNL     1       3.241   5.462  19.535  0.00  0.00    +0.000 A 
ATOM      8 CL   UNL     1       2.813   4.324  20.786  0.00  0.00    +0.000 Cl
ENDROOT
BRANCH   4   9
ATOM      9  C   UNL     1       5.708   5.970  16.656  0.00  0.00    +0.000 A 
ATOM     10  N   UNL     1       6.929   6.500  16.853  0.00  0.00    +0.000 NA
ATOM     11  O   UNL     1       7.698   6.145  15.770  0.00  0.00    +0.000 OA
ATOM     12  C   UNL     1       6.979   5.349  14.942  0.00  0.00    +0.000 A 
ATOM     13  C   UNL     1       7.441   4.765  13.766  0.00  0.00    +0.000 A 
ATOM     14  C   UNL     1       6.535   3.945  13.081  0.00  0.00    +0.000 A 
ATOM     15  C   UNL     1       5.237   3.752  13.559  0.00  0.00    +0.000 A 
ATOM     16  C   UNL     1       4.798   4.383  14.730  0.00  0.00    +0.000 A 
ATOM     17  C   UNL     1       5.701   5.193  15.450  0.00  0.00    +0.000 A 
ENDBRANCH   4   9
BRANCH   1  18
ATOM     18  O   UNL     1       1.451   6.825  20.308  0.00  0.00    +0.000 OA
BRANCH  18  19
ATOM     19  C   UNL     1       1.559   7.932  21.204  0.00  0.00    +0.000 C 
BRANCH  19  20
ATOM     20  C   UNL     1       0.371   8.864  20.981  0.00  0.00    +0.000 C 
BRANCH  20  21
ATOM     21  C   UNL     1      -0.681   8.761  22.086  0.00  0.00    +0.000 C 
BRANCH  21  23
ATOM     22  O   UNL     1       0.499   9.738  23.962  0.00  0.00    +0.000 OA
ATOM     23  C   UNL     1      -0.448   9.766  23.188  0.00  0.00    +0.000 C 
BRANCH  23  24
ATOM     24  O   UNL     1      -1.386  10.735  23.231  0.00  0.00    +0.000 OA
ATOM     25  H   UNL     1      -2.237  10.485  22.823  0.00  0.00    +0.000 HD
ENDBRANCH  23  24
ENDBRANCH  21  23
ENDBRANCH  20  21
ENDBRANCH  19  20
ENDBRANCH  18  19
ENDBRANCH   1  18
TORSDOF 7
ENDMDL
