MODEL 1
REMARK VINA RESULT:      -8.4      0.000      0.000
REMARK  Name = 
REMARK  7 active torsions:
REMARK  status: ('A' for Active; 'I' for Inactive)
REMARK    1  A    between atoms: C_1  and  N_2
REMARK    2  A    between atoms: C_4  and  C_5
REMARK    3  A    between atoms: C_9  and  O_10
REMARK    4  A    between atoms: O_10  and  C_11
REMARK    5  A    between atoms: C_16  and  C_17
REMARK    6  A    between atoms: N_19  and  C_20
REMARK    7  A    between atoms: C_23  and  C_24
REMARK                            x       y       z     vdW  Elec       q    Type
REMARK                         _______ _______ _______ _____ _____    ______ ____
ROOT
ATOM      1  C   UNL     1       0.567   9.892  18.593  0.00  0.00    +0.000 C 
ATOM      2  O   UNL     1       0.942  11.048  18.468  0.00  0.00    +0.000 OA
ATOM      3  N   UNL     1      -0.756   9.493  18.673  0.00  0.00    +0.000 N 
ATOM      4  H   UNL     1      -0.942   8.531  18.915  0.00  0.00    +0.000 HD
ENDROOT
BRANCH   1  10
ATOM      5  C   UNL     1       1.246   8.359  21.179  0.00  0.00    +0.000 C 
ATOM      6  N   UNL     1       1.791   8.117  19.861  0.00  0.00    +0.000 N 
ATOM      7  N   UNL     1       2.691   7.129  19.705  0.00  0.00    +0.000 NA
ATOM      8  C   UNL     1       3.082   7.220  18.429  0.00  0.00    +0.000 A 
ATOM      9  C   UNL     1       2.364   8.242  17.761  0.00  0.00    +0.000 A 
ATOM     10  C   UNL     1       1.519   8.804  18.700  0.00  0.00    +0.000 A 
BRANCH   8  11
ATOM     11  C   UNL     1       4.116   6.355  17.871  0.00  0.00    +0.000 A 
ATOM     12  C   UNL     1       4.607   5.270  18.609  0.00  0.00    +0.000 A 
ATOM     13  C   UNL     1       5.600   4.453  18.081  0.00  0.00    +0.000 A 
ATOM     14  C   UNL     1       6.106   4.712  16.806  0.00  0.00    +0.000 A 
ATOM     15  C   UNL     1       5.615   5.775  16.048  0.00  0.00    +0.000 A 
ATOM     16  C   UNL     1       4.632   6.608  16.589  0.00  0.00    +0.000 A 
BRANCH  15  17
ATOM     17  O   UNL     1       6.189   5.931  14.818  0.00  0.00    +0.000 OA
BRANCH  17  18
ATOM     18  C   UNL     1       6.773   4.764  14.264  0.00  0.00    +0.000 C 
ATOM     19  F   UNL     1       5.828   4.080  13.573  0.00  0.00    +0.000 F 
ATOM     20  F   UNL     1       7.704   5.164  13.361  0.00  0.00    +0.000 F 
ENDBRANCH  17  18
ENDBRANCH  15  17
ENDBRANCH   8  11
ENDBRANCH   1  10
BRANCH   3  21
ATOM     21  C   UNL     1      -1.893  10.308  18.500  0.00  0.00    +0.000 A 
ATOM     22  C   UNL     1      -2.846  10.080  17.510  0.00  0.00    +0.000 A 
ATOM     23  C   UNL     1      -3.998  10.863  17.438  0.00  0.00    +0.000 A 
ATOM     24  C   UNL     1      -4.241  11.878  18.369  0.00  0.00    +0.000 A 
ATOM     25  C   UNL     1      -3.227  12.171  19.295  0.00  0.00    +0.000 A 
ATOM     26  C   UNL     1      -2.081  11.374  19.383  0.00  0.00    +0.000 A 
BRANCH  24  27
ATOM     27  C   UNL     1      -5.572  12.626  18.394  0.00  0.00    +0.000 C 
ATOM     28  C   UNL     1      -6.795  11.821  17.861  0.00  0.00    +0.000 C 
ATOM     29  N   UNL     1      -7.140  10.664  18.719  0.00  0.00    +0.000 NA
ATOM     30  C   UNL     1      -7.405  11.179  20.075  0.00  0.00    +0.000 C 
ATOM     31  C   UNL     1      -6.266  12.054  20.619  0.00  0.00    +0.000 C 
ATOM     32  O   UNL     1      -5.887  13.110  19.721  0.00  0.00    +0.000 OA
ATOM     33  H   UNL     1      -6.325  10.052  18.766  0.00  0.00    +0.000 HD
ENDBRANCH  24  27
ENDBRANCH   3  21
TORSDOF 6
ENDMDL
MODEL 2
REMARK VINA RESULT:      -8.2      1.972      2.312
REMARK  Name = 
REMARK  7 active torsions:
REMARK  status: ('A' for Active; 'I' for Inactive)
REMARK    1  A    between atoms: C_1  and  N_2
REMARK    2  A    between atoms: C_4  and  C_5
REMARK    3  A    between atoms: C_9  and  O_10
REMARK    4  A    between atoms: O_10  and  C_11
REMARK    5  A    between atoms: C_16  and  C_17
REMARK    6  A    between atoms: N_19  and  C_20
REMARK    7  A    between atoms: C_23  and  C_24
REMARK                            x       y       z     vdW  Elec       q    Type
REMARK                         _______ _______ _______ _____ _____    ______ ____
ROOT
ATOM      1  C   UNL     1       0.326  10.089  18.695  0.00  0.00    +0.000 C 
ATOM      2  O   UNL     1       0.715  11.248  18.708  0.00  0.00    +0.000 OA
ATOM      3  N   UNL     1      -1.001   9.700  18.689  0.00  0.00    +0.000 N 
ATOM      4  H   UNL     1      -1.204   8.720  18.819  0.00  0.00    +0.000 HD
ENDROOT
BRANCH   1  10
ATOM      5  C   UNL     1       1.329   8.639  21.223  0.00  0.00    +0.000 C 
ATOM      6  N   UNL     1       1.683   8.336  19.853  0.00  0.00    +0.000 N 
ATOM      7  N   UNL     1       2.535   7.322  19.615  0.00  0.00    +0.000 NA
ATOM      8  C   UNL     1       2.749   7.357  18.295  0.00  0.00    +0.000 A 
ATOM      9  C   UNL     1       1.963   8.370  17.692  0.00  0.00    +0.000 A 
ATOM     10  C   UNL     1       1.265   8.985  18.714  0.00  0.00    +0.000 A 
BRANCH   8  11
ATOM     11  C   UNL     1       3.680   6.449  17.636  0.00  0.00    +0.000 A 
ATOM     12  C   UNL     1       4.750   6.953  16.884  0.00  0.00    +0.000 A 
ATOM     13  C   UNL     1       5.631   6.086  16.247  0.00  0.00    +0.000 A 
ATOM     14  C   UNL     1       5.452   4.707  16.362  0.00  0.00    +0.000 A 
ATOM     15  C   UNL     1       4.405   4.186  17.123  0.00  0.00    +0.000 A 
ATOM     16  C   UNL     1       3.508   5.059  17.745  0.00  0.00    +0.000 A 
BRANCH  15  17
ATOM     17  O   UNL     1       4.329   2.823  17.158  0.00  0.00    +0.000 OA
BRANCH  17  18
ATOM     18  C   UNL     1       3.358   2.288  18.044  0.00  0.00    +0.000 C 
ATOM     19  F   UNL     1       2.221   2.030  17.353  0.00  0.00    +0.000 F 
ATOM     20  F   UNL     1       3.827   1.093  18.487  0.00  0.00    +0.000 F 
ENDBRANCH  17  18
ENDBRANCH  15  17
ENDBRANCH   8  11
ENDBRANCH   1  10
BRANCH   3  21
ATOM     21  C   UNL     1      -2.126  10.542  18.568  0.00  0.00    +0.000 A 
ATOM     22  C   UNL     1      -3.061  10.417  17.543  0.00  0.00    +0.000 A 
ATOM     23  C   UNL     1      -4.202  11.219  17.520  0.00  0.00    +0.000 A 
ATOM     24  C   UNL     1      -4.452  12.149  18.535  0.00  0.00    +0.000 A 
ATOM     25  C   UNL     1      -3.454  12.343  19.504  0.00  0.00    +0.000 A 
ATOM     26  C   UNL     1      -2.320  11.526  19.541  0.00  0.00    +0.000 A 
BRANCH  24  27
ATOM     27  C   UNL     1      -5.775  12.909  18.601  0.00  0.00    +0.000 C 
ATOM     28  C   UNL     1      -7.015  12.129  18.071  0.00  0.00    +0.000 C 
ATOM     29  N   UNL     1      -7.357  10.955  18.906  0.00  0.00    +0.000 NA
ATOM     30  C   UNL     1      -7.593  11.438  20.279  0.00  0.00    +0.000 C 
ATOM     31  C   UNL     1      -6.436  12.288  20.824  0.00  0.00    +0.000 C 
ATOM     32  O   UNL     1      -6.062  13.362  19.945  0.00  0.00    +0.000 OA
ATOM     33  H   UNL     1      -6.548  10.333  18.923  0.00  0.00    +0.000 HD
ENDBRANCH  24  27
ENDBRANCH   3  21
TORSDOF 6
ENDMDL
MODEL 3
REMARK VINA RESULT:      -8.0      4.276      5.565
REMARK  Name = 
REMARK  7 active torsions:
REMARK  status: ('A' for Active; 'I' for Inactive)
REMARK    1  A    between atoms: C_1  and  N_2
REMARK    2  A    between atoms: C_4  and  C_5
REMARK    3  A    between atoms: C_9  and  O_10
REMARK    4  A    between atoms: O_10  and  C_11
REMARK    5  A    between atoms: C_16  and  C_17
REMARK    6  A    between atoms: N_19  and  C_20
REMARK    7  A    between atoms: C_23  and  C_24
REMARK                            x       y       z     vdW  Elec       q    Type
REMARK                         _______ _______ _______ _____ _____    ______ ____
ROOT
ATOM      1  C   UNL     1       0.965  10.507  18.767  0.00  0.00    +0.000 C 
ATOM      2  O   UNL     1      -0.224  10.699  18.557  0.00  0.00    +0.000 OA
ATOM      3  N   UNL     1       1.938  11.490  18.765  0.00  0.00    +0.000 N 
ATOM      4  H   UNL     1       2.903  11.196  18.811  0.00  0.00    +0.000 HD
ENDROOT
BRANCH   1  10
ATOM      5  C   UNL     1       0.964   9.075  21.496  0.00  0.00    +0.000 C 
ATOM      6  N   UNL     1       1.444   8.543  20.239  0.00  0.00    +0.000 N 
ATOM      7  N   UNL     1       1.950   7.296  20.217  0.00  0.00    +0.000 NA
ATOM      8  C   UNL     1       2.401   7.132  18.968  0.00  0.00    +0.000 A 
ATOM      9  C   UNL     1       2.109   8.273  18.181  0.00  0.00    +0.000 A 
ATOM     10  C   UNL     1       1.474   9.173  19.017  0.00  0.00    +0.000 A 
BRANCH   8  11
ATOM     11  C   UNL     1       3.091   5.919  18.546  0.00  0.00    +0.000 A 
ATOM     12  C   UNL     1       2.427   4.957  17.773  0.00  0.00    +0.000 A 
ATOM     13  C   UNL     1       3.084   3.796  17.380  0.00  0.00    +0.000 A 
ATOM     14  C   UNL     1       4.412   3.590  17.755  0.00  0.00    +0.000 A 
ATOM     15  C   UNL     1       5.096   4.545  18.507  0.00  0.00    +0.000 A 
ATOM     16  C   UNL     1       4.429   5.702  18.918  0.00  0.00    +0.000 A 
BRANCH  15  17
ATOM     17  O   UNL     1       6.390   4.231  18.815  0.00  0.00    +0.000 OA
BRANCH  17  18
ATOM     18  C   UNL     1       7.379   5.018  18.170  0.00  0.00    +0.000 C 
ATOM     19  F   UNL     1       8.151   5.617  19.109  0.00  0.00    +0.000 F 
ATOM     20  F   UNL     1       8.186   4.171  17.482  0.00  0.00    +0.000 F 
ENDBRANCH  17  18
ENDBRANCH  15  17
ENDBRANCH   8  11
ENDBRANCH   1  10
BRANCH   3  21
ATOM     21  C   UNL     1       1.731  12.880  18.653  0.00  0.00    +0.000 A 
ATOM     22  C   UNL     1       0.524  13.496  18.976  0.00  0.00    +0.000 A 
ATOM     23  C   UNL     1       0.400  14.885  18.932  0.00  0.00    +0.000 A 
ATOM     24  C   UNL     1       1.487  15.697  18.588  0.00  0.00    +0.000 A 
ATOM     25  C   UNL     1       2.666  15.064  18.160  0.00  0.00    +0.000 A 
ATOM     26  C   UNL     1       2.799  13.673  18.225  0.00  0.00    +0.000 A 
BRANCH  24  27
ATOM     27  C   UNL     1       1.403  17.217  18.697  0.00  0.00    +0.000 C 
ATOM     28  C   UNL     1       0.295  17.753  19.653  0.00  0.00    +0.000 C 
ATOM     29  N   UNL     1       0.546  17.413  21.072  0.00  0.00    +0.000 NA
ATOM     30  C   UNL     1       1.863  17.966  21.437  0.00  0.00    +0.000 C 
ATOM     31  C   UNL     1       2.981  17.540  20.476  0.00  0.00    +0.000 C 
ATOM     32  O   UNL     1       2.669  17.794  19.097  0.00  0.00    +0.000 OA
ATOM     33  H   UNL     1       0.597  16.396  21.148  0.00  0.00    +0.000 HD
ENDBRANCH  24  27
ENDBRANCH   3  21
TORSDOF 6
ENDMDL
MODEL 4
REMARK VINA RESULT:      -7.9      2.540      3.172
REMARK  Name = 
REMARK  7 active torsions:
REMARK  status: ('A' for Active; 'I' for Inactive)
REMARK    1  A    between atoms: C_1  and  N_2
REMARK    2  A    between atoms: C_4  and  C_5
REMARK    3  A    between atoms: C_9  and  O_10
REMARK    4  A    between atoms: O_10  and  C_11
REMARK    5  A    between atoms: C_16  and  C_17
REMARK    6  A    between atoms: N_19  and  C_20
REMARK    7  A    between atoms: C_23  and  C_24
REMARK                            x       y       z     vdW  Elec       q    Type
REMARK                         _______ _______ _______ _____ _____    ______ ____
ROOT
ATOM      1  C   UNL     1       1.576   8.033  20.063  0.00  0.00    +0.000 C 
ATOM      2  O   UNL     1       1.221   7.975  21.231  0.00  0.00    +0.000 OA
ATOM      3  N   UNL     1       1.183   9.009  19.164  0.00  0.00    +0.000 N 
ATOM      4  H   UNL     1       1.426   8.878  18.193  0.00  0.00    +0.000 HD
ENDROOT
BRANCH   1  10
ATOM      5  C   UNL     1       1.393   5.002  20.587  0.00  0.00    +0.000 C 
ATOM      6  N   UNL     1       2.340   5.675  19.725  0.00  0.00    +0.000 N 
ATOM      7  N   UNL     1       3.251   4.938  19.065  0.00  0.00    +0.000 NA
ATOM      8  C   UNL     1       4.036   5.831  18.452  0.00  0.00    +0.000 A 
ATOM      9  C   UNL     1       3.563   7.147  18.681  0.00  0.00    +0.000 A 
ATOM     10  C   UNL     1       2.453   7.027  19.496  0.00  0.00    +0.000 A 
BRANCH   8  11
ATOM     11  C   UNL     1       5.203   5.433  17.674  0.00  0.00    +0.000 A 
ATOM     12  C   UNL     1       6.340   4.920  18.313  0.00  0.00    +0.000 A 
ATOM     13  C   UNL     1       7.457   4.551  17.571  0.00  0.00    +0.000 A 
ATOM     14  C   UNL     1       7.443   4.688  16.183  0.00  0.00    +0.000 A 
ATOM     15  C   UNL     1       6.313   5.178  15.527  0.00  0.00    +0.000 A 
ATOM     16  C   UNL     1       5.199   5.567  16.275  0.00  0.00    +0.000 A 
BRANCH  15  17
ATOM     17  O   UNL     1       6.419   5.269  14.168  0.00  0.00    +0.000 OA
BRANCH  17  18
ATOM     18  C   UNL     1       6.339   4.040  13.465  0.00  0.00    +0.000 C 
ATOM     19  F   UNL     1       5.051   3.814  13.110  0.00  0.00    +0.000 F 
ATOM     20  F   UNL     1       7.042   4.185  12.313  0.00  0.00    +0.000 F 
ENDBRANCH  17  18
ENDBRANCH  15  17
ENDBRANCH   8  11
ENDBRANCH   1  10
BRANCH   3  21
ATOM     21  C   UNL     1       0.423  10.161  19.450  0.00  0.00    +0.000 A 
ATOM     22  C   UNL     1      -0.924  10.284  19.115  0.00  0.00    +0.000 A 
ATOM     23  C   UNL     1      -1.653  11.410  19.500  0.00  0.00    +0.000 A 
ATOM     24  C   UNL     1      -1.061  12.431  20.252  0.00  0.00    +0.000 A 
ATOM     25  C   UNL     1       0.320  12.349  20.491  0.00  0.00    +0.000 A 
ATOM     26  C   UNL     1       1.048  11.212  20.126  0.00  0.00    +0.000 A 
BRANCH  24  27
ATOM     27  C   UNL     1      -1.893  13.582  20.813  0.00  0.00    +0.000 C 
ATOM     28  C   UNL     1      -3.366  13.222  21.170  0.00  0.00    +0.000 C 
ATOM     29  N   UNL     1      -3.469  12.265  22.295  0.00  0.00    +0.000 NA
ATOM     30  C   UNL     1      -2.783  12.865  23.454  0.00  0.00    +0.000 C 
ATOM     31  C   UNL     1      -1.351  13.318  23.137  0.00  0.00    +0.000 C 
ATOM     32  O   UNL     1      -1.271  14.168  21.981  0.00  0.00    +0.000 OA
ATOM     33  H   UNL     1      -2.967  11.416  22.033  0.00  0.00    +0.000 HD
ENDBRANCH  24  27
ENDBRANCH   3  21
TORSDOF 6
ENDMDL
MODEL 5
REMARK VINA RESULT:      -7.9      2.507      2.984
REMARK  Name = 
REMARK  7 active torsions:
REMARK  status: ('A' for Active; 'I' for Inactive)
REMARK    1  A    between atoms: C_1  and  N_2
REMARK    2  A    between atoms: C_4  and  C_5
REMARK    3  A    between atoms: C_9  and  O_10
REMARK    4  A    between atoms: O_10  and  C_11
REMARK    5  A    between atoms: C_16  and  C_17
REMARK    6  A    between atoms: N_19  and  C_20
REMARK    7  A    between atoms: C_23  and  C_24
REMARK                            x       y       z     vdW  Elec       q    Type
REMARK                         _______ _______ _______ _____ _____    ______ ____
ROOT
ATOM      1  C   UNL     1       0.901  10.200  19.035  0.00  0.00    +0.000 C 
ATOM      2  O   UNL     1       1.362  11.238  18.584  0.00  0.00    +0.000 OA
ATOM      3  N   UNL     1      -0.305  10.094  19.704  0.00  0.00    +0.000 N 
ATOM      4  H   UNL     1      -0.517   9.215  20.154  0.00  0.00    +0.000 HD
ENDROOT
BRANCH   1  10
ATOM      5  C   UNL     1       1.373   8.200  21.333  0.00  0.00    +0.000 C 
ATOM      6  N   UNL     1       1.807   8.059  19.960  0.00  0.00    +0.000 N 
ATOM      7  N   UNL     1       2.490   6.955  19.609  0.00  0.00    +0.000 NA
ATOM      8  C   UNL     1       2.841   7.160  18.334  0.00  0.00    +0.000 A 
ATOM      9  C   UNL     1       2.308   8.386  17.864  0.00  0.00    +0.000 A 
ATOM     10  C   UNL     1       1.627   8.950  18.926  0.00  0.00    +0.000 A 
BRANCH   8  11
ATOM     11  C   UNL     1       3.663   6.210  17.593  0.00  0.00    +0.000 A 
ATOM     12  C   UNL     1       4.669   6.665  16.731  0.00  0.00    +0.000 A 
ATOM     13  C   UNL     1       5.446   5.759  16.017  0.00  0.00    +0.000 A 
ATOM     14  C   UNL     1       5.224   4.389  16.164  0.00  0.00    +0.000 A 
ATOM     15  C   UNL     1       4.240   3.916  17.033  0.00  0.00    +0.000 A 
ATOM     16  C   UNL     1       3.447   4.829  17.734  0.00  0.00    +0.000 A 
BRANCH  15  17
ATOM     17  O   UNL     1       4.113   2.557  17.091  0.00  0.00    +0.000 OA
BRANCH  17  18
ATOM     18  C   UNL     1       3.318   2.063  18.156  0.00  0.00    +0.000 C 
ATOM     19  F   UNL     1       2.058   1.846  17.706  0.00  0.00    +0.000 F 
ATOM     20  F   UNL     1       3.820   0.852  18.511  0.00  0.00    +0.000 F 
ENDBRANCH  17  18
ENDBRANCH  15  17
ENDBRANCH   8  11
ENDBRANCH   1  10
BRANCH   3  21
ATOM     21  C   UNL     1      -1.267  11.111  19.873  0.00  0.00    +0.000 A 
ATOM     22  C   UNL     1      -2.321  11.314  18.984  0.00  0.00    +0.000 A 
ATOM     23  C   UNL     1      -3.295  12.277  19.245  0.00  0.00    +0.000 A 
ATOM     24  C   UNL     1      -3.257  13.046  20.413  0.00  0.00    +0.000 A 
ATOM     25  C   UNL     1      -2.135  12.911  21.248  0.00  0.00    +0.000 A 
ATOM     26  C   UNL     1      -1.169  11.931  21.000  0.00  0.00    +0.000 A 
BRANCH  24  27
ATOM     27  C   UNL     1      -4.405  13.983  20.781  0.00  0.00    +0.000 C 
ATOM     28  C   UNL     1      -5.830  13.363  20.660  0.00  0.00    +0.000 C 
ATOM     29  N   UNL     1      -6.069  12.275  21.637  0.00  0.00    +0.000 NA
ATOM     30  C   UNL     1      -5.854  12.832  22.985  0.00  0.00    +0.000 C 
ATOM     31  C   UNL     1      -4.497  13.533  23.137  0.00  0.00    +0.000 C 
ATOM     32  O   UNL     1      -4.251  14.516  22.117  0.00  0.00    +0.000 OA
ATOM     33  H   UNL     1      -5.369  11.550  21.478  0.00  0.00    +0.000 HD
ENDBRANCH  24  27
ENDBRANCH   3  21
TORSDOF 6
ENDMDL
MODEL 6
REMARK VINA RESULT:      -7.9      3.572      5.293
REMARK  Name = 
REMARK  7 active torsions:
REMARK  status: ('A' for Active; 'I' for Inactive)
REMARK    1  A    between atoms: C_1  and  N_2
REMARK    2  A    between atoms: C_4  and  C_5
REMARK    3  A    between atoms: C_9  and  O_10
REMARK    4  A    between atoms: O_10  and  C_11
REMARK    5  A    between atoms: C_16  and  C_17
REMARK    6  A    between atoms: N_19  and  C_20
REMARK    7  A    between atoms: C_23  and  C_24
REMARK                            x       y       z     vdW  Elec       q    Type
REMARK                         _______ _______ _______ _____ _____    ______ ____
ROOT
ATOM      1  C   UNL     1       3.580   6.411  18.407  0.00  0.00    +0.000 C 
ATOM      2  O   UNL     1       3.343   5.916  19.499  0.00  0.00    +0.000 OA
ATOM      3  N   UNL     1       2.973   7.549  17.905  0.00  0.00    +0.000 N 
ATOM      4  H   UNL     1       3.143   7.785  16.938  0.00  0.00    +0.000 HD
ENDROOT
BRANCH   1  10
ATOM      5  C   UNL     1       6.364   5.347  19.193  0.00  0.00    +0.000 C 
ATOM      6  N   UNL     1       5.765   5.315  17.876  0.00  0.00    +0.000 N 
ATOM      7  N   UNL     1       6.462   4.772  16.862  0.00  0.00    +0.000 NA
ATOM      8  C   UNL     1       5.710   4.983  15.777  0.00  0.00    +0.000 A 
ATOM      9  C   UNL     1       4.491   5.610  16.133  0.00  0.00    +0.000 A 
ATOM     10  C   UNL     1       4.535   5.804  17.500  0.00  0.00    +0.000 A 
BRANCH   8  11
ATOM     11  C   UNL     1       6.150   4.597  14.441  0.00  0.00    +0.000 A 
ATOM     12  C   UNL     1       7.393   5.021  13.954  0.00  0.00    +0.000 A 
ATOM     13  C   UNL     1       7.807   4.662  12.676  0.00  0.00    +0.000 A 
ATOM     14  C   UNL     1       6.981   3.870  11.877  0.00  0.00    +0.000 A 
ATOM     15  C   UNL     1       5.749   3.421  12.352  0.00  0.00    +0.000 A 
ATOM     16  C   UNL     1       5.326   3.800  13.628  0.00  0.00    +0.000 A 
BRANCH  15  17
ATOM     17  O   UNL     1       5.028   2.656  11.479  0.00  0.00    +0.000 OA
BRANCH  17  18
ATOM     18  C   UNL     1       3.738   3.150  11.156  0.00  0.00    +0.000 C 
ATOM     19  F   UNL     1       3.856   4.401  10.647  0.00  0.00    +0.000 F 
ATOM     20  F   UNL     1       3.241   2.370  10.162  0.00  0.00    +0.000 F 
ENDBRANCH  17  18
ENDBRANCH  15  17
ENDBRANCH   8  11
ENDBRANCH   1  10
BRANCH   3  21
ATOM     21  C   UNL     1       2.086   8.403  18.592  0.00  0.00    +0.000 A 
ATOM     22  C   UNL     1       1.365   9.415  17.961  0.00  0.00    +0.000 A 
ATOM     23  C   UNL     1       0.435  10.174  18.671  0.00  0.00    +0.000 A 
ATOM     24  C   UNL     1       0.182   9.926  20.024  0.00  0.00    +0.000 A 
ATOM     25  C   UNL     1       0.988   8.979  20.677  0.00  0.00    +0.000 A 
ATOM     26  C   UNL     1       1.906   8.202  19.963  0.00  0.00    +0.000 A 
BRANCH  24  27
ATOM     27  C   UNL     1      -0.948  10.641  20.761  0.00  0.00    +0.000 C 
ATOM     28  C   UNL     1      -0.534  11.340  22.090  0.00  0.00    +0.000 C 
ATOM     29  N   UNL     1       0.390  12.479  21.878  0.00  0.00    +0.000 NA
ATOM     30  C   UNL     1      -0.279  13.432  20.974  0.00  0.00    +0.000 C 
ATOM     31  C   UNL     1      -0.787  12.779  19.681  0.00  0.00    +0.000 C 
ATOM     32  O   UNL     1      -1.601  11.618  19.916  0.00  0.00    +0.000 OA
ATOM     33  H   UNL     1       1.223  12.125  21.407  0.00  0.00    +0.000 HD
ENDBRANCH  24  27
ENDBRANCH   3  21
TORSDOF 6
ENDMDL
MODEL 7
REMARK VINA RESULT:      -7.9      5.731     11.328
REMARK  Name = 
REMARK  7 active torsions:
REMARK  status: ('A' for Active; 'I' for Inactive)
REMARK    1  A    between atoms: C_1  and  N_2
REMARK    2  A    between atoms: C_4  and  C_5
REMARK    3  A    between atoms: C_9  and  O_10
REMARK    4  A    between atoms: O_10  and  C_11
REMARK    5  A    between atoms: C_16  and  C_17
REMARK    6  A    between atoms: N_19  and  C_20
REMARK    7  A    between atoms: C_23  and  C_24
REMARK                            x       y       z     vdW  Elec       q    Type
REMARK                         _______ _______ _______ _____ _____    ______ ____
ROOT
ATOM      1  C   UNL     1       0.577   9.817  19.776  0.00  0.00    +0.000 C 
ATOM      2  O   UNL     1       0.341   9.825  18.577  0.00  0.00    +0.000 OA
ATOM      3  N   UNL     1       1.239   8.803  20.446  0.00  0.00    +0.000 N 
ATOM      4  H   UNL     1       1.253   8.839  21.455  0.00  0.00    +0.000 HD
ENDROOT
BRANCH   1  10
ATOM      5  C   UNL     1       2.126  12.435  20.276  0.00  0.00    +0.000 C 
ATOM      6  N   UNL     1       0.837  12.074  20.825  0.00  0.00    +0.000 N 
ATOM      7  N   UNL     1       0.216  12.943  21.642  0.00  0.00    +0.000 NA
ATOM      8  C   UNL     1      -0.876  12.297  22.064  0.00  0.00    +0.000 A 
ATOM      9  C   UNL     1      -0.970  11.026  21.446  0.00  0.00    +0.000 A 
ATOM     10  C   UNL     1       0.141  10.903  20.632  0.00  0.00    +0.000 A 
BRANCH   8  11
ATOM     11  C   UNL     1      -1.797  12.880  23.033  0.00  0.00    +0.000 A 
ATOM     12  C   UNL     1      -1.497  14.103  23.648  0.00  0.00    +0.000 A 
ATOM     13  C   UNL     1      -2.371  14.653  24.580  0.00  0.00    +0.000 A 
ATOM     14  C   UNL     1      -3.554  13.986  24.899  0.00  0.00    +0.000 A 
ATOM     15  C   UNL     1      -3.879  12.777  24.283  0.00  0.00    +0.000 A 
ATOM     16  C   UNL     1      -2.990  12.216  23.362  0.00  0.00    +0.000 A 
BRANCH  15  17
ATOM     17  O   UNL     1      -5.060  12.217  24.678  0.00  0.00    +0.000 OA
BRANCH  17  18
ATOM     18  C   UNL     1      -6.225  12.759  24.077  0.00  0.00    +0.000 C 
ATOM     19  F   UNL     1      -5.984  12.979  22.761  0.00  0.00    +0.000 F 
ATOM     20  F   UNL     1      -7.195  11.812  24.143  0.00  0.00    +0.000 F 
ENDBRANCH  17  18
ENDBRANCH  15  17
ENDBRANCH   8  11
ENDBRANCH   1  10
BRANCH   3  21
ATOM     21  C   UNL     1       1.862   7.679  19.869  0.00  0.00    +0.000 A 
ATOM     22  C   UNL     1       1.837   6.414  20.452  0.00  0.00    +0.000 A 
ATOM     23  C   UNL     1       2.395   5.317  19.795  0.00  0.00    +0.000 A 
ATOM     24  C   UNL     1       2.969   5.449  18.526  0.00  0.00    +0.000 A 
ATOM     25  C   UNL     1       3.086   6.744  17.994  0.00  0.00    +0.000 A 
ATOM     26  C   UNL     1       2.509   7.842  18.641  0.00  0.00    +0.000 A 
BRANCH  24  27
ATOM     27  C   UNL     1       3.431   4.227  17.736  0.00  0.00    +0.000 C 
ATOM     28  C   UNL     1       4.921   3.826  17.948  0.00  0.00    +0.000 C 
ATOM     29  N   UNL     1       5.201   3.356  19.325  0.00  0.00    +0.000 NA
ATOM     30  C   UNL     1       4.309   2.214  19.595  0.00  0.00    +0.000 C 
ATOM     31  C   UNL     1       2.832   2.526  19.320  0.00  0.00    +0.000 C 
ATOM     32  O   UNL     1       2.604   3.071  18.010  0.00  0.00    +0.000 OA
ATOM     33  H   UNL     1       4.957   4.108  19.970  0.00  0.00    +0.000 HD
ENDBRANCH  24  27
ENDBRANCH   3  21
TORSDOF 6
ENDMDL
MODEL 8
REMARK VINA RESULT:      -7.9      4.417      5.465
REMARK  Name = 
REMARK  7 active torsions:
REMARK  status: ('A' for Active; 'I' for Inactive)
REMARK    1  A    between atoms: C_1  and  N_2
REMARK    2  A    between atoms: C_4  and  C_5
REMARK    3  A    between atoms: C_9  and  O_10
REMARK    4  A    between atoms: O_10  and  C_11
REMARK    5  A    between atoms: C_16  and  C_17
REMARK    6  A    between atoms: N_19  and  C_20
REMARK    7  A    between atoms: C_23  and  C_24
REMARK                            x       y       z     vdW  Elec       q    Type
REMARK                         _______ _______ _______ _____ _____    ______ ____
ROOT
ATOM      1  C   UNL     1       0.651  10.720  18.926  0.00  0.00    +0.000 C 
ATOM      2  O   UNL     1      -0.493  10.865  18.522  0.00  0.00    +0.000 OA
ATOM      3  N   UNL     1       1.493  11.751  19.306  0.00  0.00    +0.000 N 
ATOM      4  H   UNL     1       2.459  11.524  19.489  0.00  0.00    +0.000 HD
ENDROOT
BRANCH   1  10
ATOM      5  C   UNL     1       1.104   9.139  21.533  0.00  0.00    +0.000 C 
ATOM      6  N   UNL     1       1.425   8.705  20.190  0.00  0.00    +0.000 N 
ATOM      7  N   UNL     1       1.979   7.492  20.018  0.00  0.00    +0.000 NA
ATOM      8  C   UNL     1       2.254   7.422  18.711  0.00  0.00    +0.000 A 
ATOM      9  C   UNL     1       1.802   8.589  18.047  0.00  0.00    +0.000 A 
ATOM     10  C   UNL     1       1.251   9.404  19.018  0.00  0.00    +0.000 A 
BRANCH   8  11
ATOM     11  C   UNL     1       2.933   6.274  18.121  0.00  0.00    +0.000 A 
ATOM     12  C   UNL     1       4.268   6.375  17.709  0.00  0.00    +0.000 A 
ATOM     13  C   UNL     1       4.911   5.283  17.137  0.00  0.00    +0.000 A 
ATOM     14  C   UNL     1       4.224   4.079  16.977  0.00  0.00    +0.000 A 
ATOM     15  C   UNL     1       2.900   3.954  17.400  0.00  0.00    +0.000 A 
ATOM     16  C   UNL     1       2.249   5.058  17.956  0.00  0.00    +0.000 A 
BRANCH  15  17
ATOM     17  O   UNL     1       2.331   2.730  17.188  0.00  0.00    +0.000 OA
BRANCH  17  18
ATOM     18  C   UNL     1       1.997   2.001  18.359  0.00  0.00    +0.000 C 
ATOM     19  F   UNL     1       2.768   2.434  19.386  0.00  0.00    +0.000 F 
ATOM     20  F   UNL     1       0.714   2.308  18.676  0.00  0.00    +0.000 F 
ENDBRANCH  17  18
ENDBRANCH  15  17
ENDBRANCH   8  11
ENDBRANCH   1  10
BRANCH   3  21
ATOM     21  C   UNL     1       1.156  13.115  19.418  0.00  0.00    +0.000 A 
ATOM     22  C   UNL     1       0.263  13.601  20.370  0.00  0.00    +0.000 A 
ATOM     23  C   UNL     1       0.032  14.971  20.497  0.00  0.00    +0.000 A 
ATOM     24  C   UNL     1       0.708  15.894  19.692  0.00  0.00    +0.000 A 
ATOM     25  C   UNL     1       1.524  15.391  18.665  0.00  0.00    +0.000 A 
ATOM     26  C   UNL     1       1.773  14.020  18.550  0.00  0.00    +0.000 A 
BRANCH  24  27
ATOM     27  C   UNL     1       0.583  17.396  19.936  0.00  0.00    +0.000 C 
ATOM     28  C   UNL     1       1.044  18.300  18.754  0.00  0.00    +0.000 C 
ATOM     29  N   UNL     1       0.181  18.167  17.557  0.00  0.00    +0.000 NA
ATOM     30  C   UNL     1      -1.197  18.499  17.963  0.00  0.00    +0.000 C 
ATOM     31  C   UNL     1      -1.675  17.698  19.181  0.00  0.00    +0.000 C 
ATOM     32  O   UNL     1      -0.769  17.767  20.294  0.00  0.00    +0.000 OA
ATOM     33  H   UNL     1       0.198  17.189  17.264  0.00  0.00    +0.000 HD
ENDBRANCH  24  27
ENDBRANCH   3  21
TORSDOF 6
ENDMDL
MODEL 9
REMARK VINA RESULT:      -7.8      4.672     11.244
REMARK  Name = 
REMARK  7 active torsions:
REMARK  status: ('A' for Active; 'I' for Inactive)
REMARK    1  A    between atoms: C_1  and  N_2
REMARK    2  A    between atoms: C_4  and  C_5
REMARK    3  A    between atoms: C_9  and  O_10
REMARK    4  A    between atoms: O_10  and  C_11
REMARK    5  A    between atoms: C_16  and  C_17
REMARK    6  A    between atoms: N_19  and  C_20
REMARK    7  A    between atoms: C_23  and  C_24
REMARK                            x       y       z     vdW  Elec       q    Type
REMARK                         _______ _______ _______ _____ _____    ______ ____
ROOT
ATOM      1  C   UNL     1       1.136  10.035  18.568  0.00  0.00    +0.000 C 
ATOM      2  O   UNL     1       2.099  10.684  18.186  0.00  0.00    +0.000 OA
ATOM      3  N   UNL     1       1.123   8.662  18.734  0.00  0.00    +0.000 N 
ATOM      4  H   UNL     1       0.234   8.220  18.918  0.00  0.00    +0.000 HD
ENDROOT
BRANCH   1  10
ATOM      5  C   UNL     1       0.457  11.540  21.171  0.00  0.00    +0.000 C 
ATOM      6  N   UNL     1      -0.405  11.363  20.023  0.00  0.00    +0.000 N 
ATOM      7  N   UNL     1      -1.640  11.896  20.055  0.00  0.00    +0.000 NA
ATOM      8  C   UNL     1      -2.222  11.481  18.924  0.00  0.00    +0.000 A 
ATOM      9  C   UNL     1      -1.309  10.731  18.143  0.00  0.00    +0.000 A 
ATOM     10  C   UNL     1      -0.130  10.677  18.863  0.00  0.00    +0.000 A 
BRANCH   8  11
ATOM     11  C   UNL     1      -3.610  11.794  18.606  0.00  0.00    +0.000 A 
ATOM     12  C   UNL     1      -4.117  11.546  17.324  0.00  0.00    +0.000 A 
ATOM     13  C   UNL     1      -5.439  11.854  17.019  0.00  0.00    +0.000 A 
ATOM     14  C   UNL     1      -6.265  12.408  17.997  0.00  0.00    +0.000 A 
ATOM     15  C   UNL     1      -5.784  12.643  19.286  0.00  0.00    +0.000 A 
ATOM     16  C   UNL     1      -4.451  12.351  19.585  0.00  0.00    +0.000 A 
BRANCH  15  17
ATOM     17  O   UNL     1      -6.684  13.190  20.156  0.00  0.00    +0.000 OA
BRANCH  17  18
ATOM     18  C   UNL     1      -7.193  12.308  21.143  0.00  0.00    +0.000 C 
ATOM     19  F   UNL     1      -7.155  11.039  20.667  0.00  0.00    +0.000 F 
ATOM     20  F   UNL     1      -6.348  12.352  22.204  0.00  0.00    +0.000 F 
ENDBRANCH  17  18
ENDBRANCH  15  17
ENDBRANCH   8  11
ENDBRANCH   1  10
BRANCH   3  21
ATOM     21  C   UNL     1       2.225   7.789  18.622  0.00  0.00    +0.000 A 
ATOM     22  C   UNL     1       2.503   6.794  19.557  0.00  0.00    +0.000 A 
ATOM     23  C   UNL     1       3.554   5.901  19.353  0.00  0.00    +0.000 A 
ATOM     24  C   UNL     1       4.340   5.961  18.197  0.00  0.00    +0.000 A 
ATOM     25  C   UNL     1       4.122   7.031  17.314  0.00  0.00    +0.000 A 
ATOM     26  C   UNL     1       3.055   7.915  17.505  0.00  0.00    +0.000 A 
BRANCH  24  27
ATOM     27  C   UNL     1       5.382   4.887  17.893  0.00  0.00    +0.000 C 
ATOM     28  C   UNL     1       6.445   5.280  16.824  0.00  0.00    +0.000 C 
ATOM     29  N   UNL     1       7.335   6.376  17.272  0.00  0.00    +0.000 NA
ATOM     30  C   UNL     1       7.987   5.938  18.519  0.00  0.00    +0.000 C 
ATOM     31  C   UNL     1       6.990   5.456  19.582  0.00  0.00    +0.000 C 
ATOM     32  O   UNL     1       6.075   4.463  19.090  0.00  0.00    +0.000 OA
ATOM     33  H   UNL     1       6.754   7.187  17.486  0.00  0.00    +0.000 HD
ENDBRANCH  24  27
ENDBRANCH   3  21
TORSDOF 6
ENDMDL
