MODEL 1
REMARK VINA RESULT:      -7.9      0.000      0.000
REMARK  Name = 
REMARK  12 active torsions:
REMARK  status: ('A' for Active; 'I' for Inactive)
REMARK    1  A    between atoms: C_1  and  O_2
REMARK    2  A    between atoms: O_2  and  C_3
REMARK    3  A    between atoms: C_6  and  C_7
REMARK    4  A    between atoms: C_7  and  C_8
REMARK    5  A    between atoms: C_7  and  C_9
REMARK    6  A    between atoms: C_7  and  C_10
REMARK    7  A    between atoms: C_12  and  N_13
REMARK    8  A    between atoms: C_14  and  C_16
REMARK    9  A    between atoms: C_18  and  C_19
REMARK   10  A    between atoms: C_20  and  C_21
REMARK   11  A    between atoms: C_21  and  C_22
REMARK   12  A    between atoms: C_24  and  C_25
REMARK                            x       y       z     vdW  Elec       q    Type
REMARK                         _______ _______ _______ _____ _____    ______ ____
ROOT
ATOM      1  N   UNL     1       2.499   6.702  20.144  0.00  0.00    +0.000 N 
ATOM      2  C   UNL     1       1.968   7.750  19.405  0.00  0.00    +0.000 C 
ATOM      3  O   UNL     1       2.099   7.880  18.190  0.00  0.00    +0.000 OA
ATOM      4  H   UNL     1       2.605   6.837  21.141  0.00  0.00    +0.000 HD
ENDROOT
BRANCH   2   5
ATOM      5  C   UNL     1       1.300   8.805  20.156  0.00  0.00    +0.000 A 
ATOM      6  N   UNL     1       0.982   8.584  21.480  0.00  0.00    +0.000 N 
ATOM      7  C   UNL     1       0.319   9.651  22.014  0.00  0.00    +0.000 A 
ATOM      8  C   UNL     1      -0.237   9.604  23.397  0.00  0.00    +0.000 C 
ATOM      9  C   UNL     1       0.301  10.666  21.065  0.00  0.00    +0.000 A 
ATOM     10  C   UNL     1       0.939  10.128  19.877  0.00  0.00    +0.000 A 
ATOM     11  C   UNL     1       1.246  10.842  18.605  0.00  0.00    +0.000 C 
ATOM     12  H   UNL     1       1.201   7.719  21.963  0.00  0.00    +0.000 HD
BRANCH   9  13
ATOM     13  C   UNL     1      -0.274  11.993  21.350  0.00  0.00    +0.000 C 
ATOM     14  C   UNL     1      -1.688  12.311  20.948  0.00  0.00    +0.000 C 
ATOM     15  O   UNL     1       0.375  12.861  21.941  0.00  0.00    +0.000 OA
ENDBRANCH   9  13
ENDBRANCH   2   5
BRANCH   1  21
ATOM     16  C   UNL     1       2.927   4.292  20.095  0.00  0.00    +0.000 A 
ATOM     17  C   UNL     1       3.736   3.225  19.686  0.00  0.00    +0.000 A 
ATOM     18  C   UNL     1       4.716   3.403  18.710  0.00  0.00    +0.000 A 
ATOM     19  C   UNL     1       4.906   4.648  18.099  0.00  0.00    +0.000 A 
ATOM     20  C   UNL     1       4.154   5.729  18.593  0.00  0.00    +0.000 A 
ATOM     21  C   UNL     1       3.200   5.584  19.613  0.00  0.00    +0.000 A 
BRANCH  19  22
ATOM     22  C   UNL     1       5.884   4.792  16.923  0.00  0.00    +0.000 C 
ATOM     23  C   UNL     1       7.332   4.726  17.460  0.00  0.00    +0.000 C 
ATOM     24  C   UNL     1       5.742   3.678  15.861  0.00  0.00    +0.000 C 
ATOM     25  C   UNL     1       5.664   6.142  16.215  0.00  0.00    +0.000 C 
ENDBRANCH  19  22
BRANCH  16  27
ATOM     26  C   UNL     1       1.784   2.830  21.551  0.00  0.00    +0.000 C 
ATOM     27  O   UNL     1       1.875   4.135  20.971  0.00  0.00    +0.000 OA
ENDBRANCH  16  27
ENDBRANCH   1  21
TORSDOF 5
ENDMDL
MODEL 2
REMARK VINA RESULT:      -7.7      0.909      1.309
REMARK  Name = 
REMARK  12 active torsions:
REMARK  status: ('A' for Active; 'I' for Inactive)
REMARK    1  A    between atoms: C_1  and  O_2
REMARK    2  A    between atoms: O_2  and  C_3
REMARK    3  A    between atoms: C_6  and  C_7
REMARK    4  A    between atoms: C_7  and  C_8
REMARK    5  A    between atoms: C_7  and  C_9
REMARK    6  A    between atoms: C_7  and  C_10
REMARK    7  A    between atoms: C_12  and  N_13
REMARK    8  A    between atoms: C_14  and  C_16
REMARK    9  A    between atoms: C_18  and  C_19
REMARK   10  A    between atoms: C_20  and  C_21
REMARK   11  A    between atoms: C_21  and  C_22
REMARK   12  A    between atoms: C_24  and  C_25
REMARK                            x       y       z     vdW  Elec       q    Type
REMARK                         _______ _______ _______ _____ _____    ______ ____
ROOT
ATOM      1  N   UNL     1       2.545   6.988  19.704  0.00  0.00    +0.000 N 
ATOM      2  C   UNL     1       1.884   8.051  19.102  0.00  0.00    +0.000 C 
ATOM      3  O   UNL     1       1.882   8.273  17.893  0.00  0.00    +0.000 OA
ATOM      4  H   UNL     1       2.745   7.060  20.693  0.00  0.00    +0.000 HD
ENDROOT
BRANCH   2   5
ATOM      5  C   UNL     1       1.239   9.007  19.993  0.00  0.00    +0.000 A 
ATOM      6  N   UNL     1       1.040   8.661  21.313  0.00  0.00    +0.000 N 
ATOM      7  C   UNL     1       0.382   9.647  21.989  0.00  0.00    +0.000 A 
ATOM      8  C   UNL     1      -0.057   9.458  23.401  0.00  0.00    +0.000 C 
ATOM      9  C   UNL     1       0.247  10.737  21.137  0.00  0.00    +0.000 A 
ATOM     10  C   UNL     1       0.806  10.330  19.860  0.00  0.00    +0.000 A 
ATOM     11  C   UNL     1       0.979  11.163  18.636  0.00  0.00    +0.000 C 
ATOM     12  H   UNL     1       1.331   7.769  21.699  0.00  0.00    +0.000 HD
BRANCH   9  13
ATOM     13  C   UNL     1      -0.355  12.007  21.581  0.00  0.00    +0.000 C 
ATOM     14  C   UNL     1      -1.842  12.212  21.505  0.00  0.00    +0.000 C 
ATOM     15  O   UNL     1       0.338  12.918  22.046  0.00  0.00    +0.000 OA
ENDBRANCH   9  13
ENDBRANCH   2   5
BRANCH   1  21
ATOM     16  C   UNL     1       2.683   4.673  18.919  0.00  0.00    +0.000 A 
ATOM     17  C   UNL     1       3.452   3.627  18.396  0.00  0.00    +0.000 A 
ATOM     18  C   UNL     1       4.715   3.870  17.855  0.00  0.00    +0.000 A 
ATOM     19  C   UNL     1       5.239   5.166  17.804  0.00  0.00    +0.000 A 
ATOM     20  C   UNL     1       4.496   6.187  18.424  0.00  0.00    +0.000 A 
ATOM     21  C   UNL     1       3.248   5.956  19.023  0.00  0.00    +0.000 A 
BRANCH  19  22
ATOM     22  C   UNL     1       6.563   5.437  17.071  0.00  0.00    +0.000 C 
ATOM     23  C   UNL     1       6.362   5.190  15.559  0.00  0.00    +0.000 C 
ATOM     24  C   UNL     1       7.072   6.887  17.232  0.00  0.00    +0.000 C 
ATOM     25  C   UNL     1       7.662   4.496  17.599  0.00  0.00    +0.000 C 
ENDBRANCH  19  22
BRANCH  16  27
ATOM     26  C   UNL     1       1.044   3.136  19.637  0.00  0.00    +0.000 C 
ATOM     27  O   UNL     1       1.389   4.497  19.359  0.00  0.00    +0.000 OA
ENDBRANCH  16  27
ENDBRANCH   1  21
TORSDOF 5
ENDMDL
MODEL 3
REMARK VINA RESULT:      -7.6      1.535      1.661
REMARK  Name = 
REMARK  12 active torsions:
REMARK  status: ('A' for Active; 'I' for Inactive)
REMARK    1  A    between atoms: C_1  and  O_2
REMARK    2  A    between atoms: O_2  and  C_3
REMARK    3  A    between atoms: C_6  and  C_7
REMARK    4  A    between atoms: C_7  and  C_8
REMARK    5  A    between atoms: C_7  and  C_9
REMARK    6  A    between atoms: C_7  and  C_10
REMARK    7  A    between atoms: C_12  and  N_13
REMARK    8  A    between atoms: C_14  and  C_16
REMARK    9  A    between atoms: C_18  and  C_19
REMARK   10  A    between atoms: C_20  and  C_21
REMARK   11  A    between atoms: C_21  and  C_22
REMARK   12  A    between atoms: C_24  and  C_25
REMARK                            x       y       z     vdW  Elec       q    Type
REMARK                         _______ _______ _______ _____ _____    ______ ____
ROOT
ATOM      1  N   UNL     1       2.558   7.040  18.583  0.00  0.00    +0.000 N 
ATOM      2  C   UNL     1       2.132   7.098  19.903  0.00  0.00    +0.000 C 
ATOM      3  O   UNL     1       2.300   6.203  20.728  0.00  0.00    +0.000 OA
ATOM      4  H   UNL     1       2.118   7.664  17.920  0.00  0.00    +0.000 HD
ENDROOT
BRANCH   2   5
ATOM      5  C   UNL     1       1.349   8.267  20.285  0.00  0.00    +0.000 A 
ATOM      6  N   UNL     1       0.928   8.391  21.592  0.00  0.00    +0.000 N 
ATOM      7  C   UNL     1       0.169   9.513  21.762  0.00  0.00    +0.000 A 
ATOM      8  C   UNL     1      -0.504   9.803  23.061  0.00  0.00    +0.000 C 
ATOM      9  C   UNL     1       0.186  10.229  20.571  0.00  0.00    +0.000 A 
ATOM     10  C   UNL     1       0.952   9.435  19.626  0.00  0.00    +0.000 A 
ATOM     11  C   UNL     1       1.334   9.799  18.232  0.00  0.00    +0.000 C 
ATOM     12  H   UNL     1       1.144   7.707  22.309  0.00  0.00    +0.000 HD
BRANCH   9  13
ATOM     13  C   UNL     1      -0.476  11.539  20.437  0.00  0.00    +0.000 C 
ATOM     14  C   UNL     1      -1.736  11.676  19.628  0.00  0.00    +0.000 C 
ATOM     15  O   UNL     1      -0.030  12.545  21.000  0.00  0.00    +0.000 OA
ENDBRANCH   9  13
ENDBRANCH   2   5
BRANCH   1  21
ATOM     16  C   UNL     1       2.703   4.753  17.721  0.00  0.00    +0.000 A 
ATOM     17  C   UNL     1       3.493   3.674  17.306  0.00  0.00    +0.000 A 
ATOM     18  C   UNL     1       4.852   3.844  17.039  0.00  0.00    +0.000 A 
ATOM     19  C   UNL     1       5.458   5.100  17.161  0.00  0.00    +0.000 A 
ATOM     20  C   UNL     1       4.672   6.148  17.675  0.00  0.00    +0.000 A 
ATOM     21  C   UNL     1       3.317   5.986  18.002  0.00  0.00    +0.000 A 
BRANCH  19  22
ATOM     22  C   UNL     1       6.916   5.302  16.720  0.00  0.00    +0.000 C 
ATOM     23  C   UNL     1       7.836   4.431  17.605  0.00  0.00    +0.000 C 
ATOM     24  C   UNL     1       7.179   4.897  15.253  0.00  0.00    +0.000 C 
ATOM     25  C   UNL     1       7.315   6.782  16.875  0.00  0.00    +0.000 C 
ENDBRANCH  19  22
BRANCH  16  27
ATOM     26  C   UNL     1       0.921   3.534  18.674  0.00  0.00    +0.000 C 
ATOM     27  O   UNL     1       1.339   4.655  17.886  0.00  0.00    +0.000 OA
ENDBRANCH  16  27
ENDBRANCH   1  21
TORSDOF 5
ENDMDL
MODEL 4
REMARK VINA RESULT:      -7.6      1.676      2.014
REMARK  Name = 
REMARK  12 active torsions:
REMARK  status: ('A' for Active; 'I' for Inactive)
REMARK    1  A    between atoms: C_1  and  O_2
REMARK    2  A    between atoms: O_2  and  C_3
REMARK    3  A    between atoms: C_6  and  C_7
REMARK    4  A    between atoms: C_7  and  C_8
REMARK    5  A    between atoms: C_7  and  C_9
REMARK    6  A    between atoms: C_7  and  C_10
REMARK    7  A    between atoms: C_12  and  N_13
REMARK    8  A    between atoms: C_14  and  C_16
REMARK    9  A    between atoms: C_18  and  C_19
REMARK   10  A    between atoms: C_20  and  C_21
REMARK   11  A    between atoms: C_21  and  C_22
REMARK   12  A    between atoms: C_24  and  C_25
REMARK                            x       y       z     vdW  Elec       q    Type
REMARK                         _______ _______ _______ _____ _____    ______ ____
ROOT
ATOM      1  N   UNL     1       2.514   7.024  18.534  0.00  0.00    +0.000 N 
ATOM      2  C   UNL     1       2.172   7.146  19.874  0.00  0.00    +0.000 C 
ATOM      3  O   UNL     1       2.444   6.317  20.739  0.00  0.00    +0.000 OA
ATOM      4  H   UNL     1       1.997   7.579  17.865  0.00  0.00    +0.000 HD
ENDROOT
BRANCH   2   5
ATOM      5  C   UNL     1       1.351   8.295  20.235  0.00  0.00    +0.000 A 
ATOM      6  N   UNL     1       0.903   8.415  21.533  0.00  0.00    +0.000 N 
ATOM      7  C   UNL     1       0.111   9.516  21.684  0.00  0.00    +0.000 A 
ATOM      8  C   UNL     1      -0.593   9.794  22.969  0.00  0.00    +0.000 C 
ATOM      9  C   UNL     1       0.128  10.226  20.489  0.00  0.00    +0.000 A 
ATOM     10  C   UNL     1       0.932   9.448  19.562  0.00  0.00    +0.000 A 
ATOM     11  C   UNL     1       1.329   9.814  18.173  0.00  0.00    +0.000 C 
ATOM     12  H   UNL     1       1.126   7.741  22.258  0.00  0.00    +0.000 HD
BRANCH   9  13
ATOM     13  C   UNL     1      -0.567  11.516  20.335  0.00  0.00    +0.000 C 
ATOM     14  C   UNL     1       0.149  12.805  20.628  0.00  0.00    +0.000 C 
ATOM     15  O   UNL     1      -1.737  11.572  19.944  0.00  0.00    +0.000 OA
ENDBRANCH   9  13
ENDBRANCH   2   5
BRANCH   1  21
ATOM     16  C   UNL     1       2.694   4.737  17.677  0.00  0.00    +0.000 A 
ATOM     17  C   UNL     1       3.500   3.665  17.278  0.00  0.00    +0.000 A 
ATOM     18  C   UNL     1       4.862   3.845  17.038  0.00  0.00    +0.000 A 
ATOM     19  C   UNL     1       5.456   5.106  17.171  0.00  0.00    +0.000 A 
ATOM     20  C   UNL     1       4.652   6.147  17.668  0.00  0.00    +0.000 A 
ATOM     21  C   UNL     1       3.292   5.975  17.969  0.00  0.00    +0.000 A 
BRANCH  19  22
ATOM     22  C   UNL     1       6.921   5.318  16.759  0.00  0.00    +0.000 C 
ATOM     23  C   UNL     1       7.094   4.908  15.280  0.00  0.00    +0.000 C 
ATOM     24  C   UNL     1       7.391   6.785  16.882  0.00  0.00    +0.000 C 
ATOM     25  C   UNL     1       7.848   4.456  17.638  0.00  0.00    +0.000 C 
ENDBRANCH  19  22
BRANCH  16  27
ATOM     26  C   UNL     1       0.900   3.474  18.544  0.00  0.00    +0.000 C 
ATOM     27  O   UNL     1       1.327   4.629  17.815  0.00  0.00    +0.000 OA
ENDBRANCH  16  27
ENDBRANCH   1  21
TORSDOF 5
ENDMDL
MODEL 5
REMARK VINA RESULT:      -7.6      0.574      1.119
REMARK  Name = 
REMARK  12 active torsions:
REMARK  status: ('A' for Active; 'I' for Inactive)
REMARK    1  A    between atoms: C_1  and  O_2
REMARK    2  A    between atoms: O_2  and  C_3
REMARK    3  A    between atoms: C_6  and  C_7
REMARK    4  A    between atoms: C_7  and  C_8
REMARK    5  A    between atoms: C_7  and  C_9
REMARK    6  A    between atoms: C_7  and  C_10
REMARK    7  A    between atoms: C_12  and  N_13
REMARK    8  A    between atoms: C_14  and  C_16
REMARK    9  A    between atoms: C_18  and  C_19
REMARK   10  A    between atoms: C_20  and  C_21
REMARK   11  A    between atoms: C_21  and  C_22
REMARK   12  A    between atoms: C_24  and  C_25
REMARK                            x       y       z     vdW  Elec       q    Type
REMARK                         _______ _______ _______ _____ _____    ______ ____
ROOT
ATOM      1  N   UNL     1       2.470   6.714  20.170  0.00  0.00    +0.000 N 
ATOM      2  C   UNL     1       1.972   7.769  19.417  0.00  0.00    +0.000 C 
ATOM      3  O   UNL     1       2.168   7.918  18.213  0.00  0.00    +0.000 OA
ATOM      4  H   UNL     1       2.520   6.835  21.173  0.00  0.00    +0.000 HD
ENDROOT
BRANCH   2   5
ATOM      5  C   UNL     1       1.255   8.808  20.146  0.00  0.00    +0.000 A 
ATOM      6  N   UNL     1       0.986   8.620  21.485  0.00  0.00    +0.000 N 
ATOM      7  C   UNL     1       0.268   9.662  21.996  0.00  0.00    +0.000 A 
ATOM      8  C   UNL     1      -0.250   9.635  23.394  0.00  0.00    +0.000 C 
ATOM      9  C   UNL     1       0.160  10.636  21.010  0.00  0.00    +0.000 A 
ATOM     10  C   UNL     1       0.802  10.092  19.826  0.00  0.00    +0.000 A 
ATOM     11  C   UNL     1       1.029  10.774  18.520  0.00  0.00    +0.000 C 
ATOM     12  H   UNL     1       1.272   7.791  21.995  0.00  0.00    +0.000 HD
BRANCH   9  13
ATOM     13  C   UNL     1      -0.494  11.933  21.259  0.00  0.00    +0.000 C 
ATOM     14  C   UNL     1       0.330  13.166  21.506  0.00  0.00    +0.000 C 
ATOM     15  O   UNL     1      -1.724  12.045  21.248  0.00  0.00    +0.000 OA
ENDBRANCH   9  13
ENDBRANCH   2   5
BRANCH   1  21
ATOM     16  C   UNL     1       2.968   4.317  20.161  0.00  0.00    +0.000 A 
ATOM     17  C   UNL     1       3.810   3.268  19.776  0.00  0.00    +0.000 A 
ATOM     18  C   UNL     1       4.794   3.459  18.806  0.00  0.00    +0.000 A 
ATOM     19  C   UNL     1       4.954   4.700  18.178  0.00  0.00    +0.000 A 
ATOM     20  C   UNL     1       4.166   5.766  18.649  0.00  0.00    +0.000 A 
ATOM     21  C   UNL     1       3.208   5.609  19.662  0.00  0.00    +0.000 A 
BRANCH  19  22
ATOM     22  C   UNL     1       5.939   4.855  17.009  0.00  0.00    +0.000 C 
ATOM     23  C   UNL     1       5.607   3.803  15.927  0.00  0.00    +0.000 C 
ATOM     24  C   UNL     1       5.878   6.241  16.329  0.00  0.00    +0.000 C 
ATOM     25  C   UNL     1       7.383   4.640  17.501  0.00  0.00    +0.000 C 
ENDBRANCH  19  22
BRANCH  16  27
ATOM     26  C   UNL     1       1.321   2.840  20.981  0.00  0.00    +0.000 C 
ATOM     27  O   UNL     1       1.913   4.143  21.029  0.00  0.00    +0.000 OA
ENDBRANCH  16  27
ENDBRANCH   1  21
TORSDOF 5
ENDMDL
MODEL 6
REMARK VINA RESULT:      -7.6      1.271      1.844
REMARK  Name = 
REMARK  12 active torsions:
REMARK  status: ('A' for Active; 'I' for Inactive)
REMARK    1  A    between atoms: C_1  and  O_2
REMARK    2  A    between atoms: O_2  and  C_3
REMARK    3  A    between atoms: C_6  and  C_7
REMARK    4  A    between atoms: C_7  and  C_8
REMARK    5  A    between atoms: C_7  and  C_9
REMARK    6  A    between atoms: C_7  and  C_10
REMARK    7  A    between atoms: C_12  and  N_13
REMARK    8  A    between atoms: C_14  and  C_16
REMARK    9  A    between atoms: C_18  and  C_19
REMARK   10  A    between atoms: C_20  and  C_21
REMARK   11  A    between atoms: C_21  and  C_22
REMARK   12  A    between atoms: C_24  and  C_25
REMARK                            x       y       z     vdW  Elec       q    Type
REMARK                         _______ _______ _______ _____ _____    ______ ____
ROOT
ATOM      1  N   UNL     1       2.283   7.489  19.633  0.00  0.00    +0.000 N 
ATOM      2  C   UNL     1       1.664   8.467  18.866  0.00  0.00    +0.000 C 
ATOM      3  O   UNL     1       1.677   8.499  17.638  0.00  0.00    +0.000 OA
ATOM      4  H   UNL     1       2.479   7.706  20.602  0.00  0.00    +0.000 HD
ENDROOT
BRANCH   2   5
ATOM      5  C   UNL     1       1.048   9.572  19.591  0.00  0.00    +0.000 A 
ATOM      6  N   UNL     1       1.172  10.851  19.091  0.00  0.00    +0.000 N 
ATOM      7  C   UNL     1       0.582  11.764  19.916  0.00  0.00    +0.000 A 
ATOM      8  C   UNL     1       0.688  13.228  19.654  0.00  0.00    +0.000 C 
ATOM      9  C   UNL     1      -0.066  11.070  20.932  0.00  0.00    +0.000 A 
ATOM     10  C   UNL     1       0.224   9.664  20.718  0.00  0.00    +0.000 A 
ATOM     11  C   UNL     1      -0.304   8.499  21.484  0.00  0.00    +0.000 C 
ATOM     12  H   UNL     1       1.668  11.062  18.232  0.00  0.00    +0.000 HD
BRANCH   9  13
ATOM     13  C   UNL     1      -0.872  11.758  21.957  0.00  0.00    +0.000 C 
ATOM     14  C   UNL     1      -2.194  12.376  21.596  0.00  0.00    +0.000 C 
ATOM     15  O   UNL     1      -0.498  11.822  23.133  0.00  0.00    +0.000 OA
ENDBRANCH   9  13
ENDBRANCH   2   5
BRANCH   1  21
ATOM     16  C   UNL     1       2.649   5.068  19.645  0.00  0.00    +0.000 A 
ATOM     17  C   UNL     1       3.429   3.971  19.262  0.00  0.00    +0.000 A 
ATOM     18  C   UNL     1       4.409   4.099  18.278  0.00  0.00    +0.000 A 
ATOM     19  C   UNL     1       4.627   5.322  17.634  0.00  0.00    +0.000 A 
ATOM     20  C   UNL     1       3.905   6.434  18.102  0.00  0.00    +0.000 A 
ATOM     21  C   UNL     1       2.953   6.340  19.129  0.00  0.00    +0.000 A 
BRANCH  19  22
ATOM     22  C   UNL     1       5.604   5.410  16.451  0.00  0.00    +0.000 C 
ATOM     23  C   UNL     1       7.031   5.656  16.991  0.00  0.00    +0.000 C 
ATOM     24  C   UNL     1       5.656   4.125  15.595  0.00  0.00    +0.000 C 
ATOM     25  C   UNL     1       5.205   6.573  15.521  0.00  0.00    +0.000 C 
ENDBRANCH  19  22
BRANCH  16  27
ATOM     26  C   UNL     1       1.054   3.642  20.638  0.00  0.00    +0.000 C 
ATOM     27  O   UNL     1       1.598   4.962  20.529  0.00  0.00    +0.000 OA
ENDBRANCH  16  27
ENDBRANCH   1  21
TORSDOF 5
ENDMDL
MODEL 7
REMARK VINA RESULT:      -7.5      1.234      1.438
REMARK  Name = 
REMARK  12 active torsions:
REMARK  status: ('A' for Active; 'I' for Inactive)
REMARK    1  A    between atoms: C_1  and  O_2
REMARK    2  A    between atoms: O_2  and  C_3
REMARK    3  A    between atoms: C_6  and  C_7
REMARK    4  A    between atoms: C_7  and  C_8
REMARK    5  A    between atoms: C_7  and  C_9
REMARK    6  A    between atoms: C_7  and  C_10
REMARK    7  A    between atoms: C_12  and  N_13
REMARK    8  A    between atoms: C_14  and  C_16
REMARK    9  A    between atoms: C_18  and  C_19
REMARK   10  A    between atoms: C_20  and  C_21
REMARK   11  A    between atoms: C_21  and  C_22
REMARK   12  A    between atoms: C_24  and  C_25
REMARK                            x       y       z     vdW  Elec       q    Type
REMARK                         _______ _______ _______ _____ _____    ______ ____
ROOT
ATOM      1  N   UNL     1       2.403   6.849  19.358  0.00  0.00    +0.000 N 
ATOM      2  C   UNL     1       2.079   8.102  18.855  0.00  0.00    +0.000 C 
ATOM      3  O   UNL     1       2.455   8.533  17.768  0.00  0.00    +0.000 OA
ATOM      4  H   UNL     1       2.313   6.706  20.356  0.00  0.00    +0.000 HD
ENDROOT
BRANCH   2   5
ATOM      5  C   UNL     1       1.323   8.983  19.737  0.00  0.00    +0.000 A 
ATOM      6  N   UNL     1       1.254   8.685  21.081  0.00  0.00    +0.000 N 
ATOM      7  C   UNL     1       0.469   9.580  21.747  0.00  0.00    +0.000 A 
ATOM      8  C   UNL     1       0.141   9.400  23.190  0.00  0.00    +0.000 C 
ATOM      9  C   UNL     1       0.103  10.580  20.853  0.00  0.00    +0.000 A 
ATOM     10  C   UNL     1       0.659  10.203  19.566  0.00  0.00    +0.000 A 
ATOM     11  C   UNL     1       0.623  10.981  18.296  0.00  0.00    +0.000 C 
ATOM     12  H   UNL     1       1.715   7.879  21.492  0.00  0.00    +0.000 HD
BRANCH   9  13
ATOM     13  C   UNL     1      -0.687  11.752  21.271  0.00  0.00    +0.000 C 
ATOM     14  C   UNL     1      -0.004  12.974  21.819  0.00  0.00    +0.000 C 
ATOM     15  O   UNL     1      -1.917  11.770  21.162  0.00  0.00    +0.000 OA
ENDBRANCH   9  13
ENDBRANCH   2   5
BRANCH   1  21
ATOM     16  C   UNL     1       2.555   4.597  18.410  0.00  0.00    +0.000 A 
ATOM     17  C   UNL     1       3.345   3.566  17.887  0.00  0.00    +0.000 A 
ATOM     18  C   UNL     1       4.664   3.802  17.499  0.00  0.00    +0.000 A 
ATOM     19  C   UNL     1       5.228   5.078  17.606  0.00  0.00    +0.000 A 
ATOM     20  C   UNL     1       4.454   6.076  18.226  0.00  0.00    +0.000 A 
ATOM     21  C   UNL     1       3.144   5.846  18.673  0.00  0.00    +0.000 A 
BRANCH  19  22
ATOM     22  C   UNL     1       6.629   5.355  17.037  0.00  0.00    +0.000 C 
ATOM     23  C   UNL     1       6.942   6.862  17.178  0.00  0.00    +0.000 C 
ATOM     24  C   UNL     1       7.754   4.587  17.765  0.00  0.00    +0.000 C 
ATOM     25  C   UNL     1       6.682   4.962  15.548  0.00  0.00    +0.000 C 
ENDBRANCH  19  22
BRANCH  16  27
ATOM     26  C   UNL     1       0.958   3.589  19.824  0.00  0.00    +0.000 C 
ATOM     27  O   UNL     1       1.218   4.436  18.700  0.00  0.00    +0.000 OA
ENDBRANCH  16  27
ENDBRANCH   1  21
TORSDOF 5
ENDMDL
MODEL 8
REMARK VINA RESULT:      -7.4      1.563      2.213
REMARK  Name = 
REMARK  12 active torsions:
REMARK  status: ('A' for Active; 'I' for Inactive)
REMARK    1  A    between atoms: C_1  and  O_2
REMARK    2  A    between atoms: O_2  and  C_3
REMARK    3  A    between atoms: C_6  and  C_7
REMARK    4  A    between atoms: C_7  and  C_8
REMARK    5  A    between atoms: C_7  and  C_9
REMARK    6  A    between atoms: C_7  and  C_10
REMARK    7  A    between atoms: C_12  and  N_13
REMARK    8  A    between atoms: C_14  and  C_16
REMARK    9  A    between atoms: C_18  and  C_19
REMARK   10  A    between atoms: C_20  and  C_21
REMARK   11  A    between atoms: C_21  and  C_22
REMARK   12  A    between atoms: C_24  and  C_25
REMARK                            x       y       z     vdW  Elec       q    Type
REMARK                         _______ _______ _______ _____ _____    ______ ____
ROOT
ATOM      1  N   UNL     1       2.196   7.674  19.391  0.00  0.00    +0.000 N 
ATOM      2  C   UNL     1       1.827   8.678  18.506  0.00  0.00    +0.000 C 
ATOM      3  O   UNL     1       2.222   8.760  17.345  0.00  0.00    +0.000 OA
ATOM      4  H   UNL     1       2.076   7.852  20.380  0.00  0.00    +0.000 HD
ENDROOT
BRANCH   2   5
ATOM      5  C   UNL     1       0.994   9.747  19.043  0.00  0.00    +0.000 A 
ATOM      6  N   UNL     1       0.784  10.877  18.281  0.00  0.00    +0.000 N 
ATOM      7  C   UNL     1       0.026  11.792  18.952  0.00  0.00    +0.000 A 
ATOM      8  C   UNL     1      -0.236  13.146  18.385  0.00  0.00    +0.000 C 
ATOM      9  C   UNL     1      -0.392  11.213  20.145  0.00  0.00    +0.000 A 
ATOM     10  C   UNL     1       0.220   9.898  20.198  0.00  0.00    +0.000 A 
ATOM     11  C   UNL     1       0.022   8.843  21.233  0.00  0.00    +0.000 C 
ATOM     12  H   UNL     1       1.178  10.998  17.353  0.00  0.00    +0.000 HD
BRANCH   9  13
ATOM     13  C   UNL     1      -1.297  11.910  21.077  0.00  0.00    +0.000 C 
ATOM     14  C   UNL     1      -0.813  12.325  22.438  0.00  0.00    +0.000 C 
ATOM     15  O   UNL     1      -2.457  12.189  20.758  0.00  0.00    +0.000 OA
ENDBRANCH   9  13
ENDBRANCH   2   5
BRANCH   1  21
ATOM     16  C   UNL     1       2.716   5.294  19.631  0.00  0.00    +0.000 A 
ATOM     17  C   UNL     1       3.618   4.238  19.452  0.00  0.00    +0.000 A 
ATOM     18  C   UNL     1       4.733   4.383  18.625  0.00  0.00    +0.000 A 
ATOM     19  C   UNL     1       4.970   5.579  17.939  0.00  0.00    +0.000 A 
ATOM     20  C   UNL     1       4.109   6.659  18.209  0.00  0.00    +0.000 A 
ATOM     21  C   UNL     1       3.013   6.552  19.080  0.00  0.00    +0.000 A 
BRANCH  19  22
ATOM     22  C   UNL     1       6.115   5.672  16.918  0.00  0.00    +0.000 C 
ATOM     23  C   UNL     1       7.046   4.452  17.093  0.00  0.00    +0.000 C 
ATOM     24  C   UNL     1       5.635   5.673  15.450  0.00  0.00    +0.000 C 
ATOM     25  C   UNL     1       6.922   6.965  17.146  0.00  0.00    +0.000 C 
ENDBRANCH  19  22
BRANCH  16  27
ATOM     26  C   UNL     1       1.004   3.834  20.339  0.00  0.00    +0.000 C 
ATOM     27  O   UNL     1       1.546   5.159  20.346  0.00  0.00    +0.000 OA
ENDBRANCH  16  27
ENDBRANCH   1  21
TORSDOF 5
ENDMDL
MODEL 9
REMARK VINA RESULT:      -7.4      1.613      1.871
REMARK  Name = 
REMARK  12 active torsions:
REMARK  status: ('A' for Active; 'I' for Inactive)
REMARK    1  A    between atoms: C_1  and  O_2
REMARK    2  A    between atoms: O_2  and  C_3
REMARK    3  A    between atoms: C_6  and  C_7
REMARK    4  A    between atoms: C_7  and  C_8
REMARK    5  A    between atoms: C_7  and  C_9
REMARK    6  A    between atoms: C_7  and  C_10
REMARK    7  A    between atoms: C_12  and  N_13
REMARK    8  A    between atoms: C_14  and  C_16
REMARK    9  A    between atoms: C_18  and  C_19
REMARK   10  A    between atoms: C_20  and  C_21
REMARK   11  A    between atoms: C_21  and  C_22
REMARK   12  A    between atoms: C_24  and  C_25
REMARK                            x       y       z     vdW  Elec       q    Type
REMARK                         _______ _______ _______ _____ _____    ______ ____
ROOT
ATOM      1  N   UNL     1       2.259   6.553  18.536  0.00  0.00    +0.000 N 
ATOM      2  C   UNL     1       2.275   6.832  19.897  0.00  0.00    +0.000 C 
ATOM      3  O   UNL     1       2.794   6.113  20.747  0.00  0.00    +0.000 OA
ATOM      4  H   UNL     1       1.566   7.023  17.969  0.00  0.00    +0.000 HD
ENDROOT
BRANCH   2   5
ATOM      5  C   UNL     1       1.536   8.012  20.329  0.00  0.00    +0.000 A 
ATOM      6  N   UNL     1       1.213   8.146  21.663  0.00  0.00    +0.000 N 
ATOM      7  C   UNL     1       0.482   9.277  21.884  0.00  0.00    +0.000 A 
ATOM      8  C   UNL     1      -0.091   9.579  23.227  0.00  0.00    +0.000 C 
ATOM      9  C   UNL     1       0.420   9.988  20.691  0.00  0.00    +0.000 A 
ATOM     10  C   UNL     1       1.104   9.182  19.697  0.00  0.00    +0.000 A 
ATOM     11  C   UNL     1       1.388   9.536  18.277  0.00  0.00    +0.000 C 
ATOM     12  H   UNL     1       1.474   7.462  22.366  0.00  0.00    +0.000 HD
BRANCH   9  13
ATOM     13  C   UNL     1      -0.235  11.306  20.600  0.00  0.00    +0.000 C 
ATOM     14  C   UNL     1       0.501  12.551  21.008  0.00  0.00    +0.000 C 
ATOM     15  O   UNL     1      -1.387  11.422  20.168  0.00  0.00    +0.000 OA
ENDBRANCH   9  13
ENDBRANCH   2   5
BRANCH   1  21
ATOM     16  C   UNL     1       2.306   4.176  17.955  0.00  0.00    +0.000 A 
ATOM     17  C   UNL     1       3.022   3.070  17.480  0.00  0.00    +0.000 A 
ATOM     18  C   UNL     1       4.251   3.235  16.842  0.00  0.00    +0.000 A 
ATOM     19  C   UNL     1       4.794   4.509  16.643  0.00  0.00    +0.000 A 
ATOM     20  C   UNL     1       4.110   5.598  17.214  0.00  0.00    +0.000 A 
ATOM     21  C   UNL     1       2.899   5.449  17.908  0.00  0.00    +0.000 A 
BRANCH  19  22
ATOM     22  C   UNL     1       6.072   4.684  15.808  0.00  0.00    +0.000 C 
ATOM     23  C   UNL     1       6.118   6.125  15.251  0.00  0.00    +0.000 C 
ATOM     24  C   UNL     1       7.372   4.467  16.615  0.00  0.00    +0.000 C 
ATOM     25  C   UNL     1       6.079   3.685  14.635  0.00  0.00    +0.000 C 
ENDBRANCH  19  22
BRANCH  16  27
ATOM     26  C   UNL     1       0.961   3.239  19.652  0.00  0.00    +0.000 C 
ATOM     27  O   UNL     1       1.040   4.069  18.488  0.00  0.00    +0.000 OA
ENDBRANCH  16  27
ENDBRANCH   1  21
TORSDOF 5
ENDMDL
