MODEL 1
REMARK VINA RESULT:      -7.0      0.000      0.000
REMARK  Name = 
REMARK  2 active torsions:
REMARK  status: ('A' for Active; 'I' for Inactive)
REMARK    1  A    between atoms: C_1  and  N_2
REMARK    2  A    between atoms: C_4  and  C_5
REMARK                            x       y       z     vdW  Elec       q    Type
REMARK                         _______ _______ _______ _____ _____    ______ ____
ROOT
ATOM      1  C   UNL     1       5.571  13.801  24.406  0.00  0.00    +0.000 C 
ATOM      2  N   UNL     1       6.662  14.180  23.518  0.00  0.00    +0.000 NA
ATOM      3  C   UNL     1       6.321  13.809  22.143  0.00  0.00    +0.000 C 
ATOM      4  C   UNL     1       7.515  14.360  21.376  0.00  0.00    +0.000 C 
ATOM      5  C   UNL     1       8.742  13.988  22.303  0.00  0.00    +0.000 C 
ATOM      6  C   UNL     1       9.847  15.051  22.387  0.00  0.00    +0.000 C 
ATOM      7  S   UNL     1      10.575  15.562  20.800  0.00  0.00    +0.000 S 
ATOM      8  C   UNL     1      10.926  13.969  20.121  0.00  0.00    +0.000 A 
ATOM      9  C   UNL     1      11.749  13.916  18.987  0.00  0.00    +0.000 A 
ATOM     10  C   UNL     1      12.116  12.696  18.416  0.00  0.00    +0.000 A 
ATOM     11  C   UNL     1      11.695  11.505  18.994  0.00  0.00    +0.000 A 
ATOM     12  C   UNL     1      10.846  11.547  20.096  0.00  0.00    +0.000 A 
ATOM     13  C   UNL     1      10.422  12.777  20.636  0.00  0.00    +0.000 A 
ATOM     14  C   UNL     1       9.279  12.736  21.588  0.00  0.00    +0.000 C 
ATOM     15  O   UNL     1       8.614  11.706  21.526  0.00  0.00    +0.000 OA
ATOM     16  C   UNL     1       8.076  13.662  23.722  0.00  0.00    +0.000 C 
ATOM     17  C   UNL     1       8.012  12.222  24.318  0.00  0.00    +0.000 C 
ATOM     18  O   UNL     1       8.207  11.115  23.863  0.00  0.00    +0.000 OA
ATOM     19  C   UNL     1       7.799  12.348  25.752  0.00  0.00    +0.000 A 
ATOM     20  C   UNL     1       6.978  11.581  26.558  0.00  0.00    +0.000 A 
ATOM     21  C   UNL     1       6.819  11.996  27.879  0.00  0.00    +0.000 A 
ATOM     22  C   UNL     1       7.562  13.084  28.376  0.00  0.00    +0.000 A 
ATOM     23  C   UNL     1       8.352  13.869  27.525  0.00  0.00    +0.000 A 
ATOM     24  C   UNL     1       8.366  13.531  26.185  0.00  0.00    +0.000 A 
ATOM     25  C   UNL     1       8.672  14.368  25.005  0.00  0.00    +0.000 C 
ATOM     26  O   UNL     1       9.206  15.464  25.091  0.00  0.00    +0.000 OA
ENDROOT
BRANCH   4  27
ATOM     27  C   UNL     1       7.269  15.818  21.024  0.00  0.00    +0.000 A 
ATOM     28  C   UNL     1       7.068  16.916  21.841  0.00  0.00    +0.000 A 
ATOM     29  C   UNL     1       6.801  18.106  21.104  0.00  0.00    +0.000 A 
ATOM     30  C   UNL     1       6.789  17.880  19.747  0.00  0.00    +0.000 A 
ATOM     31  S   UNL     1       7.082  16.245  19.365  0.00  0.00    +0.000 S 
ENDBRANCH   4  27
TORSDOF 1
ENDMDL
MODEL 2
REMARK VINA RESULT:      -6.8      3.309      5.657
REMARK  Name = 
REMARK  2 active torsions:
REMARK  status: ('A' for Active; 'I' for Inactive)
REMARK    1  A    between atoms: C_1  and  N_2
REMARK    2  A    between atoms: C_4  and  C_5
REMARK                            x       y       z     vdW  Elec       q    Type
REMARK                         _______ _______ _______ _____ _____    ______ ____
ROOT
ATOM      1  C   UNL     1       5.404  17.724  20.078  0.00  0.00    +0.000 C 
ATOM      2  N   UNL     1       6.367  16.702  20.467  0.00  0.00    +0.000 NA
ATOM      3  C   UNL     1       7.707  17.109  20.040  0.00  0.00    +0.000 C 
ATOM      4  C   UNL     1       8.561  15.984  20.607  0.00  0.00    +0.000 C 
ATOM      5  C   UNL     1       7.698  14.691  20.308  0.00  0.00    +0.000 C 
ATOM      6  C   UNL     1       7.713  13.623  21.412  0.00  0.00    +0.000 C 
ATOM      7  S   UNL     1       9.356  13.010  21.896  0.00  0.00    +0.000 S 
ATOM      8  C   UNL     1      10.006  12.640  20.295  0.00  0.00    +0.000 A 
ATOM      9  C   UNL     1      11.186  11.885  20.235  0.00  0.00    +0.000 A 
ATOM     10  C   UNL     1      11.741  11.507  19.010  0.00  0.00    +0.000 A 
ATOM     11  C   UNL     1      11.103  11.849  17.825  0.00  0.00    +0.000 A 
ATOM     12  C   UNL     1       9.954  12.632  17.872  0.00  0.00    +0.000 A 
ATOM     13  C   UNL     1       9.426  13.069  19.104  0.00  0.00    +0.000 A 
ATOM     14  C   UNL     1       8.406  14.152  19.054  0.00  0.00    +0.000 C 
ATOM     15  O   UNL     1       8.397  14.780  17.999  0.00  0.00    +0.000 OA
ATOM     16  C   UNL     1       6.233  15.260  20.005  0.00  0.00    +0.000 C 
ATOM     17  C   UNL     1       5.591  15.236  18.584  0.00  0.00    +0.000 C 
ATOM     18  O   UNL     1       6.023  15.027  17.471  0.00  0.00    +0.000 OA
ATOM     19  C   UNL     1       4.152  15.367  18.749  0.00  0.00    +0.000 A 
ATOM     20  C   UNL     1       3.275  16.111  17.979  0.00  0.00    +0.000 A 
ATOM     21  C   UNL     1       1.960  16.207  18.431  0.00  0.00    +0.000 A 
ATOM     22  C   UNL     1       1.541  15.476  19.559  0.00  0.00    +0.000 A 
ATOM     23  C   UNL     1       2.462  14.767  20.344  0.00  0.00    +0.000 A 
ATOM     24  C   UNL     1       3.790  14.820  19.964  0.00  0.00    +0.000 A 
ATOM     25  C   UNL     1       5.010  14.616  20.772  0.00  0.00    +0.000 C 
ATOM     26  O   UNL     1       4.989  14.118  21.888  0.00  0.00    +0.000 OA
ENDROOT
BRANCH   4  27
ATOM     27  C   UNL     1       8.941  16.303  22.044  0.00  0.00    +0.000 A 
ATOM     28  C   UNL     1       8.146  16.527  23.153  0.00  0.00    +0.000 A 
ATOM     29  C   UNL     1       8.904  16.868  24.311  0.00  0.00    +0.000 A 
ATOM     30  C   UNL     1      10.254  16.910  24.049  0.00  0.00    +0.000 A 
ATOM     31  S   UNL     1      10.603  16.558  22.418  0.00  0.00    +0.000 S 
ENDBRANCH   4  27
TORSDOF 1
ENDMDL
MODEL 3
REMARK VINA RESULT:      -6.5      8.954     12.018
REMARK  Name = 
REMARK  2 active torsions:
REMARK  status: ('A' for Active; 'I' for Inactive)
REMARK    1  A    between atoms: C_1  and  N_2
REMARK    2  A    between atoms: C_4  and  C_5
REMARK                            x       y       z     vdW  Elec       q    Type
REMARK                         _______ _______ _______ _____ _____    ______ ____
ROOT
ATOM      1  C   UNL     1       1.606  12.593  20.470  0.00  0.00    +0.000 C 
ATOM      2  N   UNL     1       0.241  13.086  20.598  0.00  0.00    +0.000 NA
ATOM      3  C   UNL     1       0.112  13.839  21.847  0.00  0.00    +0.000 C 
ATOM      4  C   UNL     1      -1.322  14.338  21.754  0.00  0.00    +0.000 C 
ATOM      5  C   UNL     1      -2.104  13.085  21.184  0.00  0.00    +0.000 C 
ATOM      6  C   UNL     1      -3.208  13.407  20.166  0.00  0.00    +0.000 C 
ATOM      7  S   UNL     1      -4.492  14.564  20.733  0.00  0.00    +0.000 S 
ATOM      8  C   UNL     1      -4.901  13.803  22.274  0.00  0.00    +0.000 A 
ATOM      9  C   UNL     1      -6.061  14.246  22.927  0.00  0.00    +0.000 A 
ATOM     10  C   UNL     1      -6.483  13.665  24.125  0.00  0.00    +0.000 A 
ATOM     11  C   UNL     1      -5.771  12.605  24.670  0.00  0.00    +0.000 A 
ATOM     12  C   UNL     1      -4.598  12.183  24.051  0.00  0.00    +0.000 A 
ATOM     13  C   UNL     1      -4.134  12.809  22.877  0.00  0.00    +0.000 A 
ATOM     14  C   UNL     1      -2.731  12.523  22.471  0.00  0.00    +0.000 C 
ATOM     15  O   UNL     1      -2.033  12.068  23.372  0.00  0.00    +0.000 OA
ATOM     16  C   UNL     1      -0.953  12.146  20.586  0.00  0.00    +0.000 C 
ATOM     17  C   UNL     1      -0.543  10.789  21.236  0.00  0.00    +0.000 C 
ATOM     18  O   UNL     1      -0.776  10.265  22.304  0.00  0.00    +0.000 OA
ATOM     19  C   UNL     1       0.145  10.005  20.221  0.00  0.00    +0.000 A 
ATOM     20  C   UNL     1       1.269   9.214  20.379  0.00  0.00    +0.000 A 
ATOM     21  C   UNL     1       1.840   8.685  19.222  0.00  0.00    +0.000 A 
ATOM     22  C   UNL     1       1.215   8.869  17.974  0.00  0.00    +0.000 A 
ATOM     23  C   UNL     1       0.104   9.713  17.840  0.00  0.00    +0.000 A 
ATOM     24  C   UNL     1      -0.346  10.353  18.979  0.00  0.00    +0.000 A 
ATOM     25  C   UNL     1      -1.127  11.601  19.112  0.00  0.00    +0.000 C 
ATOM     26  O   UNL     1      -1.702  12.127  18.170  0.00  0.00    +0.000 OA
ENDROOT
BRANCH   4  27
ATOM     27  C   UNL     1      -1.361  15.647  20.982  0.00  0.00    +0.000 A 
ATOM     28  C   UNL     1      -0.963  15.937  19.689  0.00  0.00    +0.000 A 
ATOM     29  C   UNL     1      -1.103  17.319  19.370  0.00  0.00    +0.000 A 
ATOM     30  C   UNL     1      -1.589  18.046  20.432  0.00  0.00    +0.000 A 
ATOM     31  S   UNL     1      -1.858  17.075  21.807  0.00  0.00    +0.000 S 
ENDBRANCH   4  27
TORSDOF 1
ENDMDL
MODEL 4
REMARK VINA RESULT:      -6.4      9.663     12.640
REMARK  Name = 
REMARK  2 active torsions:
REMARK  status: ('A' for Active; 'I' for Inactive)
REMARK    1  A    between atoms: C_1  and  N_2
REMARK    2  A    between atoms: C_4  and  C_5
REMARK                            x       y       z     vdW  Elec       q    Type
REMARK                         _______ _______ _______ _____ _____    ______ ____
ROOT
ATOM      1  C   UNL     1       0.729  13.274  21.570  0.00  0.00    +0.000 C 
ATOM      2  N   UNL     1      -0.660  13.685  21.409  0.00  0.00    +0.000 NA
ATOM      3  C   UNL     1      -1.040  14.562  22.518  0.00  0.00    +0.000 C 
ATOM      4  C   UNL     1      -2.458  14.948  22.127  0.00  0.00    +0.000 C 
ATOM      5  C   UNL     1      -3.068  13.589  21.591  0.00  0.00    +0.000 C 
ATOM      6  C   UNL     1      -3.993  13.720  20.372  0.00  0.00    +0.000 C 
ATOM      7  S   UNL     1      -5.410  14.843  20.572  0.00  0.00    +0.000 S 
ATOM      8  C   UNL     1      -6.043  14.232  22.104  0.00  0.00    +0.000 A 
ATOM      9  C   UNL     1      -7.318  14.666  22.496  0.00  0.00    +0.000 A 
ATOM     10  C   UNL     1      -7.914  14.194  23.668  0.00  0.00    +0.000 A 
ATOM     11  C   UNL     1      -7.257  13.252  24.449  0.00  0.00    +0.000 A 
ATOM     12  C   UNL     1      -5.975  12.845  24.090  0.00  0.00    +0.000 A 
ATOM     13  C   UNL     1      -5.346  13.366  22.943  0.00  0.00    +0.000 A 
ATOM     14  C   UNL     1      -3.881  13.133  22.814  0.00  0.00    +0.000 C 
ATOM     15  O   UNL     1      -3.329  12.830  23.868  0.00  0.00    +0.000 OA
ATOM     16  C   UNL     1      -1.787  12.670  21.312  0.00  0.00    +0.000 C 
ATOM     17  C   UNL     1      -1.431  11.425  22.181  0.00  0.00    +0.000 C 
ATOM     18  O   UNL     1      -1.820  11.009  23.251  0.00  0.00    +0.000 OA
ATOM     19  C   UNL     1      -0.540  10.582  21.398  0.00  0.00    +0.000 A 
ATOM     20  C   UNL     1       0.575   9.891  21.836  0.00  0.00    +0.000 A 
ATOM     21  C   UNL     1       1.363   9.277  20.864  0.00  0.00    +0.000 A 
ATOM     22  C   UNL     1       0.957   9.278  19.516  0.00  0.00    +0.000 A 
ATOM     23  C   UNL     1      -0.154  10.023  19.096  0.00  0.00    +0.000 A 
ATOM     24  C   UNL     1      -0.825  10.755  20.058  0.00  0.00    +0.000 A 
ATOM     25  C   UNL     1      -1.676  11.954  19.907  0.00  0.00    +0.000 C 
ATOM     26  O   UNL     1      -2.103  12.330  18.825  0.00  0.00    +0.000 OA
ENDROOT
BRANCH   4  27
ATOM     27  C   UNL     1      -2.425  16.157  21.206  0.00  0.00    +0.000 A 
ATOM     28  C   UNL     1      -1.770  16.350  20.003  0.00  0.00    +0.000 A 
ATOM     29  C   UNL     1      -1.944  17.668  19.489  0.00  0.00    +0.000 A 
ATOM     30  C   UNL     1      -2.712  18.448  20.322  0.00  0.00    +0.000 A 
ATOM     31  S   UNL     1      -3.206  17.605  21.718  0.00  0.00    +0.000 S 
ENDBRANCH   4  27
TORSDOF 1
ENDMDL
MODEL 5
REMARK VINA RESULT:      -6.4      8.436     10.354
REMARK  Name = 
REMARK  2 active torsions:
REMARK  status: ('A' for Active; 'I' for Inactive)
REMARK    1  A    between atoms: C_1  and  N_2
REMARK    2  A    between atoms: C_4  and  C_5
REMARK                            x       y       z     vdW  Elec       q    Type
REMARK                         _______ _______ _______ _____ _____    ______ ____
ROOT
ATOM      1  C   UNL     1      -1.292  10.213  18.493  0.00  0.00    +0.000 C 
ATOM      2  N   UNL     1      -1.144  11.332  19.415  0.00  0.00    +0.000 NA
ATOM      3  C   UNL     1      -1.669  12.548  18.792  0.00  0.00    +0.000 C 
ATOM      4  C   UNL     1      -1.515  13.558  19.920  0.00  0.00    +0.000 C 
ATOM      5  C   UNL     1      -0.098  13.203  20.530  0.00  0.00    +0.000 C 
ATOM      6  C   UNL     1       0.002  13.302  22.060  0.00  0.00    +0.000 C 
ATOM      7  S   UNL     1      -0.448  14.911  22.779  0.00  0.00    +0.000 S 
ATOM      8  C   UNL     1       0.535  15.965  21.757  0.00  0.00    +0.000 A 
ATOM      9  C   UNL     1       0.681  17.301  22.157  0.00  0.00    +0.000 A 
ATOM     10  C   UNL     1       1.479  18.190  21.433  0.00  0.00    +0.000 A 
ATOM     11  C   UNL     1       2.174  17.745  20.316  0.00  0.00    +0.000 A 
ATOM     12  C   UNL     1       2.006  16.432  19.888  0.00  0.00    +0.000 A 
ATOM     13  C   UNL     1       1.151  15.550  20.579  0.00  0.00    +0.000 A 
ATOM     14  C   UNL     1       0.778  14.289  19.881  0.00  0.00    +0.000 C 
ATOM     15  O   UNL     1       0.962  14.316  18.668  0.00  0.00    +0.000 OA
ATOM     16  C   UNL     1       0.211  11.734  19.974  0.00  0.00    +0.000 C 
ATOM     17  C   UNL     1       1.310  11.445  18.906  0.00  0.00    +0.000 C 
ATOM     18  O   UNL     1       1.967  12.145  18.166  0.00  0.00    +0.000 OA
ATOM     19  C   UNL     1       1.643  10.031  18.989  0.00  0.00    +0.000 A 
ATOM     20  C   UNL     1       1.890   9.156  17.946  0.00  0.00    +0.000 A 
ATOM     21  C   UNL     1       2.031   7.808  18.270  0.00  0.00    +0.000 A 
ATOM     22  C   UNL     1       2.033   7.397  19.616  0.00  0.00    +0.000 A 
ATOM     23  C   UNL     1       1.736   8.299  20.647  0.00  0.00    +0.000 A 
ATOM     24  C   UNL     1       1.440   9.599  20.285  0.00  0.00    +0.000 A 
ATOM     25  C   UNL     1       0.659  10.625  21.008  0.00  0.00    +0.000 C 
ATOM     26  O   UNL     1       0.356  10.518  22.187  0.00  0.00    +0.000 OA
ENDROOT
BRANCH   4  27
ATOM     27  C   UNL     1      -2.739  13.512  20.820  0.00  0.00    +0.000 A 
ATOM     28  C   UNL     1      -3.301  12.458  21.517  0.00  0.00    +0.000 A 
ATOM     29  C   UNL     1      -4.500  12.825  22.193  0.00  0.00    +0.000 A 
ATOM     30  C   UNL     1      -4.828  14.144  21.981  0.00  0.00    +0.000 A 
ATOM     31  S   UNL     1      -3.710  14.929  20.961  0.00  0.00    +0.000 S 
ENDBRANCH   4  27
TORSDOF 1
ENDMDL
MODEL 6
REMARK VINA RESULT:      -6.4      9.701     11.732
REMARK  Name = 
REMARK  2 active torsions:
REMARK  status: ('A' for Active; 'I' for Inactive)
REMARK    1  A    between atoms: C_1  and  N_2
REMARK    2  A    between atoms: C_4  and  C_5
REMARK                            x       y       z     vdW  Elec       q    Type
REMARK                         _______ _______ _______ _____ _____    ______ ____
ROOT
ATOM      1  C   UNL     1      -4.492  15.593  21.719  0.00  0.00    +0.000 C 
ATOM      2  N   UNL     1      -3.334  14.719  21.590  0.00  0.00    +0.000 NA
ATOM      3  C   UNL     1      -2.612  15.047  20.359  0.00  0.00    +0.000 C 
ATOM      4  C   UNL     1      -1.414  14.113  20.451  0.00  0.00    +0.000 C 
ATOM      5  C   UNL     1      -2.049  12.764  20.983  0.00  0.00    +0.000 C 
ATOM      6  C   UNL     1      -1.193  11.991  21.998  0.00  0.00    +0.000 C 
ATOM      7  S   UNL     1       0.485  11.555  21.448  0.00  0.00    +0.000 S 
ATOM      8  C   UNL     1       0.093  10.831  19.885  0.00  0.00    +0.000 A 
ATOM      9  C   UNL     1       1.106  10.113  19.232  0.00  0.00    +0.000 A 
ATOM     10  C   UNL     1       0.868   9.468  18.016  0.00  0.00    +0.000 A 
ATOM     11  C   UNL     1      -0.401   9.500  17.452  0.00  0.00    +0.000 A 
ATOM     12  C   UNL     1      -1.403  10.242  18.071  0.00  0.00    +0.000 A 
ATOM     13  C   UNL     1      -1.149  10.947  19.265  0.00  0.00    +0.000 A 
ATOM     14  C   UNL     1      -2.159  11.959  19.677  0.00  0.00    +0.000 C 
ATOM     15  O   UNL     1      -2.906  12.317  18.771  0.00  0.00    +0.000 OA
ATOM     16  C   UNL     1      -3.472  13.206  21.568  0.00  0.00    +0.000 C 
ATOM     17  C   UNL     1      -4.823  12.825  20.889  0.00  0.00    +0.000 C 
ATOM     18  O   UNL     1      -5.120  12.367  19.806  0.00  0.00    +0.000 OA
ATOM     19  C   UNL     1      -5.871  12.955  21.890  0.00  0.00    +0.000 A 
ATOM     20  C   UNL     1      -7.144  13.470  21.723  0.00  0.00    +0.000 A 
ATOM     21  C   UNL     1      -7.916  13.637  22.872  0.00  0.00    +0.000 A 
ATOM     22  C   UNL     1      -7.442  13.186  24.118  0.00  0.00    +0.000 A 
ATOM     23  C   UNL     1      -6.131  12.710  24.263  0.00  0.00    +0.000 A 
ATOM     24  C   UNL     1      -5.331  12.705  23.136  0.00  0.00    +0.000 A 
ATOM     25  C   UNL     1      -3.857  12.732  23.027  0.00  0.00    +0.000 C 
ATOM     26  O   UNL     1      -3.119  12.516  23.976  0.00  0.00    +0.000 OA
ENDROOT
BRANCH   4  27
ATOM     27  C   UNL     1      -0.308  14.776  21.255  0.00  0.00    +0.000 A 
ATOM     28  C   UNL     1      -0.325  15.315  22.529  0.00  0.00    +0.000 A 
ATOM     29  C   UNL     1       0.919  15.910  22.889  0.00  0.00    +0.000 A 
ATOM     30  C   UNL     1       1.844  15.825  21.874  0.00  0.00    +0.000 A 
ATOM     31  S   UNL     1       1.214  15.048  20.494  0.00  0.00    +0.000 S 
ENDBRANCH   4  27
TORSDOF 1
ENDMDL
MODEL 7
REMARK VINA RESULT:      -6.3      9.376     12.374
REMARK  Name = 
REMARK  2 active torsions:
REMARK  status: ('A' for Active; 'I' for Inactive)
REMARK    1  A    between atoms: C_1  and  N_2
REMARK    2  A    between atoms: C_4  and  C_5
REMARK                            x       y       z     vdW  Elec       q    Type
REMARK                         _______ _______ _______ _____ _____    ______ ____
ROOT
ATOM      1  C   UNL     1       1.260  13.679  21.445  0.00  0.00    +0.000 C 
ATOM      2  N   UNL     1      -0.195  13.740  21.422  0.00  0.00    +0.000 NA
ATOM      3  C   UNL     1      -0.743  12.473  21.910  0.00  0.00    +0.000 C 
ATOM      4  C   UNL     1      -2.237  12.763  21.898  0.00  0.00    +0.000 C 
ATOM      5  C   UNL     1      -2.440  13.557  20.544  0.00  0.00    +0.000 C 
ATOM      6  C   UNL     1      -3.446  14.716  20.607  0.00  0.00    +0.000 C 
ATOM      7  S   UNL     1      -5.120  14.278  21.169  0.00  0.00    +0.000 S 
ATOM      8  C   UNL     1      -5.424  12.895  20.112  0.00  0.00    +0.000 A 
ATOM      9  C   UNL     1      -6.738  12.411  20.041  0.00  0.00    +0.000 A 
ATOM     10  C   UNL     1      -7.075  11.353  19.194  0.00  0.00    +0.000 A 
ATOM     11  C   UNL     1      -6.107  10.785  18.376  0.00  0.00    +0.000 A 
ATOM     12  C   UNL     1      -4.791  11.232  18.466  0.00  0.00    +0.000 A 
ATOM     13  C   UNL     1      -4.436  12.256  19.366  0.00  0.00    +0.000 A 
ATOM     14  C   UNL     1      -2.984  12.444  19.633  0.00  0.00    +0.000 C 
ATOM     15  O   UNL     1      -2.291  11.479  19.325  0.00  0.00    +0.000 OA
ATOM     16  C   UNL     1      -0.963  14.030  20.143  0.00  0.00    +0.000 C 
ATOM     17  C   UNL     1      -0.182  13.434  18.932  0.00  0.00    +0.000 C 
ATOM     18  O   UNL     1      -0.347  12.467  18.219  0.00  0.00    +0.000 OA
ATOM     19  C   UNL     1       0.864  14.380  18.575  0.00  0.00    +0.000 A 
ATOM     20  C   UNL     1       2.166  14.102  18.199  0.00  0.00    +0.000 A 
ATOM     21  C   UNL     1       3.031  15.187  18.059  0.00  0.00    +0.000 A 
ATOM     22  C   UNL     1       2.547  16.502  18.187  0.00  0.00    +0.000 A 
ATOM     23  C   UNL     1       1.234  16.751  18.612  0.00  0.00    +0.000 A 
ATOM     24  C   UNL     1       0.444  15.655  18.900  0.00  0.00    +0.000 A 
ATOM     25  C   UNL     1      -0.742  15.552  19.777  0.00  0.00    +0.000 C 
ATOM     26  O   UNL     1      -1.341  16.530  20.199  0.00  0.00    +0.000 OA
ENDROOT
BRANCH   4  27
ATOM     27  C   UNL     1      -2.641  13.421  23.208  0.00  0.00    +0.000 A 
ATOM     28  C   UNL     1      -2.152  14.555  23.830  0.00  0.00    +0.000 A 
ATOM     29  C   UNL     1      -2.763  14.793  25.095  0.00  0.00    +0.000 A 
ATOM     30  C   UNL     1      -3.688  13.825  25.411  0.00  0.00    +0.000 A 
ATOM     31  S   UNL     1      -3.808  12.631  24.200  0.00  0.00    +0.000 S 
ENDBRANCH   4  27
TORSDOF 1
ENDMDL
MODEL 8
REMARK VINA RESULT:      -6.3      0.982      1.150
REMARK  Name = 
REMARK  2 active torsions:
REMARK  status: ('A' for Active; 'I' for Inactive)
REMARK    1  A    between atoms: C_1  and  N_2
REMARK    2  A    between atoms: C_4  and  C_5
REMARK                            x       y       z     vdW  Elec       q    Type
REMARK                         _______ _______ _______ _____ _____    ______ ____
ROOT
ATOM      1  C   UNL     1       5.764  14.401  24.797  0.00  0.00    +0.000 C 
ATOM      2  N   UNL     1       6.610  14.605  23.628  0.00  0.00    +0.000 NA
ATOM      3  C   UNL     1       6.070  13.847  22.498  0.00  0.00    +0.000 C 
ATOM      4  C   UNL     1       7.015  14.256  21.379  0.00  0.00    +0.000 C 
ATOM      5  C   UNL     1       8.433  14.248  22.083  0.00  0.00    +0.000 C 
ATOM      6  C   UNL     1       9.384  15.376  21.655  0.00  0.00    +0.000 C 
ATOM      7  S   UNL     1       9.728  15.486  19.872  0.00  0.00    +0.000 S 
ATOM      8  C   UNL     1      10.153  13.800  19.558  0.00  0.00    +0.000 A 
ATOM      9  C   UNL     1      10.748  13.501  18.324  0.00  0.00    +0.000 A 
ATOM     10  C   UNL     1      11.160  12.203  18.015  0.00  0.00    +0.000 A 
ATOM     11  C   UNL     1      11.015  11.188  18.951  0.00  0.00    +0.000 A 
ATOM     12  C   UNL     1      10.389  11.465  20.164  0.00  0.00    +0.000 A 
ATOM     13  C   UNL     1       9.916  12.760  20.454  0.00  0.00    +0.000 A 
ATOM     14  C   UNL     1       8.986  12.893  21.609  0.00  0.00    +0.000 C 
ATOM     15  O   UNL     1       8.463  11.838  21.954  0.00  0.00    +0.000 OA
ATOM     16  C   UNL     1       8.092  14.273  23.647  0.00  0.00    +0.000 C 
ATOM     17  C   UNL     1       8.331  13.052  24.586  0.00  0.00    +0.000 C 
ATOM     18  O   UNL     1       8.582  11.881  24.395  0.00  0.00    +0.000 OA
ATOM     19  C   UNL     1       8.377  13.549  25.953  0.00  0.00    +0.000 A 
ATOM     20  C   UNL     1       7.829  12.972  27.084  0.00  0.00    +0.000 A 
ATOM     21  C   UNL     1       7.867  13.720  28.260  0.00  0.00    +0.000 A 
ATOM     22  C   UNL     1       8.540  14.956  28.294  0.00  0.00    +0.000 A 
ATOM     23  C   UNL     1       9.046  15.536  27.122  0.00  0.00    +0.000 A 
ATOM     24  C   UNL     1       8.853  14.846  25.940  0.00  0.00    +0.000 A 
ATOM     25  C   UNL     1       8.820  15.348  24.550  0.00  0.00    +0.000 C 
ATOM     26  O   UNL     1       9.211  16.463  24.239  0.00  0.00    +0.000 OA
ENDROOT
BRANCH   4  27
ATOM     27  C   UNL     1       6.518  15.538  20.731  0.00  0.00    +0.000 A 
ATOM     28  C   UNL     1       6.315  16.795  21.272  0.00  0.00    +0.000 A 
ATOM     29  C   UNL     1       5.767  17.714  20.331  0.00  0.00    +0.000 A 
ATOM     30  C   UNL     1       5.552  17.130  19.104  0.00  0.00    +0.000 A 
ATOM     31  S   UNL     1       5.992  15.483  19.092  0.00  0.00    +0.000 S 
ENDBRANCH   4  27
TORSDOF 1
ENDMDL
MODEL 9
REMARK VINA RESULT:      -6.2      6.761      8.530
REMARK  Name = 
REMARK  2 active torsions:
REMARK  status: ('A' for Active; 'I' for Inactive)
REMARK    1  A    between atoms: C_1  and  N_2
REMARK    2  A    between atoms: C_4  and  C_5
REMARK                            x       y       z     vdW  Elec       q    Type
REMARK                         _______ _______ _______ _____ _____    ______ ____
ROOT
ATOM      1  C   UNL     1      -1.650  11.861  19.267  0.00  0.00    +0.000 C 
ATOM      2  N   UNL     1      -0.783  13.005  19.518  0.00  0.00    +0.000 NA
ATOM      3  C   UNL     1      -0.452  13.653  18.248  0.00  0.00    +0.000 C 
ATOM      4  C   UNL     1       0.362  14.849  18.720  0.00  0.00    +0.000 C 
ATOM      5  C   UNL     1       1.265  14.240  19.868  0.00  0.00    +0.000 C 
ATOM      6  C   UNL     1       1.480  15.151  21.086  0.00  0.00    +0.000 C 
ATOM      7  S   UNL     1       2.185  16.790  20.732  0.00  0.00    +0.000 S 
ATOM      8  C   UNL     1       3.559  16.301  19.735  0.00  0.00    +0.000 A 
ATOM      9  C   UNL     1       4.536  17.269  19.461  0.00  0.00    +0.000 A 
ATOM     10  C   UNL     1       5.679  16.954  18.722  0.00  0.00    +0.000 A 
ATOM     11  C   UNL     1       5.880  15.654  18.276  0.00  0.00    +0.000 A 
ATOM     12  C   UNL     1       4.898  14.695  18.509  0.00  0.00    +0.000 A 
ATOM     13  C   UNL     1       3.715  15.025  19.199  0.00  0.00    +0.000 A 
ATOM     14  C   UNL     1       2.595  14.047  19.121  0.00  0.00    +0.000 C 
ATOM     15  O   UNL     1       2.694  13.249  18.194  0.00  0.00    +0.000 OA
ATOM     16  C   UNL     1       0.547  12.857  20.238  0.00  0.00    +0.000 C 
ATOM     17  C   UNL     1       1.162  11.465  19.895  0.00  0.00    +0.000 C 
ATOM     18  O   UNL     1       2.075  11.102  19.185  0.00  0.00    +0.000 OA
ATOM     19  C   UNL     1       0.530  10.480  20.760  0.00  0.00    +0.000 A 
ATOM     20  C   UNL     1       0.117   9.203  20.429  0.00  0.00    +0.000 A 
ATOM     21  C   UNL     1      -0.609   8.502  21.391  0.00  0.00    +0.000 A 
ATOM     22  C   UNL     1      -0.800   9.048  22.675  0.00  0.00    +0.000 A 
ATOM     23  C   UNL     1      -0.408  10.363  22.966  0.00  0.00    +0.000 A 
ATOM     24  C   UNL     1       0.166  11.093  21.943  0.00  0.00    +0.000 A 
ATOM     25  C   UNL     1       0.246  12.558  21.761  0.00  0.00    +0.000 C 
ATOM     26  O   UNL     1       0.003  13.351  22.658  0.00  0.00    +0.000 OA
ENDROOT
BRANCH   4  27
ATOM     27  C   UNL     1      -0.569  16.005  19.046  0.00  0.00    +0.000 A 
ATOM     28  C   UNL     1      -1.553  16.119  20.012  0.00  0.00    +0.000 A 
ATOM     29  C   UNL     1      -2.253  17.358  19.937  0.00  0.00    +0.000 A 
ATOM     30  C   UNL     1      -1.795  18.148  18.908  0.00  0.00    +0.000 A 
ATOM     31  S   UNL     1      -0.544  17.395  18.028  0.00  0.00    +0.000 S 
ENDBRANCH   4  27
TORSDOF 1
ENDMDL
