MODEL 1
REMARK VINA RESULT:      -5.4      0.000      0.000
REMARK  Name = 
REMARK  9 active torsions:
REMARK  status: ('A' for Active; 'I' for Inactive)
REMARK    1  A    between atoms: C_1  and  C_2
REMARK    2  A    between atoms: C_2  and  C_3
REMARK    3  A    between atoms: N_7  and  C_8
REMARK    4  A    between atoms: C_8  and  C_9
REMARK    5  A    between atoms: C_9  and  C_10
REMARK    6  A    between atoms: C_10  and  N_11
REMARK    7  A    between atoms: C_12  and  C_14
REMARK    8  A    between atoms: C_14  and  S_15
REMARK    9  A    between atoms: S_15  and  C_16
REMARK                            x       y       z     vdW  Elec       q    Type
REMARK                         _______ _______ _______ _____ _____    ______ ____
ROOT
ATOM      1  C   UNL     1       3.580   6.159  17.740  0.00  0.00    +0.000 C 
ENDROOT
BRANCH   1   2
ATOM      2  C   UNL     1       4.612   6.848  16.850  0.00  0.00    +0.000 C 
BRANCH   2   7
ATOM      3  C   UNL     1       6.913   5.740  16.949  0.00  0.00    +0.000 A 
ATOM      4  N   UNL     1       7.515   4.736  16.336  0.00  0.00    +0.000 NA
ATOM      5  C   UNL     1       6.646   4.283  15.382  0.00  0.00    +0.000 A 
ATOM      6  C   UNL     1       5.483   5.010  15.416  0.00  0.00    +0.000 A 
ATOM      7  N   UNL     1       5.648   5.916  16.434  0.00  0.00    +0.000 N 
BRANCH   3   9
ATOM      8  C   UNL     1       7.901   5.862  19.286  0.00  0.00    +0.000 C 
ATOM      9  C   UNL     1       7.584   6.582  17.988  0.00  0.00    +0.000 C 
ENDBRANCH   3   9
ENDBRANCH   2   7
ENDBRANCH   1   2
BRANCH   1  10
ATOM     10  C   UNL     1       4.039   6.039  19.190  0.00  0.00    +0.000 C 
BRANCH  10  11
ATOM     11  N   UNL     1       3.522   4.823  19.794  0.00  0.00    +0.000 N 
ATOM     12  C   UNL     1       4.217   3.631  19.695  0.00  0.00    +0.000 C 
ATOM     13  O   UNL     1       5.355   3.554  19.238  0.00  0.00    +0.000 OA
ATOM     14  H   UNL     1       2.526   4.757  19.978  0.00  0.00    +0.000 HD
BRANCH  12  15
ATOM     15  C   UNL     1       3.461   2.412  20.196  0.00  0.00    +0.000 C 
BRANCH  15  16
ATOM     16  S   UNL     1       1.854   2.241  19.348  0.00  0.00    +0.000 S 
ATOM     17  C   UNL     1       2.432   2.272  17.628  0.00  0.00    +0.000 C 
ENDBRANCH  15  16
ENDBRANCH  12  15
ENDBRANCH  10  11
ENDBRANCH   1  10
TORSDOF 7
ENDMDL
MODEL 2
REMARK VINA RESULT:      -5.4      1.688      1.979
REMARK  Name = 
REMARK  9 active torsions:
REMARK  status: ('A' for Active; 'I' for Inactive)
REMARK    1  A    between atoms: C_1  and  C_2
REMARK    2  A    between atoms: C_2  and  C_3
REMARK    3  A    between atoms: N_7  and  C_8
REMARK    4  A    between atoms: C_8  and  C_9
REMARK    5  A    between atoms: C_9  and  C_10
REMARK    6  A    between atoms: C_10  and  N_11
REMARK    7  A    between atoms: C_12  and  C_14
REMARK    8  A    between atoms: C_14  and  S_15
REMARK    9  A    between atoms: S_15  and  C_16
REMARK                            x       y       z     vdW  Elec       q    Type
REMARK                         _______ _______ _______ _____ _____    ______ ____
ROOT
ATOM      1  C   UNL     1       3.880   6.471  17.906  0.00  0.00    +0.000 C 
ENDROOT
BRANCH   1   2
ATOM      2  C   UNL     1       4.696   5.182  17.846  0.00  0.00    +0.000 C 
BRANCH   2   7
ATOM      3  C   UNL     1       6.876   5.840  16.684  0.00  0.00    +0.000 A 
ATOM      4  N   UNL     1       7.463   5.565  15.533  0.00  0.00    +0.000 NA
ATOM      5  C   UNL     1       6.589   4.790  14.824  0.00  0.00    +0.000 A 
ATOM      6  C   UNL     1       5.448   4.571  15.554  0.00  0.00    +0.000 A 
ATOM      7  N   UNL     1       5.649   5.217  16.748  0.00  0.00    +0.000 N 
BRANCH   3   9
ATOM      8  C   UNL     1       7.934   6.093  18.981  0.00  0.00    +0.000 C 
ATOM      9  C   UNL     1       7.467   6.765  17.702  0.00  0.00    +0.000 C 
ENDBRANCH   3   9
ENDBRANCH   2   7
ENDBRANCH   1   2
BRANCH   1  10
ATOM     10  C   UNL     1       2.388   6.216  18.096  0.00  0.00    +0.000 C 
BRANCH  10  11
ATOM     11  N   UNL     1       2.168   5.115  19.018  0.00  0.00    +0.000 N 
ATOM     12  C   UNL     1       1.479   3.984  18.621  0.00  0.00    +0.000 C 
ATOM     13  O   UNL     1       1.152   3.773  17.455  0.00  0.00    +0.000 OA
ATOM     14  H   UNL     1       2.202   5.303  20.015  0.00  0.00    +0.000 HD
BRANCH  12  15
ATOM     15  C   UNL     1       1.153   3.013  19.743  0.00  0.00    +0.000 C 
BRANCH  15  16
ATOM     16  S   UNL     1       2.332   3.185  21.125  0.00  0.00    +0.000 S 
ATOM     17  C   UNL     1       3.783   2.404  20.363  0.00  0.00    +0.000 C 
ENDBRANCH  15  16
ENDBRANCH  12  15
ENDBRANCH  10  11
ENDBRANCH   1  10
TORSDOF 7
ENDMDL
MODEL 3
REMARK VINA RESULT:      -5.4      0.983      1.315
REMARK  Name = 
REMARK  9 active torsions:
REMARK  status: ('A' for Active; 'I' for Inactive)
REMARK    1  A    between atoms: C_1  and  C_2
REMARK    2  A    between atoms: C_2  and  C_3
REMARK    3  A    between atoms: N_7  and  C_8
REMARK    4  A    between atoms: C_8  and  C_9
REMARK    5  A    between atoms: C_9  and  C_10
REMARK    6  A    between atoms: C_10  and  N_11
REMARK    7  A    between atoms: C_12  and  C_14
REMARK    8  A    between atoms: C_14  and  S_15
REMARK    9  A    between atoms: S_15  and  C_16
REMARK                            x       y       z     vdW  Elec       q    Type
REMARK                         _______ _______ _______ _____ _____    ______ ____
ROOT
ATOM      1  C   UNL     1       3.630   6.385  17.661  0.00  0.00    +0.000 C 
ENDROOT
BRANCH   1   2
ATOM      2  C   UNL     1       4.755   7.038  16.862  0.00  0.00    +0.000 C 
BRANCH   2   7
ATOM      3  C   UNL     1       6.973   5.770  16.944  0.00  0.00    +0.000 A 
ATOM      4  N   UNL     1       7.509   4.746  16.305  0.00  0.00    +0.000 NA
ATOM      5  C   UNL     1       6.621   4.384  15.331  0.00  0.00    +0.000 A 
ATOM      6  C   UNL     1       5.511   5.189  15.378  0.00  0.00    +0.000 A 
ATOM      7  N   UNL     1       5.728   6.049  16.425  0.00  0.00    +0.000 N 
BRANCH   3   9
ATOM      8  C   UNL     1       7.853   5.785  19.328  0.00  0.00    +0.000 C 
ATOM      9  C   UNL     1       7.690   6.530  18.015  0.00  0.00    +0.000 C 
ENDBRANCH   3   9
ENDBRANCH   2   7
ENDBRANCH   1   2
BRANCH   1  10
ATOM     10  C   UNL     1       4.135   5.657  18.903  0.00  0.00    +0.000 C 
BRANCH  10  11
ATOM     11  N   UNL     1       3.250   4.559  19.251  0.00  0.00    +0.000 N 
ATOM     12  C   UNL     1       3.379   3.324  18.643  0.00  0.00    +0.000 C 
ATOM     13  O   UNL     1       4.318   3.035  17.904  0.00  0.00    +0.000 OA
ATOM     14  H   UNL     1       2.347   4.774  19.661  0.00  0.00    +0.000 HD
BRANCH  12  15
ATOM     15  C   UNL     1       2.264   2.342  18.958  0.00  0.00    +0.000 C 
BRANCH  15  16
ATOM     16  S   UNL     1       0.962   3.128  19.967  0.00  0.00    +0.000 S 
ATOM     17  C   UNL     1       1.539   2.635  21.615  0.00  0.00    +0.000 C 
ENDBRANCH  15  16
ENDBRANCH  12  15
ENDBRANCH  10  11
ENDBRANCH   1  10
TORSDOF 7
ENDMDL
MODEL 4
REMARK VINA RESULT:      -5.3      2.594      5.462
REMARK  Name = 
REMARK  9 active torsions:
REMARK  status: ('A' for Active; 'I' for Inactive)
REMARK    1  A    between atoms: C_1  and  C_2
REMARK    2  A    between atoms: C_2  and  C_3
REMARK    3  A    between atoms: N_7  and  C_8
REMARK    4  A    between atoms: C_8  and  C_9
REMARK    5  A    between atoms: C_9  and  C_10
REMARK    6  A    between atoms: C_10  and  N_11
REMARK    7  A    between atoms: C_12  and  C_14
REMARK    8  A    between atoms: C_14  and  S_15
REMARK    9  A    between atoms: S_15  and  C_16
REMARK                            x       y       z     vdW  Elec       q    Type
REMARK                         _______ _______ _______ _____ _____    ______ ____
ROOT
ATOM      1  C   UNL     1       3.326   2.508  18.297  0.00  0.00    +0.000 C 
ENDROOT
BRANCH   1   2
ATOM      2  C   UNL     1       2.521   3.666  17.714  0.00  0.00    +0.000 C 
BRANCH   2   7
ATOM      3  C   UNL     1       1.675   4.644  19.920  0.00  0.00    +0.000 A 
ATOM      4  N   UNL     1       1.778   5.799  20.552  0.00  0.00    +0.000 NA
ATOM      5  C   UNL     1       2.460   6.642  19.718  0.00  0.00    +0.000 A 
ATOM      6  C   UNL     1       2.795   5.992  18.557  0.00  0.00    +0.000 A 
ATOM      7  N   UNL     1       2.319   4.713  18.704  0.00  0.00    +0.000 N 
BRANCH   3   9
ATOM      8  C   UNL     1       1.543   2.758  21.617  0.00  0.00    +0.000 C 
ATOM      9  C   UNL     1       0.892   3.487  20.455  0.00  0.00    +0.000 C 
ENDBRANCH   3   9
ENDBRANCH   2   7
ENDBRANCH   1   2
BRANCH   1  10
ATOM     10  C   UNL     1       4.518   2.977  19.126  0.00  0.00    +0.000 C 
BRANCH  10  11
ATOM     11  N   UNL     1       5.539   3.560  18.274  0.00  0.00    +0.000 N 
ATOM     12  C   UNL     1       6.256   4.670  18.684  0.00  0.00    +0.000 C 
ATOM     13  O   UNL     1       6.188   5.129  19.822  0.00  0.00    +0.000 OA
ATOM     14  H   UNL     1       5.495   3.389  17.274  0.00  0.00    +0.000 HD
BRANCH  12  15
ATOM     15  C   UNL     1       7.141   5.285  17.613  0.00  0.00    +0.000 C 
BRANCH  15  16
ATOM     16  S   UNL     1       6.480   6.893  17.058  0.00  0.00    +0.000 S 
ATOM     17  C   UNL     1       7.802   7.974  17.672  0.00  0.00    +0.000 C 
ENDBRANCH  15  16
ENDBRANCH  12  15
ENDBRANCH  10  11
ENDBRANCH   1  10
TORSDOF 7
ENDMDL
MODEL 5
REMARK VINA RESULT:      -5.3      2.529      5.591
REMARK  Name = 
REMARK  9 active torsions:
REMARK  status: ('A' for Active; 'I' for Inactive)
REMARK    1  A    between atoms: C_1  and  C_2
REMARK    2  A    between atoms: C_2  and  C_3
REMARK    3  A    between atoms: N_7  and  C_8
REMARK    4  A    between atoms: C_8  and  C_9
REMARK    5  A    between atoms: C_9  and  C_10
REMARK    6  A    between atoms: C_10  and  N_11
REMARK    7  A    between atoms: C_12  and  C_14
REMARK    8  A    between atoms: C_14  and  S_15
REMARK    9  A    between atoms: S_15  and  C_16
REMARK                            x       y       z     vdW  Elec       q    Type
REMARK                         _______ _______ _______ _____ _____    ______ ____
ROOT
ATOM      1  C   UNL     1       5.064   4.576  19.464  0.00  0.00    +0.000 C 
ENDROOT
BRANCH   1   2
ATOM      2  C   UNL     1       3.784   5.375  19.698  0.00  0.00    +0.000 C 
BRANCH   2   7
ATOM      3  C   UNL     1       1.797   3.846  19.201  0.00  0.00    +0.000 A 
ATOM      4  N   UNL     1       0.980   3.084  19.907  0.00  0.00    +0.000 NA
ATOM      5  C   UNL     1       1.304   3.277  21.221  0.00  0.00    +0.000 A 
ATOM      6  C   UNL     1       2.347   4.163  21.328  0.00  0.00    +0.000 A 
ATOM      7  N   UNL     1       2.675   4.498  20.038  0.00  0.00    +0.000 N 
BRANCH   3   9
ATOM      8  C   UNL     1       2.767   3.293  16.919  0.00  0.00    +0.000 C 
ATOM      9  C   UNL     1       1.688   4.003  17.717  0.00  0.00    +0.000 C 
ENDBRANCH   3   9
ENDBRANCH   2   7
ENDBRANCH   1   2
BRANCH   1  10
ATOM     10  C   UNL     1       6.182   5.419  18.858  0.00  0.00    +0.000 C 
BRANCH  10  11
ATOM     11  N   UNL     1       6.129   5.377  17.407  0.00  0.00    +0.000 N 
ATOM     12  C   UNL     1       7.155   4.806  16.676  0.00  0.00    +0.000 C 
ATOM     13  O   UNL     1       8.076   4.177  17.192  0.00  0.00    +0.000 OA
ATOM     14  H   UNL     1       5.543   6.050  16.923  0.00  0.00    +0.000 HD
BRANCH  12  15
ATOM     15  C   UNL     1       7.058   5.016  15.175  0.00  0.00    +0.000 C 
BRANCH  15  16
ATOM     16  S   UNL     1       5.626   4.124  14.477  0.00  0.00    +0.000 S 
ATOM     17  C   UNL     1       6.311   3.709  12.849  0.00  0.00    +0.000 C 
ENDBRANCH  15  16
ENDBRANCH  12  15
ENDBRANCH  10  11
ENDBRANCH   1  10
TORSDOF 7
ENDMDL
MODEL 6
REMARK VINA RESULT:      -5.2      1.790      2.697
REMARK  Name = 
REMARK  9 active torsions:
REMARK  status: ('A' for Active; 'I' for Inactive)
REMARK    1  A    between atoms: C_1  and  C_2
REMARK    2  A    between atoms: C_2  and  C_3
REMARK    3  A    between atoms: N_7  and  C_8
REMARK    4  A    between atoms: C_8  and  C_9
REMARK    5  A    between atoms: C_9  and  C_10
REMARK    6  A    between atoms: C_10  and  N_11
REMARK    7  A    between atoms: C_12  and  C_14
REMARK    8  A    between atoms: C_14  and  S_15
REMARK    9  A    between atoms: S_15  and  C_16
REMARK                            x       y       z     vdW  Elec       q    Type
REMARK                         _______ _______ _______ _____ _____    ______ ____
ROOT
ATOM      1  C   UNL     1       3.899   6.466  17.640  0.00  0.00    +0.000 C 
ENDROOT
BRANCH   1   2
ATOM      2  C   UNL     1       4.245   5.068  17.135  0.00  0.00    +0.000 C 
BRANCH   2   7
ATOM      3  C   UNL     1       6.539   4.403  16.223  0.00  0.00    +0.000 A 
ATOM      4  N   UNL     1       7.776   4.377  16.684  0.00  0.00    +0.000 NA
ATOM      5  C   UNL     1       7.711   4.742  18.000  0.00  0.00    +0.000 A 
ATOM      6  C   UNL     1       6.413   5.012  18.355  0.00  0.00    +0.000 A 
ATOM      7  N   UNL     1       5.676   4.823  17.212  0.00  0.00    +0.000 N 
BRANCH   3   9
ATOM      8  C   UNL     1       6.891   4.684  13.723  0.00  0.00    +0.000 C 
ATOM      9  C   UNL     1       6.171   3.955  14.844  0.00  0.00    +0.000 C 
ENDBRANCH   3   9
ENDBRANCH   2   7
ENDBRANCH   1   2
BRANCH   1  10
ATOM     10  C   UNL     1       2.764   6.461  18.659  0.00  0.00    +0.000 C 
BRANCH  10  11
ATOM     11  N   UNL     1       2.137   5.152  18.725  0.00  0.00    +0.000 N 
ATOM     12  C   UNL     1       1.839   4.569  19.943  0.00  0.00    +0.000 C 
ATOM     13  O   UNL     1       1.939   5.163  21.014  0.00  0.00    +0.000 OA
ATOM     14  H   UNL     1       2.232   4.527  17.930  0.00  0.00    +0.000 HD
BRANCH  12  15
ATOM     15  C   UNL     1       1.376   3.124  19.858  0.00  0.00    +0.000 C 
BRANCH  15  16
ATOM     16  S   UNL     1       1.936   2.344  18.306  0.00  0.00    +0.000 S 
ATOM     17  C   UNL     1       3.577   1.783  18.841  0.00  0.00    +0.000 C 
ENDBRANCH  15  16
ENDBRANCH  12  15
ENDBRANCH  10  11
ENDBRANCH   1  10
TORSDOF 7
ENDMDL
MODEL 7
REMARK VINA RESULT:      -5.2      2.667      5.370
REMARK  Name = 
REMARK  9 active torsions:
REMARK  status: ('A' for Active; 'I' for Inactive)
REMARK    1  A    between atoms: C_1  and  C_2
REMARK    2  A    between atoms: C_2  and  C_3
REMARK    3  A    between atoms: N_7  and  C_8
REMARK    4  A    between atoms: C_8  and  C_9
REMARK    5  A    between atoms: C_9  and  C_10
REMARK    6  A    between atoms: C_10  and  N_11
REMARK    7  A    between atoms: C_12  and  C_14
REMARK    8  A    between atoms: C_14  and  S_15
REMARK    9  A    between atoms: S_15  and  C_16
REMARK                            x       y       z     vdW  Elec       q    Type
REMARK                         _______ _______ _______ _____ _____    ______ ____
ROOT
ATOM      1  C   UNL     1       2.730   6.315  18.817  0.00  0.00    +0.000 C 
ENDROOT
BRANCH   1   2
ATOM      2  C   UNL     1       3.536   5.196  19.473  0.00  0.00    +0.000 C 
BRANCH   2   7
ATOM      3  C   UNL     1       2.054   3.120  19.312  0.00  0.00    +0.000 A 
ATOM      4  N   UNL     1       2.008   2.038  18.555  0.00  0.00    +0.000 NA
ATOM      5  C   UNL     1       3.098   2.090  17.732  0.00  0.00    +0.000 A 
ATOM      6  C   UNL     1       3.822   3.230  17.975  0.00  0.00    +0.000 A 
ATOM      7  N   UNL     1       3.137   3.895  18.960  0.00  0.00    +0.000 N 
BRANCH   3   9
ATOM      8  C   UNL     1       1.470   2.742  21.756  0.00  0.00    +0.000 C 
ATOM      9  C   UNL     1       1.092   3.376  20.429  0.00  0.00    +0.000 C 
ENDBRANCH   3   9
ENDBRANCH   2   7
ENDBRANCH   1   2
BRANCH   1  10
ATOM     10  C   UNL     1       3.498   7.018  17.701  0.00  0.00    +0.000 C 
BRANCH  10  11
ATOM     11  N   UNL     1       4.890   6.602  17.693  0.00  0.00    +0.000 N 
ATOM     12  C   UNL     1       5.570   6.424  16.502  0.00  0.00    +0.000 C 
ATOM     13  O   UNL     1       5.105   6.743  15.410  0.00  0.00    +0.000 OA
ATOM     14  H   UNL     1       5.257   6.117  18.506  0.00  0.00    +0.000 HD
BRANCH  12  15
ATOM     15  C   UNL     1       6.946   5.797  16.645  0.00  0.00    +0.000 C 
BRANCH  15  16
ATOM     16  S   UNL     1       7.539   5.897  18.369  0.00  0.00    +0.000 S 
ATOM     17  C   UNL     1       8.183   7.594  18.352  0.00  0.00    +0.000 C 
ENDBRANCH  15  16
ENDBRANCH  12  15
ENDBRANCH  10  11
ENDBRANCH   1  10
TORSDOF 7
ENDMDL
MODEL 8
REMARK VINA RESULT:      -5.1      2.873      5.324
REMARK  Name = 
REMARK  9 active torsions:
REMARK  status: ('A' for Active; 'I' for Inactive)
REMARK    1  A    between atoms: C_1  and  C_2
REMARK    2  A    between atoms: C_2  and  C_3
REMARK    3  A    between atoms: N_7  and  C_8
REMARK    4  A    between atoms: C_8  and  C_9
REMARK    5  A    between atoms: C_9  and  C_10
REMARK    6  A    between atoms: C_10  and  N_11
REMARK    7  A    between atoms: C_12  and  C_14
REMARK    8  A    between atoms: C_14  and  S_15
REMARK    9  A    between atoms: S_15  and  C_16
REMARK                            x       y       z     vdW  Elec       q    Type
REMARK                         _______ _______ _______ _____ _____    ______ ____
ROOT
ATOM      1  C   UNL     1       6.313   5.090  19.185  0.00  0.00    +0.000 C 
ENDROOT
BRANCH   1   2
ATOM      2  C   UNL     1       5.153   4.116  18.997  0.00  0.00    +0.000 C 
BRANCH   2   7
ATOM      3  C   UNL     1       2.774   4.279  18.077  0.00  0.00    +0.000 A 
ATOM      4  N   UNL     1       1.909   5.248  17.839  0.00  0.00    +0.000 NA
ATOM      5  C   UNL     1       2.552   6.423  18.113  0.00  0.00    +0.000 A 
ATOM      6  C   UNL     1       3.832   6.175  18.540  0.00  0.00    +0.000 A 
ATOM      7  N   UNL     1       3.957   4.808  18.544  0.00  0.00    +0.000 N 
BRANCH   3   9
ATOM      8  C   UNL     1       1.608   2.145  18.813  0.00  0.00    +0.000 C 
ATOM      9  C   UNL     1       2.487   2.839  17.788  0.00  0.00    +0.000 C 
ENDBRANCH   3   9
ENDBRANCH   2   7
ENDBRANCH   1   2
BRANCH   1  10
ATOM     10  C   UNL     1       7.361   4.979  18.082  0.00  0.00    +0.000 C 
BRANCH  10  11
ATOM     11  N   UNL     1       6.858   4.188  16.972  0.00  0.00    +0.000 N 
ATOM     12  C   UNL     1       6.872   4.686  15.682  0.00  0.00    +0.000 C 
ATOM     13  O   UNL     1       7.433   5.735  15.375  0.00  0.00    +0.000 OA
ATOM     14  H   UNL     1       6.198   3.442  17.167  0.00  0.00    +0.000 HD
BRANCH  12  15
ATOM     15  C   UNL     1       6.134   3.833  14.665  0.00  0.00    +0.000 C 
BRANCH  15  16
ATOM     16  S   UNL     1       6.790   4.100  12.983  0.00  0.00    +0.000 S 
ATOM     17  C   UNL     1       5.590   3.114  12.046  0.00  0.00    +0.000 C 
ENDBRANCH  15  16
ENDBRANCH  12  15
ENDBRANCH  10  11
ENDBRANCH   1  10
TORSDOF 7
ENDMDL
MODEL 9
REMARK VINA RESULT:      -5.1      1.798      2.659
REMARK  Name = 
REMARK  9 active torsions:
REMARK  status: ('A' for Active; 'I' for Inactive)
REMARK    1  A    between atoms: C_1  and  C_2
REMARK    2  A    between atoms: C_2  and  C_3
REMARK    3  A    between atoms: N_7  and  C_8
REMARK    4  A    between atoms: C_8  and  C_9
REMARK    5  A    between atoms: C_9  and  C_10
REMARK    6  A    between atoms: C_10  and  N_11
REMARK    7  A    between atoms: C_12  and  C_14
REMARK    8  A    between atoms: C_14  and  S_15
REMARK    9  A    between atoms: S_15  and  C_16
REMARK                            x       y       z     vdW  Elec       q    Type
REMARK                         _______ _______ _______ _____ _____    ______ ____
ROOT
ATOM      1  C   UNL     1       3.398   6.805  18.028  0.00  0.00    +0.000 C 
ENDROOT
BRANCH   1   2
ATOM      2  C   UNL     1       4.044   5.637  17.286  0.00  0.00    +0.000 C 
BRANCH   2   7
ATOM      3  C   UNL     1       6.318   5.214  16.199  0.00  0.00    +0.000 A 
ATOM      4  N   UNL     1       7.489   5.826  16.171  0.00  0.00    +0.000 NA
ATOM      5  C   UNL     1       7.391   6.898  17.012  0.00  0.00    +0.000 A 
ATOM      6  C   UNL     1       6.134   6.959  17.560  0.00  0.00    +0.000 A 
ATOM      7  N   UNL     1       5.448   5.902  17.016  0.00  0.00    +0.000 N 
BRANCH   3   9
ATOM      8  C   UNL     1       5.928   4.033  13.984  0.00  0.00    +0.000 C 
ATOM      9  C   UNL     1       6.054   3.922  15.493  0.00  0.00    +0.000 C 
ENDBRANCH   3   9
ENDBRANCH   2   7
ENDBRANCH   1   2
BRANCH   1  10
ATOM     10  C   UNL     1       2.694   6.372  19.310  0.00  0.00    +0.000 C 
BRANCH  10  11
ATOM     11  N   UNL     1       3.045   5.004  19.653  0.00  0.00    +0.000 N 
ATOM     12  C   UNL     1       2.175   4.210  20.377  0.00  0.00    +0.000 C 
ATOM     13  O   UNL     1       1.021   4.543  20.638  0.00  0.00    +0.000 OA
ATOM     14  H   UNL     1       4.026   4.745  19.674  0.00  0.00    +0.000 HD
BRANCH  12  15
ATOM     15  C   UNL     1       2.758   2.882  20.831  0.00  0.00    +0.000 C 
BRANCH  15  16
ATOM     16  S   UNL     1       4.235   2.443  19.853  0.00  0.00    +0.000 S 
ATOM     17  C   UNL     1       3.418   1.658  18.436  0.00  0.00    +0.000 C 
ENDBRANCH  15  16
ENDBRANCH  12  15
ENDBRANCH  10  11
ENDBRANCH   1  10
TORSDOF 7
ENDMDL
