MODEL 1
REMARK VINA RESULT:      -8.4      0.000      0.000
REMARK  Name = 
REMARK  6 active torsions:
REMARK  status: ('A' for Active; 'I' for Inactive)
REMARK    1  A    between atoms: C_1  and  N_2
REMARK    2  A    between atoms: N_2  and  C_3
REMARK    3  A    between atoms: N_2  and  C_4
REMARK    4  A    between atoms: C_6  and  N_7
REMARK    5  A    between atoms: C_9  and  C_10
REMARK    6  A    between atoms: C_17  and  C_18
REMARK                            x       y       z     vdW  Elec       q    Type
REMARK                         _______ _______ _______ _____ _____    ______ ____
ROOT
ATOM      1  C   UNL     1       2.764   3.858  19.414  0.00  0.00    +0.000 C 
ATOM      2  C   UNL     1       4.269   3.628  19.754  0.00  0.00    +0.000 C 
ATOM      3  C   UNL     1       5.080   4.939  19.620  0.00  0.00    +0.000 C 
ATOM      4  C   UNL     1       4.227   6.011  18.883  0.00  0.00    +0.000 C 
ATOM      5  C   UNL     1       3.081   6.371  19.892  0.00  0.00    +0.000 C 
ATOM      6  C   UNL     1       2.292   5.083  20.264  0.00  0.00    +0.000 C 
ATOM      7  C   UNL     1       3.606   5.447  17.572  0.00  0.00    +0.000 C 
ATOM      8  C   UNL     1       2.627   4.307  17.926  0.00  0.00    +0.000 C 
ENDROOT
BRANCH   5   9
ATOM      9  C   UNL     1       2.218   7.566  19.505  0.00  0.00    +0.000 A 
ATOM     10  C   UNL     1       1.402   8.245  20.422  0.00  0.00    +0.000 A 
ATOM     11  C   UNL     1       0.676   9.379  20.048  0.00  0.00    +0.000 A 
ATOM     12  C   UNL     1       0.755   9.857  18.746  0.00  0.00    +0.000 A 
ATOM     13  C   UNL     1       1.547   9.190  17.814  0.00  0.00    +0.000 A 
ATOM     14  C   UNL     1       2.265   8.050  18.187  0.00  0.00    +0.000 A 
ENDBRANCH   5   9
BRANCH   7  15
ATOM     15  C   UNL     1       4.595   5.072  16.468  0.00  0.00    +0.000 A 
ATOM     16  C   UNL     1       5.352   6.029  15.766  0.00  0.00    +0.000 A 
ATOM     17  C   UNL     1       6.289   5.661  14.802  0.00  0.00    +0.000 A 
ATOM     18  C   UNL     1       6.496   4.315  14.522  0.00  0.00    +0.000 A 
ATOM     19  C   UNL     1       5.754   3.346  15.196  0.00  0.00    +0.000 A 
ATOM     20  C   UNL     1       4.806   3.720  16.151  0.00  0.00    +0.000 A 
ENDBRANCH   7  15
BRANCH   1  22
ATOM     21  C   UNL     1       1.368   2.539  21.006  0.00  0.00    +0.000 C 
ATOM     22  N   UNL     1       1.895   2.668  19.641  0.00  0.00    +0.000 NA
ATOM     23  C   UNL     1       0.788   2.524  18.694  0.00  0.00    +0.000 C 
ENDBRANCH   1  22
BRANCH   3  24
ATOM     24  N   UNL     1       6.422   4.735  19.077  0.00  0.00    +0.000 NA
ATOM     25  H   UNL     1       7.031   4.286  19.763  0.00  0.00    +0.000 HD
ATOM     26  H   UNL     1       6.868   5.620  18.842  0.00  0.00    +0.000 HD
ENDBRANCH   3  24
TORSDOF 4
ENDMDL
MODEL 2
REMARK VINA RESULT:      -8.3      0.091      1.391
REMARK  Name = 
REMARK  6 active torsions:
REMARK  status: ('A' for Active; 'I' for Inactive)
REMARK    1  A    between atoms: C_1  and  N_2
REMARK    2  A    between atoms: N_2  and  C_3
REMARK    3  A    between atoms: N_2  and  C_4
REMARK    4  A    between atoms: C_6  and  N_7
REMARK    5  A    between atoms: C_9  and  C_10
REMARK    6  A    between atoms: C_17  and  C_18
REMARK                            x       y       z     vdW  Elec       q    Type
REMARK                         _______ _______ _______ _____ _____    ______ ____
ROOT
ATOM      1  C   UNL     1       2.762   3.858  19.384  0.00  0.00    +0.000 C 
ATOM      2  C   UNL     1       4.255   3.597  19.749  0.00  0.00    +0.000 C 
ATOM      3  C   UNL     1       5.096   4.890  19.626  0.00  0.00    +0.000 C 
ATOM      4  C   UNL     1       4.280   5.978  18.873  0.00  0.00    +0.000 C 
ATOM      5  C   UNL     1       3.125   6.365  19.861  0.00  0.00    +0.000 C 
ATOM      6  C   UNL     1       2.302   5.096  20.223  0.00  0.00    +0.000 C 
ATOM      7  C   UNL     1       3.668   5.424  17.553  0.00  0.00    +0.000 C 
ATOM      8  C   UNL     1       2.659   4.306  17.893  0.00  0.00    +0.000 C 
ENDROOT
BRANCH   5   9
ATOM      9  C   UNL     1       2.294   7.577  19.458  0.00  0.00    +0.000 A 
ATOM     10  C   UNL     1       2.245   8.064  18.144  0.00  0.00    +0.000 A 
ATOM     11  C   UNL     1       1.420   9.137  17.795  0.00  0.00    +0.000 A 
ATOM     12  C   UNL     1       0.622   9.741  18.759  0.00  0.00    +0.000 A 
ATOM     13  C   UNL     1       0.664   9.285  20.074  0.00  0.00    +0.000 A 
ATOM     14  C   UNL     1       1.499   8.219  20.423  0.00  0.00    +0.000 A 
ENDBRANCH   5   9
BRANCH   7  15
ATOM     15  C   UNL     1       4.667   5.025  16.466  0.00  0.00    +0.000 A 
ATOM     16  C   UNL     1       4.889   3.687  16.090  0.00  0.00    +0.000 A 
ATOM     17  C   UNL     1       5.764   3.350  15.058  0.00  0.00    +0.000 A 
ATOM     18  C   UNL     1       6.434   4.353  14.368  0.00  0.00    +0.000 A 
ATOM     19  C   UNL     1       6.239   5.687  14.725  0.00  0.00    +0.000 A 
ATOM     20  C   UNL     1       5.374   6.019  15.769  0.00  0.00    +0.000 A 
ENDBRANCH   7  15
BRANCH   1  22
ATOM     21  C   UNL     1       1.330   2.561  20.961  0.00  0.00    +0.000 C 
ATOM     22  N   UNL     1       1.864   2.688  19.598  0.00  0.00    +0.000 NA
ATOM     23  C   UNL     1       0.757   2.577  18.647  0.00  0.00    +0.000 C 
ENDBRANCH   1  22
BRANCH   3  24
ATOM     24  N   UNL     1       6.442   4.656  19.106  0.00  0.00    +0.000 NA
ATOM     25  H   UNL     1       6.416   4.079  18.264  0.00  0.00    +0.000 HD
ATOM     26  H   UNL     1       7.018   4.149  19.776  0.00  0.00    +0.000 HD
ENDBRANCH   3  24
TORSDOF 4
ENDMDL
MODEL 3
REMARK VINA RESULT:      -8.2      0.394      1.222
REMARK  Name = 
REMARK  6 active torsions:
REMARK  status: ('A' for Active; 'I' for Inactive)
REMARK    1  A    between atoms: C_1  and  N_2
REMARK    2  A    between atoms: N_2  and  C_3
REMARK    3  A    between atoms: N_2  and  C_4
REMARK    4  A    between atoms: C_6  and  N_7
REMARK    5  A    between atoms: C_9  and  C_10
REMARK    6  A    between atoms: C_17  and  C_18
REMARK                            x       y       z     vdW  Elec       q    Type
REMARK                         _______ _______ _______ _____ _____    ______ ____
ROOT
ATOM      1  C   UNL     1       2.460   4.057  19.348  0.00  0.00    +0.000 C 
ATOM      2  C   UNL     1       3.921   3.739  19.788  0.00  0.00    +0.000 C 
ATOM      3  C   UNL     1       4.813   5.002  19.725  0.00  0.00    +0.000 C 
ATOM      4  C   UNL     1       4.076   6.126  18.944  0.00  0.00    +0.000 C 
ATOM      5  C   UNL     1       2.885   6.544  19.875  0.00  0.00    +0.000 C 
ATOM      6  C   UNL     1       2.000   5.302  20.177  0.00  0.00    +0.000 C 
ATOM      7  C   UNL     1       3.516   5.609  17.587  0.00  0.00    +0.000 C 
ATOM      8  C   UNL     1       2.452   4.524  17.860  0.00  0.00    +0.000 C 
ENDROOT
BRANCH   5   9
ATOM      9  C   UNL     1       2.120   7.790  19.443  0.00  0.00    +0.000 A 
ATOM     10  C   UNL     1       1.262   8.493  20.301  0.00  0.00    +0.000 A 
ATOM     11  C   UNL     1       0.629   9.670  19.893  0.00  0.00    +0.000 A 
ATOM     12  C   UNL     1       0.846  10.168  18.615  0.00  0.00    +0.000 A 
ATOM     13  C   UNL     1       1.682   9.479  17.739  0.00  0.00    +0.000 A 
ATOM     14  C   UNL     1       2.307   8.296  18.145  0.00  0.00    +0.000 A 
ENDBRANCH   5   9
BRANCH   7  15
ATOM     15  C   UNL     1       4.557   5.185  16.549  0.00  0.00    +0.000 A 
ATOM     16  C   UNL     1       4.803   3.838  16.224  0.00  0.00    +0.000 A 
ATOM     17  C   UNL     1       5.717   3.477  15.234  0.00  0.00    +0.000 A 
ATOM     18  C   UNL     1       6.402   4.465  14.537  0.00  0.00    +0.000 A 
ATOM     19  C   UNL     1       6.184   5.807  14.845  0.00  0.00    +0.000 A 
ATOM     20  C   UNL     1       5.279   6.164  15.847  0.00  0.00    +0.000 A 
ENDBRANCH   7  15
BRANCH   1  22
ATOM     21  C   UNL     1       1.889   1.698  18.774  0.00  0.00    +0.000 C 
ATOM     22  N   UNL     1       1.510   2.917  19.501  0.00  0.00    +0.000 NA
ATOM     23  C   UNL     1       1.192   2.561  20.884  0.00  0.00    +0.000 C 
ENDBRANCH   1  22
BRANCH   3  24
ATOM     24  N   UNL     1       6.176   4.725  19.274  0.00  0.00    +0.000 NA
ATOM     25  H   UNL     1       6.659   5.586  19.014  0.00  0.00    +0.000 HD
ATOM     26  H   UNL     1       6.181   4.138  18.441  0.00  0.00    +0.000 HD
ENDBRANCH   3  24
TORSDOF 4
ENDMDL
MODEL 4
REMARK VINA RESULT:      -8.0      3.011      5.097
REMARK  Name = 
REMARK  6 active torsions:
REMARK  status: ('A' for Active; 'I' for Inactive)
REMARK    1  A    between atoms: C_1  and  N_2
REMARK    2  A    between atoms: N_2  and  C_3
REMARK    3  A    between atoms: N_2  and  C_4
REMARK    4  A    between atoms: C_6  and  N_7
REMARK    5  A    between atoms: C_9  and  C_10
REMARK    6  A    between atoms: C_17  and  C_18
REMARK                            x       y       z     vdW  Elec       q    Type
REMARK                         _______ _______ _______ _____ _____    ______ ____
ROOT
ATOM      1  C   UNL     1       6.639   5.882  17.755  0.00  0.00    +0.000 C 
ATOM      2  C   UNL     1       6.295   7.051  16.782  0.00  0.00    +0.000 C 
ATOM      3  C   UNL     1       4.941   6.810  16.074  0.00  0.00    +0.000 C 
ATOM      4  C   UNL     1       4.485   5.340  16.297  0.00  0.00    +0.000 C 
ATOM      5  C   UNL     1       4.139   5.258  17.825  0.00  0.00    +0.000 C 
ATOM      6  C   UNL     1       5.383   5.667  18.664  0.00  0.00    +0.000 C 
ATOM      7  C   UNL     1       5.624   4.332  15.968  0.00  0.00    +0.000 C 
ATOM      8  C   UNL     1       6.797   4.557  16.947  0.00  0.00    +0.000 C 
ENDROOT
BRANCH   5   9
ATOM      9  C   UNL     1       3.454   3.973  18.274  0.00  0.00    +0.000 A 
ATOM     10  C   UNL     1       4.114   2.973  19.004  0.00  0.00    +0.000 A 
ATOM     11  C   UNL     1       3.437   1.838  19.458  0.00  0.00    +0.000 A 
ATOM     12  C   UNL     1       2.083   1.683  19.192  0.00  0.00    +0.000 A 
ATOM     13  C   UNL     1       1.409   2.655  18.457  0.00  0.00    +0.000 A 
ATOM     14  C   UNL     1       2.090   3.786  17.993  0.00  0.00    +0.000 A 
ENDBRANCH   5   9
BRANCH   7  15
ATOM     15  C   UNL     1       6.062   4.267  14.505  0.00  0.00    +0.000 A 
ATOM     16  C   UNL     1       7.255   4.853  14.041  0.00  0.00    +0.000 A 
ATOM     17  C   UNL     1       7.663   4.735  12.713  0.00  0.00    +0.000 A 
ATOM     18  C   UNL     1       6.884   4.014  11.815  0.00  0.00    +0.000 A 
ATOM     19  C   UNL     1       5.693   3.429  12.246  0.00  0.00    +0.000 A 
ATOM     20  C   UNL     1       5.281   3.564  13.574  0.00  0.00    +0.000 A 
ENDBRANCH   7  15
BRANCH   1  22
ATOM     21  C   UNL     1       8.318   7.498  18.644  0.00  0.00    +0.000 C 
ATOM     22  N   UNL     1       7.870   6.101  18.567  0.00  0.00    +0.000 NA
ATOM     23  C   UNL     1       7.822   5.547  19.922  0.00  0.00    +0.000 C 
ENDBRANCH   1  22
BRANCH   3  24
ATOM     24  N   UNL     1       4.929   7.258  14.682  0.00  0.00    +0.000 NA
ATOM     25  H   UNL     1       4.812   6.469  14.044  0.00  0.00    +0.000 HD
ATOM     26  H   UNL     1       5.810   7.699  14.424  0.00  0.00    +0.000 HD
ENDBRANCH   3  24
TORSDOF 4
ENDMDL
MODEL 5
REMARK VINA RESULT:      -7.8      3.009      5.194
REMARK  Name = 
REMARK  6 active torsions:
REMARK  status: ('A' for Active; 'I' for Inactive)
REMARK    1  A    between atoms: C_1  and  N_2
REMARK    2  A    between atoms: N_2  and  C_3
REMARK    3  A    between atoms: N_2  and  C_4
REMARK    4  A    between atoms: C_6  and  N_7
REMARK    5  A    between atoms: C_9  and  C_10
REMARK    6  A    between atoms: C_17  and  C_18
REMARK                            x       y       z     vdW  Elec       q    Type
REMARK                         _______ _______ _______ _____ _____    ______ ____
ROOT
ATOM      1  C   UNL     1       6.674   5.927  17.796  0.00  0.00    +0.000 C 
ATOM      2  C   UNL     1       6.323   7.060  16.783  0.00  0.00    +0.000 C 
ATOM      3  C   UNL     1       4.969   6.788  16.086  0.00  0.00    +0.000 C 
ATOM      4  C   UNL     1       4.521   5.325  16.360  0.00  0.00    +0.000 C 
ATOM      5  C   UNL     1       4.177   5.294  17.891  0.00  0.00    +0.000 C 
ATOM      6  C   UNL     1       5.421   5.738  18.713  0.00  0.00    +0.000 C 
ATOM      7  C   UNL     1       5.664   4.311  16.065  0.00  0.00    +0.000 C 
ATOM      8  C   UNL     1       6.838   4.576  17.033  0.00  0.00    +0.000 C 
ENDROOT
BRANCH   5   9
ATOM      9  C   UNL     1       3.500   4.022  18.386  0.00  0.00    +0.000 A 
ATOM     10  C   UNL     1       2.243   3.601  17.929  0.00  0.00    +0.000 A 
ATOM     11  C   UNL     1       1.681   2.394  18.354  0.00  0.00    +0.000 A 
ATOM     12  C   UNL     1       2.372   1.581  19.244  0.00  0.00    +0.000 A 
ATOM     13  C   UNL     1       3.615   1.985  19.723  0.00  0.00    +0.000 A 
ATOM     14  C   UNL     1       4.171   3.198  19.306  0.00  0.00    +0.000 A 
ENDBRANCH   5   9
BRANCH   7  15
ATOM     15  C   UNL     1       6.101   4.198  14.604  0.00  0.00    +0.000 A 
ATOM     16  C   UNL     1       5.324   3.549  13.625  0.00  0.00    +0.000 A 
ATOM     17  C   UNL     1       5.715   3.506  12.288  0.00  0.00    +0.000 A 
ATOM     18  C   UNL     1       6.896   4.125  11.896  0.00  0.00    +0.000 A 
ATOM     19  C   UNL     1       7.689   4.768  12.846  0.00  0.00    +0.000 A 
ATOM     20  C   UNL     1       7.301   4.795  14.187  0.00  0.00    +0.000 A 
ENDBRANCH   7  15
BRANCH   1  22
ATOM     21  C   UNL     1       8.312   7.590  18.675  0.00  0.00    +0.000 C 
ATOM     22  N   UNL     1       7.905   6.180  18.598  0.00  0.00    +0.000 NA
ATOM     23  C   UNL     1       7.885   5.622  19.951  0.00  0.00    +0.000 C 
ENDBRANCH   1  22
BRANCH   3  24
ATOM     24  N   UNL     1       4.953   7.187  14.679  0.00  0.00    +0.000 NA
ATOM     25  H   UNL     1       5.262   8.154  14.568  0.00  0.00    +0.000 HD
ATOM     26  H   UNL     1       4.012   7.147  14.291  0.00  0.00    +0.000 HD
ENDBRANCH   3  24
TORSDOF 4
ENDMDL
MODEL 6
REMARK VINA RESULT:      -7.6      2.828      4.985
REMARK  Name = 
REMARK  6 active torsions:
REMARK  status: ('A' for Active; 'I' for Inactive)
REMARK    1  A    between atoms: C_1  and  N_2
REMARK    2  A    between atoms: N_2  and  C_3
REMARK    3  A    between atoms: N_2  and  C_4
REMARK    4  A    between atoms: C_6  and  N_7
REMARK    5  A    between atoms: C_9  and  C_10
REMARK    6  A    between atoms: C_17  and  C_18
REMARK                            x       y       z     vdW  Elec       q    Type
REMARK                         _______ _______ _______ _____ _____    ______ ____
ROOT
ATOM      1  C   UNL     1       6.330   5.975  18.061  0.00  0.00    +0.000 C 
ATOM      2  C   UNL     1       6.072   7.115  17.029  0.00  0.00    +0.000 C 
ATOM      3  C   UNL     1       4.782   6.854  16.216  0.00  0.00    +0.000 C 
ATOM      4  C   UNL     1       4.307   5.391  16.441  0.00  0.00    +0.000 C 
ATOM      5  C   UNL     1       3.832   5.352  17.936  0.00  0.00    +0.000 C 
ATOM      6  C   UNL     1       5.001   5.785  18.865  0.00  0.00    +0.000 C 
ATOM      7  C   UNL     1       5.468   4.374  16.238  0.00  0.00    +0.000 C 
ATOM      8  C   UNL     1       6.554   4.628  17.306  0.00  0.00    +0.000 C 
ENDROOT
BRANCH   5   9
ATOM      9  C   UNL     1       3.109   4.079  18.361  0.00  0.00    +0.000 A 
ATOM     10  C   UNL     1       3.733   3.056  19.089  0.00  0.00    +0.000 A 
ATOM     11  C   UNL     1       3.022   1.933  19.522  0.00  0.00    +0.000 A 
ATOM     12  C   UNL     1       1.668   1.815  19.235  0.00  0.00    +0.000 A 
ATOM     13  C   UNL     1       1.030   2.811  18.499  0.00  0.00    +0.000 A 
ATOM     14  C   UNL     1       1.745   3.929  18.058  0.00  0.00    +0.000 A 
ENDBRANCH   5   9
BRANCH   7  15
ATOM     15  C   UNL     1       6.028   4.269  14.820  0.00  0.00    +0.000 A 
ATOM     16  C   UNL     1       5.359   3.588  13.785  0.00  0.00    +0.000 A 
ATOM     17  C   UNL     1       5.861   3.552  12.485  0.00  0.00    +0.000 A 
ATOM     18  C   UNL     1       7.049   4.209  12.188  0.00  0.00    +0.000 A 
ATOM     19  C   UNL     1       7.737   4.884  13.195  0.00  0.00    +0.000 A 
ATOM     20  C   UNL     1       7.238   4.905  14.499  0.00  0.00    +0.000 A 
ENDBRANCH   7  15
BRANCH   1  22
ATOM     21  C   UNL     1       8.359   5.053  19.181  0.00  0.00    +0.000 C 
ATOM     22  N   UNL     1       7.488   6.217  18.968  0.00  0.00    +0.000 NA
ATOM     23  C   UNL     1       8.319   7.368  18.612  0.00  0.00    +0.000 C 
ENDBRANCH   1  22
BRANCH   3  24
ATOM     24  N   UNL     1       4.890   7.262  14.816  0.00  0.00    +0.000 NA
ATOM     25  H   UNL     1       4.391   6.614  14.205  0.00  0.00    +0.000 HD
ATOM     26  H   UNL     1       5.858   7.258  14.499  0.00  0.00    +0.000 HD
ENDBRANCH   3  24
TORSDOF 4
ENDMDL
MODEL 7
REMARK VINA RESULT:      -7.3      1.517      4.821
REMARK  Name = 
REMARK  6 active torsions:
REMARK  status: ('A' for Active; 'I' for Inactive)
REMARK    1  A    between atoms: C_1  and  N_2
REMARK    2  A    between atoms: N_2  and  C_3
REMARK    3  A    between atoms: N_2  and  C_4
REMARK    4  A    between atoms: C_6  and  N_7
REMARK    5  A    between atoms: C_9  and  C_10
REMARK    6  A    between atoms: C_17  and  C_18
REMARK                            x       y       z     vdW  Elec       q    Type
REMARK                         _______ _______ _______ _____ _____    ______ ____
ROOT
ATOM      1  C   UNL     1       4.948   5.799  17.895  0.00  0.00    +0.000 C 
ATOM      2  C   UNL     1       4.341   4.585  17.127  0.00  0.00    +0.000 C 
ATOM      3  C   UNL     1       2.795   4.613  17.167  0.00  0.00    +0.000 C 
ATOM      4  C   UNL     1       2.316   5.652  18.220  0.00  0.00    +0.000 C 
ATOM      5  C   UNL     1       2.709   7.045  17.615  0.00  0.00    +0.000 C 
ATOM      6  C   UNL     1       4.241   7.081  17.344  0.00  0.00    +0.000 C 
ATOM      7  C   UNL     1       3.038   5.458  19.586  0.00  0.00    +0.000 C 
ATOM      8  C   UNL     1       4.548   5.718  19.401  0.00  0.00    +0.000 C 
ENDROOT
BRANCH   5   9
ATOM      9  C   UNL     1       2.157   8.260  18.350  0.00  0.00    +0.000 A 
ATOM     10  C   UNL     1       2.033   9.521  17.751  0.00  0.00    +0.000 A 
ATOM     11  C   UNL     1       1.459  10.598  18.434  0.00  0.00    +0.000 A 
ATOM     12  C   UNL     1       0.995  10.429  19.732  0.00  0.00    +0.000 A 
ATOM     13  C   UNL     1       1.121   9.189  20.353  0.00  0.00    +0.000 A 
ATOM     14  C   UNL     1       1.705   8.116  19.673  0.00  0.00    +0.000 A 
ENDBRANCH   5   9
BRANCH   7  15
ATOM     15  C   UNL     1       2.736   4.154  20.325  0.00  0.00    +0.000 A 
ATOM     16  C   UNL     1       3.700   3.144  20.512  0.00  0.00    +0.000 A 
ATOM     17  C   UNL     1       3.419   1.987  21.237  0.00  0.00    +0.000 A 
ATOM     18  C   UNL     1       2.161   1.818  21.804  0.00  0.00    +0.000 A 
ATOM     19  C   UNL     1       1.185   2.798  21.628  0.00  0.00    +0.000 A 
ATOM     20  C   UNL     1       1.466   3.949  20.887  0.00  0.00    +0.000 A 
ENDBRANCH   7  15
BRANCH   1  22
ATOM     21  C   UNL     1       7.078   4.845  17.014  0.00  0.00    +0.000 C 
ATOM     22  N   UNL     1       6.432   5.908  17.796  0.00  0.00    +0.000 NA
ATOM     23  C   UNL     1       6.925   7.204  17.325  0.00  0.00    +0.000 C 
ENDBRANCH   1  22
BRANCH   3  24
ATOM     24  N   UNL     1       2.196   3.286  17.290  0.00  0.00    +0.000 NA
ATOM     25  H   UNL     1       1.494   3.131  16.565  0.00  0.00    +0.000 HD
ATOM     26  H   UNL     1       1.710   3.176  18.179  0.00  0.00    +0.000 HD
ENDBRANCH   3  24
TORSDOF 4
ENDMDL
MODEL 8
REMARK VINA RESULT:      -7.2      1.446      4.722
REMARK  Name = 
REMARK  6 active torsions:
REMARK  status: ('A' for Active; 'I' for Inactive)
REMARK    1  A    between atoms: C_1  and  N_2
REMARK    2  A    between atoms: N_2  and  C_3
REMARK    3  A    between atoms: N_2  and  C_4
REMARK    4  A    between atoms: C_6  and  N_7
REMARK    5  A    between atoms: C_9  and  C_10
REMARK    6  A    between atoms: C_17  and  C_18
REMARK                            x       y       z     vdW  Elec       q    Type
REMARK                         _______ _______ _______ _____ _____    ______ ____
ROOT
ATOM      1  C   UNL     1       4.840   5.924  17.875  0.00  0.00    +0.000 C 
ATOM      2  C   UNL     1       4.214   4.702  17.137  0.00  0.00    +0.000 C 
ATOM      3  C   UNL     1       2.670   4.724  17.227  0.00  0.00    +0.000 C 
ATOM      4  C   UNL     1       2.220   5.769  18.287  0.00  0.00    +0.000 C 
ATOM      5  C   UNL     1       2.588   7.158  17.658  0.00  0.00    +0.000 C 
ATOM      6  C   UNL     1       4.109   7.199  17.338  0.00  0.00    +0.000 C 
ATOM      7  C   UNL     1       2.987   5.588  19.630  0.00  0.00    +0.000 C 
ATOM      8  C   UNL     1       4.490   5.854  19.393  0.00  0.00    +0.000 C 
ENDROOT
BRANCH   5   9
ATOM      9  C   UNL     1       2.055   8.377  18.402  0.00  0.00    +0.000 A 
ATOM     10  C   UNL     1       1.985   9.652  17.824  0.00  0.00    +0.000 A 
ATOM     11  C   UNL     1       1.427  10.734  18.512  0.00  0.00    +0.000 A 
ATOM     12  C   UNL     1       0.924  10.556  19.795  0.00  0.00    +0.000 A 
ATOM     13  C   UNL     1       0.996   9.302  20.396  0.00  0.00    +0.000 A 
ATOM     14  C   UNL     1       1.564   8.224  19.711  0.00  0.00    +0.000 A 
ENDBRANCH   5   9
BRANCH   7  15
ATOM     15  C   UNL     1       2.716   4.288  20.388  0.00  0.00    +0.000 A 
ATOM     16  C   UNL     1       1.466   3.989  20.963  0.00  0.00    +0.000 A 
ATOM     17  C   UNL     1       1.224   2.773  21.602  0.00  0.00    +0.000 A 
ATOM     18  C   UNL     1       2.233   1.821  21.672  0.00  0.00    +0.000 A 
ATOM     19  C   UNL     1       3.484   2.094  21.119  0.00  0.00    +0.000 A 
ATOM     20  C   UNL     1       3.726   3.319  20.493  0.00  0.00    +0.000 A 
ENDBRANCH   7  15
BRANCH   1  22
ATOM     21  C   UNL     1       7.094   5.586  18.891  0.00  0.00    +0.000 C 
ATOM     22  N   UNL     1       6.320   6.039  17.727  0.00  0.00    +0.000 NA
ATOM     23  C   UNL     1       6.869   5.412  16.523  0.00  0.00    +0.000 C 
ENDBRANCH   1  22
BRANCH   3  24
ATOM     24  N   UNL     1       2.080   3.395  17.379  0.00  0.00    +0.000 NA
ATOM     25  H   UNL     1       2.803   2.675  17.417  0.00  0.00    +0.000 HD
ATOM     26  H   UNL     1       1.488   3.156  16.585  0.00  0.00    +0.000 HD
ENDBRANCH   3  24
TORSDOF 4
ENDMDL
MODEL 9
REMARK VINA RESULT:      -7.2      1.469      4.664
REMARK  Name = 
REMARK  6 active torsions:
REMARK  status: ('A' for Active; 'I' for Inactive)
REMARK    1  A    between atoms: C_1  and  N_2
REMARK    2  A    between atoms: N_2  and  C_3
REMARK    3  A    between atoms: N_2  and  C_4
REMARK    4  A    between atoms: C_6  and  N_7
REMARK    5  A    between atoms: C_9  and  C_10
REMARK    6  A    between atoms: C_17  and  C_18
REMARK                            x       y       z     vdW  Elec       q    Type
REMARK                         _______ _______ _______ _____ _____    ______ ____
ROOT
ATOM      1  C   UNL     1       4.841   5.943  17.894  0.00  0.00    +0.000 C 
ATOM      2  C   UNL     1       4.261   4.723  17.115  0.00  0.00    +0.000 C 
ATOM      3  C   UNL     1       2.715   4.706  17.170  0.00  0.00    +0.000 C 
ATOM      4  C   UNL     1       2.217   5.715  18.243  0.00  0.00    +0.000 C 
ATOM      5  C   UNL     1       2.564   7.128  17.654  0.00  0.00    +0.000 C 
ATOM      6  C   UNL     1       4.091   7.212  17.369  0.00  0.00    +0.000 C 
ATOM      7  C   UNL     1       2.958   5.522  19.598  0.00  0.00    +0.000 C 
ATOM      8  C   UNL     1       4.458   5.829  19.403  0.00  0.00    +0.000 C 
ENDROOT
BRANCH   5   9
ATOM      9  C   UNL     1       1.985   8.316  18.412  0.00  0.00    +0.000 A 
ATOM     10  C   UNL     1       1.539   8.228  19.739  0.00  0.00    +0.000 A 
ATOM     11  C   UNL     1       1.075   9.354  20.426  0.00  0.00    +0.000 A 
ATOM     12  C   UNL     1       1.054  10.592  19.797  0.00  0.00    +0.000 A 
ATOM     13  C   UNL     1       1.478  10.701  18.475  0.00  0.00    +0.000 A 
ATOM     14  C   UNL     1       1.931   9.572  17.785  0.00  0.00    +0.000 A 
ENDBRANCH   5   9
BRANCH   7  15
ATOM     15  C   UNL     1       2.701   4.200  20.321  0.00  0.00    +0.000 A 
ATOM     16  C   UNL     1       3.693   3.212  20.477  0.00  0.00    +0.000 A 
ATOM     17  C   UNL     1       3.453   2.037  21.188  0.00  0.00    +0.000 A 
ATOM     18  C   UNL     1       2.209   1.827  21.770  0.00  0.00    +0.000 A 
ATOM     19  C   UNL     1       1.205   2.784  21.624  0.00  0.00    +0.000 A 
ATOM     20  C   UNL     1       1.445   3.953  20.898  0.00  0.00    +0.000 A 
ENDBRANCH   7  15
BRANCH   1  22
ATOM     21  C   UNL     1       7.077   5.654  18.962  0.00  0.00    +0.000 C 
ATOM     22  N   UNL     1       6.320   6.096  17.783  0.00  0.00    +0.000 NA
ATOM     23  C   UNL     1       6.914   5.493  16.589  0.00  0.00    +0.000 C 
ENDBRANCH   1  22
BRANCH   3  24
ATOM     24  N   UNL     1       2.156   3.360  17.278  0.00  0.00    +0.000 NA
ATOM     25  H   UNL     1       1.709   3.076  16.405  0.00  0.00    +0.000 HD
ATOM     26  H   UNL     1       1.430   3.314  17.992  0.00  0.00    +0.000 HD
ENDBRANCH   3  24
TORSDOF 4
ENDMDL
