MODEL 1
REMARK VINA RESULT:      -6.5      0.000      0.000
REMARK  Name = 
REMARK  13 active torsions:
REMARK  status: ('A' for Active; 'I' for Inactive)
REMARK    1  A    between atoms: C_1  and  C_2
REMARK    2  A    between atoms: C_2  and  O_3
REMARK    3  A    between atoms: O_3  and  C_4
REMARK    4  A    between atoms: C_4  and  C_6
REMARK    5  A    between atoms: C_7  and  C_8
REMARK    6  A    between atoms: C_8  and  S_9
REMARK    7  A    between atoms: S_9  and  C_10
REMARK    8  A    between atoms: N_14  and  C_15
REMARK    9  A    between atoms: C_19  and  O_20
REMARK   10  A    between atoms: O_20  and  C_21
REMARK   11  A    between atoms: C_22  and  O_23
REMARK   12  A    between atoms: O_23  and  C_24
REMARK   13  A    between atoms: C_27  and  C_28
REMARK                            x       y       z     vdW  Elec       q    Type
REMARK                         _______ _______ _______ _____ _____    ______ ____
ROOT
ATOM      1  C   UNL     1      -0.455  11.245  19.964  0.00  0.00    +0.000 A 
ATOM      2  C   UNL     1       0.138  10.374  19.036  0.00  0.00    +0.000 A 
ATOM      3  N   UNL     1      -0.493  10.041  17.875  0.00  0.00    +0.000 NA
ATOM      4  C   UNL     1      -1.695  10.550  17.581  0.00  0.00    +0.000 A 
ATOM      5  C   UNL     1      -2.362  10.064  16.443  0.00  0.00    +0.000 A 
ATOM      6  C   UNL     1      -3.641  10.488  16.040  0.00  0.00    +0.000 A 
ATOM      7  C   UNL     1      -4.239  11.516  16.758  0.00  0.00    +0.000 A 
ATOM      8  C   UNL     1      -3.533  12.032  17.869  0.00  0.00    +0.000 A 
ATOM      9  C   UNL     1      -2.308  11.512  18.376  0.00  0.00    +0.000 A 
ATOM     10  C   UNL     1      -1.695  11.876  19.641  0.00  0.00    +0.000 A 
ENDROOT
BRANCH  10  11
ATOM     11  C   UNL     1      -2.354  12.860  20.579  0.00  0.00    +0.000 A 
ATOM     12  C   UNL     1      -1.978  14.220  20.632  0.00  0.00    +0.000 A 
ATOM     13  C   UNL     1      -2.547  15.118  21.547  0.00  0.00    +0.000 A 
ATOM     14  C   UNL     1      -3.597  14.705  22.353  0.00  0.00    +0.000 A 
ATOM     15 CL   UNL     1      -4.349  15.818  23.426  0.00  0.00    +0.000 Cl
ATOM     16  C   UNL     1      -4.046  13.393  22.284  0.00  0.00    +0.000 A 
ATOM     17  C   UNL     1      -3.399  12.474  21.445  0.00  0.00    +0.000 A 
ENDBRANCH  10  11
BRANCH   1  18
ATOM     18  C   UNL     1       0.125  11.376  21.333  0.00  0.00    +0.000 C 
ATOM     19  O   UNL     1       1.131  12.019  21.578  0.00  0.00    +0.000 OA
BRANCH  18  20
ATOM     20  O   UNL     1      -0.594  10.670  22.240  0.00  0.00    +0.000 OA
BRANCH  20  22
ATOM     21  C   UNL     1      -0.428   8.221  21.924  0.00  0.00    +0.000 C 
ATOM     22  C   UNL     1      -0.002   9.447  22.719  0.00  0.00    +0.000 C 
ENDBRANCH  20  22
ENDBRANCH  18  20
ENDBRANCH   1  18
BRANCH   6  23
ATOM     23  O   UNL     1      -4.192   9.672  15.092  0.00  0.00    +0.000 OA
ATOM     24  C   UNL     1      -3.951   9.952  13.721  0.00  0.00    +0.000 C 
ENDBRANCH   6  23
BRANCH   7  25
ATOM     25  O   UNL     1      -5.449  12.125  16.704  0.00  0.00    +0.000 OA
ATOM     26  C   UNL     1      -6.313  12.278  17.800  0.00  0.00    +0.000 C 
ENDBRANCH   7  25
BRANCH   2  27
ATOM     27  C   UNL     1       1.515   9.755  19.264  0.00  0.00    +0.000 C 
BRANCH  27  28
ATOM     28  S   UNL     1       2.202   8.822  17.858  0.00  0.00    +0.000 S 
BRANCH  28  29
ATOM     29  C   UNL     1       2.658   7.350  18.643  0.00  0.00    +0.000 A 
ATOM     30  N   UNL     1       2.104   6.845  19.721  0.00  0.00    +0.000 NA
ATOM     31  C   UNL     1       2.788   5.682  19.968  0.00  0.00    +0.000 A 
ATOM     32  C   UNL     1       3.775   5.485  19.029  0.00  0.00    +0.000 A 
ATOM     33  N   UNL     1       3.677   6.558  18.181  0.00  0.00    +0.000 N 
ATOM     34  C   UNL     1       4.504   6.784  17.021  0.00  0.00    +0.000 C 
ENDBRANCH  28  29
ENDBRANCH  27  28
ENDBRANCH   2  27
TORSDOF 9
ENDMDL
MODEL 2
REMARK VINA RESULT:      -6.5      0.715      1.434
REMARK  Name = 
REMARK  13 active torsions:
REMARK  status: ('A' for Active; 'I' for Inactive)
REMARK    1  A    between atoms: C_1  and  C_2
REMARK    2  A    between atoms: C_2  and  O_3
REMARK    3  A    between atoms: O_3  and  C_4
REMARK    4  A    between atoms: C_4  and  C_6
REMARK    5  A    between atoms: C_7  and  C_8
REMARK    6  A    between atoms: C_8  and  S_9
REMARK    7  A    between atoms: S_9  and  C_10
REMARK    8  A    between atoms: N_14  and  C_15
REMARK    9  A    between atoms: C_19  and  O_20
REMARK   10  A    between atoms: O_20  and  C_21
REMARK   11  A    between atoms: C_22  and  O_23
REMARK   12  A    between atoms: O_23  and  C_24
REMARK   13  A    between atoms: C_27  and  C_28
REMARK                            x       y       z     vdW  Elec       q    Type
REMARK                         _______ _______ _______ _____ _____    ______ ____
ROOT
ATOM      1  C   UNL     1      -0.491  11.013  20.046  0.00  0.00    +0.000 A 
ATOM      2  C   UNL     1       0.096  10.155  19.102  0.00  0.00    +0.000 A 
ATOM      3  N   UNL     1      -0.515   9.884  17.915  0.00  0.00    +0.000 NA
ATOM      4  C   UNL     1      -1.692  10.443  17.610  0.00  0.00    +0.000 A 
ATOM      5  C   UNL     1      -2.346  10.020  16.440  0.00  0.00    +0.000 A 
ATOM      6  C   UNL     1      -3.600  10.500  16.021  0.00  0.00    +0.000 A 
ATOM      7  C   UNL     1      -4.181  11.522  16.760  0.00  0.00    +0.000 A 
ATOM      8  C   UNL     1      -3.487  11.976  17.906  0.00  0.00    +0.000 A 
ATOM      9  C   UNL     1      -2.293  11.397  18.424  0.00  0.00    +0.000 A 
ATOM     10  C   UNL     1      -1.701  11.696  19.716  0.00  0.00    +0.000 A 
ENDROOT
BRANCH  10  11
ATOM     11  C   UNL     1      -2.351  12.669  20.671  0.00  0.00    +0.000 A 
ATOM     12  C   UNL     1      -2.116  14.059  20.610  0.00  0.00    +0.000 A 
ATOM     13  C   UNL     1      -2.670  14.953  21.537  0.00  0.00    +0.000 A 
ATOM     14  C   UNL     1      -3.575  14.492  22.480  0.00  0.00    +0.000 A 
ATOM     15 CL   UNL     1      -4.316  15.592  23.575  0.00  0.00    +0.000 Cl
ATOM     16  C   UNL     1      -3.890  13.140  22.532  0.00  0.00    +0.000 A 
ATOM     17  C   UNL     1      -3.247  12.238  21.673  0.00  0.00    +0.000 A 
ENDBRANCH  10  11
BRANCH   1  18
ATOM     18  C   UNL     1       0.058  11.077  21.432  0.00  0.00    +0.000 C 
ATOM     19  O   UNL     1      -0.049  10.171  22.240  0.00  0.00    +0.000 OA
BRANCH  18  20
ATOM     20  O   UNL     1       0.653  12.272  21.670  0.00  0.00    +0.000 OA
BRANCH  20  22
ATOM     21  C   UNL     1       1.491  14.153  20.295  0.00  0.00    +0.000 C 
ATOM     22  C   UNL     1       1.645  12.698  20.715  0.00  0.00    +0.000 C 
ENDBRANCH  20  22
ENDBRANCH  18  20
ENDBRANCH   1  18
BRANCH   6  23
ATOM     23  O   UNL     1      -4.153   9.737  15.031  0.00  0.00    +0.000 OA
ATOM     24  C   UNL     1      -3.789   9.992  13.683  0.00  0.00    +0.000 C 
ENDBRANCH   6  23
BRANCH   7  25
ATOM     25  O   UNL     1      -5.369  12.173  16.698  0.00  0.00    +0.000 OA
ATOM     26  C   UNL     1      -6.138  12.533  17.817  0.00  0.00    +0.000 C 
ENDBRANCH   7  25
BRANCH   2  27
ATOM     27  C   UNL     1       1.447   9.483  19.341  0.00  0.00    +0.000 C 
BRANCH  27  28
ATOM     28  S   UNL     1       2.173   8.639  17.899  0.00  0.00    +0.000 S 
BRANCH  28  29
ATOM     29  C   UNL     1       2.741   7.180  18.634  0.00  0.00    +0.000 A 
ATOM     30  N   UNL     1       2.258   6.624  19.722  0.00  0.00    +0.000 NA
ATOM     31  C   UNL     1       3.016   5.497  19.917  0.00  0.00    +0.000 A 
ATOM     32  C   UNL     1       3.975   5.374  18.938  0.00  0.00    +0.000 A 
ATOM     33  N   UNL     1       3.784   6.456  18.118  0.00  0.00    +0.000 N 
ATOM     34  C   UNL     1       4.552   6.751  16.933  0.00  0.00    +0.000 C 
ENDBRANCH  28  29
ENDBRANCH  27  28
ENDBRANCH   2  27
TORSDOF 9
ENDMDL
MODEL 3
REMARK VINA RESULT:      -6.4      1.370      2.180
REMARK  Name = 
REMARK  13 active torsions:
REMARK  status: ('A' for Active; 'I' for Inactive)
REMARK    1  A    between atoms: C_1  and  C_2
REMARK    2  A    between atoms: C_2  and  O_3
REMARK    3  A    between atoms: O_3  and  C_4
REMARK    4  A    between atoms: C_4  and  C_6
REMARK    5  A    between atoms: C_7  and  C_8
REMARK    6  A    between atoms: C_8  and  S_9
REMARK    7  A    between atoms: S_9  and  C_10
REMARK    8  A    between atoms: N_14  and  C_15
REMARK    9  A    between atoms: C_19  and  O_20
REMARK   10  A    between atoms: O_20  and  C_21
REMARK   11  A    between atoms: C_22  and  O_23
REMARK   12  A    between atoms: O_23  and  C_24
REMARK   13  A    between atoms: C_27  and  C_28
REMARK                            x       y       z     vdW  Elec       q    Type
REMARK                         _______ _______ _______ _____ _____    ______ ____
ROOT
ATOM      1  C   UNL     1      -1.151  11.588  21.000  0.00  0.00    +0.000 A 
ATOM      2  C   UNL     1      -0.333  10.751  20.224  0.00  0.00    +0.000 A 
ATOM      3  N   UNL     1      -0.700  10.369  18.969  0.00  0.00    +0.000 NA
ATOM      4  C   UNL     1      -1.850  10.796  18.434  0.00  0.00    +0.000 A 
ATOM      5  C   UNL     1      -2.248  10.260  17.198  0.00  0.00    +0.000 A 
ATOM      6  C   UNL     1      -3.447  10.596  16.543  0.00  0.00    +0.000 A 
ATOM      7  C   UNL     1      -4.237  11.588  17.109  0.00  0.00    +0.000 A 
ATOM      8  C   UNL     1      -3.798  12.157  18.326  0.00  0.00    +0.000 A 
ATOM      9  C   UNL     1      -2.667  11.722  19.074  0.00  0.00    +0.000 A 
ATOM     10  C   UNL     1      -2.340  12.134  20.428  0.00  0.00    +0.000 A 
ENDROOT
BRANCH  10  11
ATOM     11  C   UNL     1      -3.231  13.080  21.198  0.00  0.00    +0.000 A 
ATOM     12  C   UNL     1      -3.098  14.483  21.111  0.00  0.00    +0.000 A 
ATOM     13  C   UNL     1      -3.883  15.358  21.875  0.00  0.00    +0.000 A 
ATOM     14  C   UNL     1      -4.911  14.853  22.658  0.00  0.00    +0.000 A 
ATOM     15 CL   UNL     1      -5.926  15.923  23.541  0.00  0.00    +0.000 Cl
ATOM     16  C   UNL     1      -5.123  13.482  22.719  0.00  0.00    +0.000 A 
ATOM     17  C   UNL     1      -4.262  12.609  22.038  0.00  0.00    +0.000 A 
ENDBRANCH  10  11
BRANCH   1  18
ATOM     18  C   UNL     1      -0.862  11.767  22.453  0.00  0.00    +0.000 C 
ATOM     19  O   UNL     1      -1.075  10.909  23.292  0.00  0.00    +0.000 OA
BRANCH  18  20
ATOM     20  O   UNL     1      -0.367  13.003  22.707  0.00  0.00    +0.000 OA
BRANCH  20  22
ATOM     21  C   UNL     1       0.716  15.071  21.882  0.00  0.00    +0.000 C 
ATOM     22  C   UNL     1       0.477  13.580  21.691  0.00  0.00    +0.000 C 
ENDBRANCH  20  22
ENDBRANCH  18  20
ENDBRANCH   1  18
BRANCH   6  23
ATOM     23  O   UNL     1      -3.748   9.739  15.522  0.00  0.00    +0.000 OA
ATOM     24  C   UNL     1      -3.273  10.032  14.217  0.00  0.00    +0.000 C 
ENDBRANCH   6  23
BRANCH   7  25
ATOM     25  O   UNL     1      -5.449  12.116  16.806  0.00  0.00    +0.000 OA
ATOM     26  C   UNL     1      -6.455  12.392  17.747  0.00  0.00    +0.000 C 
ENDBRANCH   7  25
BRANCH   2  27
ATOM     27  C   UNL     1       1.008  10.225  20.730  0.00  0.00    +0.000 C 
BRANCH  27  28
ATOM     28  S   UNL     1       1.047   8.458  21.169  0.00  0.00    +0.000 S 
BRANCH  28  29
ATOM     29  C   UNL     1       1.883   7.806  19.802  0.00  0.00    +0.000 A 
ATOM     30  N   UNL     1       2.287   8.481  18.750  0.00  0.00    +0.000 NA
ATOM     31  C   UNL     1       2.895   7.555  17.940  0.00  0.00    +0.000 A 
ATOM     32  C   UNL     1       2.851   6.302  18.508  0.00  0.00    +0.000 A 
ATOM     33  N   UNL     1       2.205   6.477  19.705  0.00  0.00    +0.000 N 
ATOM     34  C   UNL     1       1.933   5.438  20.667  0.00  0.00    +0.000 C 
ENDBRANCH  28  29
ENDBRANCH  27  28
ENDBRANCH   2  27
TORSDOF 9
ENDMDL
MODEL 4
REMARK VINA RESULT:      -6.4      3.024      4.507
REMARK  Name = 
REMARK  13 active torsions:
REMARK  status: ('A' for Active; 'I' for Inactive)
REMARK    1  A    between atoms: C_1  and  C_2
REMARK    2  A    between atoms: C_2  and  O_3
REMARK    3  A    between atoms: O_3  and  C_4
REMARK    4  A    between atoms: C_4  and  C_6
REMARK    5  A    between atoms: C_7  and  C_8
REMARK    6  A    between atoms: C_8  and  S_9
REMARK    7  A    between atoms: S_9  and  C_10
REMARK    8  A    between atoms: N_14  and  C_15
REMARK    9  A    between atoms: C_19  and  O_20
REMARK   10  A    between atoms: O_20  and  C_21
REMARK   11  A    between atoms: C_22  and  O_23
REMARK   12  A    between atoms: O_23  and  C_24
REMARK   13  A    between atoms: C_27  and  C_28
REMARK                            x       y       z     vdW  Elec       q    Type
REMARK                         _______ _______ _______ _____ _____    ______ ____
ROOT
ATOM      1  C   UNL     1      -1.076  12.689  20.853  0.00  0.00    +0.000 A 
ATOM      2  C   UNL     1      -0.107  12.170  19.979  0.00  0.00    +0.000 A 
ATOM      3  N   UNL     1      -0.457  11.604  18.790  0.00  0.00    +0.000 NA
ATOM      4  C   UNL     1      -1.740  11.541  18.415  0.00  0.00    +0.000 A 
ATOM      5  C   UNL     1      -2.058  10.822  17.250  0.00  0.00    +0.000 A 
ATOM      6  C   UNL     1      -3.366  10.649  16.763  0.00  0.00    +0.000 A 
ATOM      7  C   UNL     1      -4.394  11.309  17.424  0.00  0.00    +0.000 A 
ATOM      8  C   UNL     1      -4.054  12.073  18.565  0.00  0.00    +0.000 A 
ATOM      9  C   UNL     1      -2.758  12.134  19.153  0.00  0.00    +0.000 A 
ATOM     10  C   UNL     1      -2.445  12.719  20.445  0.00  0.00    +0.000 A 
ENDROOT
BRANCH  10  11
ATOM     11  C   UNL     1      -3.522  13.311  21.322  0.00  0.00    +0.000 A 
ATOM     12  C   UNL     1      -3.913  14.664  21.230  0.00  0.00    +0.000 A 
ATOM     13  C   UNL     1      -4.869  15.227  22.088  0.00  0.00    +0.000 A 
ATOM     14  C   UNL     1      -5.550  14.418  22.984  0.00  0.00    +0.000 A 
ATOM     15 CL   UNL     1      -6.775  15.085  23.989  0.00  0.00    +0.000 Cl
ATOM     16  C   UNL     1      -5.247  13.064  23.060  0.00  0.00    +0.000 A 
ATOM     17  C   UNL     1      -4.213  12.533  22.276  0.00  0.00    +0.000 A 
ENDBRANCH  10  11
BRANCH   1  18
ATOM     18  C   UNL     1      -0.697  13.049  22.250  0.00  0.00    +0.000 C 
ATOM     19  O   UNL     1      -0.752  14.185  22.691  0.00  0.00    +0.000 OA
BRANCH  18  20
ATOM     20  O   UNL     1      -0.263  11.963  22.937  0.00  0.00    +0.000 OA
BRANCH  20  22
ATOM     21  C   UNL     1      -0.560   9.506  22.927  0.00  0.00    +0.000 C 
ATOM     22  C   UNL     1      -1.200  10.878  23.084  0.00  0.00    +0.000 C 
ENDBRANCH  20  22
ENDBRANCH  18  20
ENDBRANCH   1  18
BRANCH   6  23
ATOM     23  O   UNL     1      -3.447   9.683  15.801  0.00  0.00    +0.000 OA
ATOM     24  C   UNL     1      -3.119  10.018  14.462  0.00  0.00    +0.000 C 
ENDBRANCH   6  23
BRANCH   7  25
ATOM     25  O   UNL     1      -5.743  11.331  17.287  0.00  0.00    +0.000 OA
ATOM     26  C   UNL     1      -6.653  11.002  18.305  0.00  0.00    +0.000 C 
ENDBRANCH   7  25
BRANCH   2  27
ATOM     27  C   UNL     1       1.385  12.211  20.300  0.00  0.00    +0.000 C 
BRANCH  27  28
ATOM     28  S   UNL     1       2.368  13.397  19.327  0.00  0.00    +0.000 S 
BRANCH  28  29
ATOM     29  C   UNL     1       1.600  14.884  19.762  0.00  0.00    +0.000 A 
ATOM     30  N   UNL     1       0.691  15.519  19.058  0.00  0.00    +0.000 NA
ATOM     31  C   UNL     1       0.379  16.634  19.794  0.00  0.00    +0.000 A 
ATOM     32  C   UNL     1       1.114  16.676  20.957  0.00  0.00    +0.000 A 
ATOM     33  N   UNL     1       1.888  15.545  20.928  0.00  0.00    +0.000 N 
ATOM     34  C   UNL     1       2.823  15.147  21.952  0.00  0.00    +0.000 C 
ENDBRANCH  28  29
ENDBRANCH  27  28
ENDBRANCH   2  27
TORSDOF 9
ENDMDL
MODEL 5
REMARK VINA RESULT:      -6.4      3.740      7.263
REMARK  Name = 
REMARK  13 active torsions:
REMARK  status: ('A' for Active; 'I' for Inactive)
REMARK    1  A    between atoms: C_1  and  C_2
REMARK    2  A    between atoms: C_2  and  O_3
REMARK    3  A    between atoms: O_3  and  C_4
REMARK    4  A    between atoms: C_4  and  C_6
REMARK    5  A    between atoms: C_7  and  C_8
REMARK    6  A    between atoms: C_8  and  S_9
REMARK    7  A    between atoms: S_9  and  C_10
REMARK    8  A    between atoms: N_14  and  C_15
REMARK    9  A    between atoms: C_19  and  O_20
REMARK   10  A    between atoms: O_20  and  C_21
REMARK   11  A    between atoms: C_22  and  O_23
REMARK   12  A    between atoms: O_23  and  C_24
REMARK   13  A    between atoms: C_27  and  C_28
REMARK                            x       y       z     vdW  Elec       q    Type
REMARK                         _______ _______ _______ _____ _____    ______ ____
ROOT
ATOM      1  C   UNL     1      -0.448  11.325  20.753  0.00  0.00    +0.000 A 
ATOM      2  C   UNL     1      -1.532  12.125  21.150  0.00  0.00    +0.000 A 
ATOM      3  N   UNL     1      -2.646  12.244  20.373  0.00  0.00    +0.000 NA
ATOM      4  C   UNL     1      -2.740  11.586  19.211  0.00  0.00    +0.000 A 
ATOM      5  C   UNL     1      -3.844  11.855  18.384  0.00  0.00    +0.000 A 
ATOM      6  C   UNL     1      -4.048  11.261  17.125  0.00  0.00    +0.000 A 
ATOM      7  C   UNL     1      -3.152  10.279  16.721  0.00  0.00    +0.000 A 
ATOM      8  C   UNL     1      -2.075   9.980  17.587  0.00  0.00    +0.000 A 
ATOM      9  C   UNL     1      -1.774  10.678  18.792  0.00  0.00    +0.000 A 
ATOM     10  C   UNL     1      -0.553  10.540  19.565  0.00  0.00    +0.000 A 
ENDROOT
BRANCH  10  11
ATOM     11  C   UNL     1       0.561   9.624  19.117  0.00  0.00    +0.000 A 
ATOM     12  C   UNL     1       1.325   9.875  17.956  0.00  0.00    +0.000 A 
ATOM     13  C   UNL     1       2.316   8.991  17.507  0.00  0.00    +0.000 A 
ATOM     14  C   UNL     1       2.655   7.889  18.278  0.00  0.00    +0.000 A 
ATOM     15 CL   UNL     1       3.920   6.840  17.773  0.00  0.00    +0.000 Cl
ATOM     16  C   UNL     1       1.978   7.642  19.465  0.00  0.00    +0.000 A 
ATOM     17  C   UNL     1       0.913   8.471  19.850  0.00  0.00    +0.000 A 
ENDBRANCH  10  11
BRANCH   1  18
ATOM     18  C   UNL     1       0.852  11.427  21.478  0.00  0.00    +0.000 C 
ATOM     19  O   UNL     1       1.316  10.527  22.158  0.00  0.00    +0.000 OA
BRANCH  18  20
ATOM     20  O   UNL     1       1.418  12.647  21.303  0.00  0.00    +0.000 OA
BRANCH  20  22
ATOM     21  C   UNL     1       1.462  14.135  19.326  0.00  0.00    +0.000 C 
ATOM     22  C   UNL     1       2.019  12.900  20.018  0.00  0.00    +0.000 C 
ENDBRANCH  20  22
ENDBRANCH  18  20
ENDBRANCH   1  18
BRANCH   6  23
ATOM     23  O   UNL     1      -5.016  11.891  16.395  0.00  0.00    +0.000 OA
ATOM     24  C   UNL     1      -6.057  12.571  17.078  0.00  0.00    +0.000 C 
ENDBRANCH   6  23
BRANCH   7  25
ATOM     25  O   UNL     1      -2.998   9.552  15.586  0.00  0.00    +0.000 OA
ATOM     26  C   UNL     1      -3.049  10.084  14.287  0.00  0.00    +0.000 C 
ENDBRANCH   7  25
BRANCH   2  27
ATOM     27  C   UNL     1      -1.536  12.899  22.466  0.00  0.00    +0.000 C 
BRANCH  27  28
ATOM     28  S   UNL     1      -2.910  12.520  23.600  0.00  0.00    +0.000 S 
BRANCH  28  29
ATOM     29  C   UNL     1      -3.821  13.987  23.501  0.00  0.00    +0.000 A 
ATOM     30  N   UNL     1      -4.752  14.259  22.616  0.00  0.00    +0.000 NA
ATOM     31  C   UNL     1      -5.189  15.522  22.929  0.00  0.00    +0.000 A 
ATOM     32  C   UNL     1      -4.507  16.022  24.015  0.00  0.00    +0.000 A 
ATOM     33  N   UNL     1      -3.637  15.025  24.376  0.00  0.00    +0.000 N 
ATOM     34  C   UNL     1      -2.713  15.085  25.482  0.00  0.00    +0.000 C 
ENDBRANCH  28  29
ENDBRANCH  27  28
ENDBRANCH   2  27
TORSDOF 9
ENDMDL
MODEL 6
REMARK VINA RESULT:      -6.3      3.175      4.385
REMARK  Name = 
REMARK  13 active torsions:
REMARK  status: ('A' for Active; 'I' for Inactive)
REMARK    1  A    between atoms: C_1  and  C_2
REMARK    2  A    between atoms: C_2  and  O_3
REMARK    3  A    between atoms: O_3  and  C_4
REMARK    4  A    between atoms: C_4  and  C_6
REMARK    5  A    between atoms: C_7  and  C_8
REMARK    6  A    between atoms: C_8  and  S_9
REMARK    7  A    between atoms: S_9  and  C_10
REMARK    8  A    between atoms: N_14  and  C_15
REMARK    9  A    between atoms: C_19  and  O_20
REMARK   10  A    between atoms: O_20  and  C_21
REMARK   11  A    between atoms: C_22  and  O_23
REMARK   12  A    between atoms: O_23  and  C_24
REMARK   13  A    between atoms: C_27  and  C_28
REMARK                            x       y       z     vdW  Elec       q    Type
REMARK                         _______ _______ _______ _____ _____    ______ ____
ROOT
ATOM      1  C   UNL     1      -1.215  12.978  20.833  0.00  0.00    +0.000 A 
ATOM      2  C   UNL     1      -0.219  12.539  19.945  0.00  0.00    +0.000 A 
ATOM      3  N   UNL     1      -0.538  11.931  18.768  0.00  0.00    +0.000 NA
ATOM      4  C   UNL     1      -1.817  11.749  18.419  0.00  0.00    +0.000 A 
ATOM      5  C   UNL     1      -2.089  10.991  17.266  0.00  0.00    +0.000 A 
ATOM      6  C   UNL     1      -3.386  10.696  16.806  0.00  0.00    +0.000 A 
ATOM      7  C   UNL     1      -4.457  11.268  17.481  0.00  0.00    +0.000 A 
ATOM      8  C   UNL     1      -4.166  12.071  18.607  0.00  0.00    +0.000 A 
ATOM      9  C   UNL     1      -2.871  12.255  19.170  0.00  0.00    +0.000 A 
ATOM     10  C   UNL     1      -2.588  12.880  20.450  0.00  0.00    +0.000 A 
ENDROOT
BRANCH  10  11
ATOM     11  C   UNL     1      -3.698  13.382  21.343  0.00  0.00    +0.000 A 
ATOM     12  C   UNL     1      -4.315  12.564  22.314  0.00  0.00    +0.000 A 
ATOM     13  C   UNL     1      -5.388  13.012  23.098  0.00  0.00    +0.000 A 
ATOM     14  C   UNL     1      -5.794  14.335  23.015  0.00  0.00    +0.000 A 
ATOM     15 CL   UNL     1      -7.060  14.913  24.024  0.00  0.00    +0.000 Cl
ATOM     16  C   UNL     1      -5.168  15.195  22.121  0.00  0.00    +0.000 A 
ATOM     17  C   UNL     1      -4.170  14.709  21.264  0.00  0.00    +0.000 A 
ENDBRANCH  10  11
BRANCH   1  18
ATOM     18  C   UNL     1      -0.845  13.386  22.219  0.00  0.00    +0.000 C 
ATOM     19  O   UNL     1      -0.945  14.528  22.634  0.00  0.00    +0.000 OA
BRANCH  18  20
ATOM     20  O   UNL     1      -0.362  12.335  22.928  0.00  0.00    +0.000 OA
BRANCH  20  22
ATOM     21  C   UNL     1      -0.509   9.866  23.023  0.00  0.00    +0.000 C 
ATOM     22  C   UNL     1      -1.238  11.200  23.075  0.00  0.00    +0.000 C 
ENDBRANCH  20  22
ENDBRANCH  18  20
ENDBRANCH   1  18
BRANCH   6  23
ATOM     23  O   UNL     1      -3.397   9.715  15.855  0.00  0.00    +0.000 OA
ATOM     24  C   UNL     1      -3.339  10.086  14.486  0.00  0.00    +0.000 C 
ENDBRANCH   6  23
BRANCH   7  25
ATOM     25  O   UNL     1      -5.805  11.166  17.369  0.00  0.00    +0.000 OA
ATOM     26  C   UNL     1      -6.722  11.675  18.303  0.00  0.00    +0.000 C 
ENDBRANCH   7  25
BRANCH   2  27
ATOM     27  C   UNL     1       1.269  12.718  20.237  0.00  0.00    +0.000 C 
BRANCH  27  28
ATOM     28  S   UNL     1       2.345  12.876  18.776  0.00  0.00    +0.000 S 
BRANCH  28  29
ATOM     29  C   UNL     1       2.380  14.595  18.588  0.00  0.00    +0.000 A 
ATOM     30  N   UNL     1       1.363  15.410  18.748  0.00  0.00    +0.000 NA
ATOM     31  C   UNL     1       1.864  16.663  18.499  0.00  0.00    +0.000 A 
ATOM     32  C   UNL     1       3.200  16.603  18.177  0.00  0.00    +0.000 A 
ATOM     33  N   UNL     1       3.521  15.272  18.244  0.00  0.00    +0.000 N 
ATOM     34  C   UNL     1       4.829  14.715  17.998  0.00  0.00    +0.000 C 
ENDBRANCH  28  29
ENDBRANCH  27  28
ENDBRANCH   2  27
TORSDOF 9
ENDMDL
MODEL 7
REMARK VINA RESULT:      -6.3      3.812      7.282
REMARK  Name = 
REMARK  13 active torsions:
REMARK  status: ('A' for Active; 'I' for Inactive)
REMARK    1  A    between atoms: C_1  and  C_2
REMARK    2  A    between atoms: C_2  and  O_3
REMARK    3  A    between atoms: O_3  and  C_4
REMARK    4  A    between atoms: C_4  and  C_6
REMARK    5  A    between atoms: C_7  and  C_8
REMARK    6  A    between atoms: C_8  and  S_9
REMARK    7  A    between atoms: S_9  and  C_10
REMARK    8  A    between atoms: N_14  and  C_15
REMARK    9  A    between atoms: C_19  and  O_20
REMARK   10  A    between atoms: O_20  and  C_21
REMARK   11  A    between atoms: C_22  and  O_23
REMARK   12  A    between atoms: O_23  and  C_24
REMARK   13  A    between atoms: C_27  and  C_28
REMARK                            x       y       z     vdW  Elec       q    Type
REMARK                         _______ _______ _______ _____ _____    ______ ____
ROOT
ATOM      1  C   UNL     1      -0.421  11.328  20.748  0.00  0.00    +0.000 A 
ATOM      2  C   UNL     1      -1.499  12.135  21.145  0.00  0.00    +0.000 A 
ATOM      3  N   UNL     1      -2.616  12.255  20.374  0.00  0.00    +0.000 NA
ATOM      4  C   UNL     1      -2.720  11.591  19.217  0.00  0.00    +0.000 A 
ATOM      5  C   UNL     1      -3.827  11.860  18.394  0.00  0.00    +0.000 A 
ATOM      6  C   UNL     1      -4.041  11.258  17.140  0.00  0.00    +0.000 A 
ATOM      7  C   UNL     1      -3.152  10.270  16.737  0.00  0.00    +0.000 A 
ATOM      8  C   UNL     1      -2.072   9.971  17.599  0.00  0.00    +0.000 A 
ATOM      9  C   UNL     1      -1.761  10.676  18.798  0.00  0.00    +0.000 A 
ATOM     10  C   UNL     1      -0.536  10.536  19.565  0.00  0.00    +0.000 A 
ENDROOT
BRANCH  10  11
ATOM     11  C   UNL     1       0.572   9.612  19.117  0.00  0.00    +0.000 A 
ATOM     12  C   UNL     1       1.322   9.846  17.944  0.00  0.00    +0.000 A 
ATOM     13  C   UNL     1       2.307   8.953  17.496  0.00  0.00    +0.000 A 
ATOM     14  C   UNL     1       2.653   7.862  18.278  0.00  0.00    +0.000 A 
ATOM     15 CL   UNL     1       3.909   6.803  17.772  0.00  0.00    +0.000 Cl
ATOM     16  C   UNL     1       1.987   7.632  19.476  0.00  0.00    +0.000 A 
ATOM     17  C   UNL     1       0.929   8.468  19.861  0.00  0.00    +0.000 A 
ENDBRANCH  10  11
BRANCH   1  18
ATOM     18  C   UNL     1       0.884  11.428  21.465  0.00  0.00    +0.000 C 
ATOM     19  O   UNL     1       1.336  10.539  22.166  0.00  0.00    +0.000 OA
BRANCH  18  20
ATOM     20  O   UNL     1       1.468  12.634  21.257  0.00  0.00    +0.000 OA
BRANCH  20  22
ATOM     21  C   UNL     1       1.435  14.297  19.424  0.00  0.00    +0.000 C 
ATOM     22  C   UNL     1       1.881  12.925  19.907  0.00  0.00    +0.000 C 
ENDBRANCH  20  22
ENDBRANCH  18  20
ENDBRANCH   1  18
BRANCH   6  23
ATOM     23  O   UNL     1      -5.009  11.889  16.411  0.00  0.00    +0.000 OA
ATOM     24  C   UNL     1      -6.081  12.521  17.095  0.00  0.00    +0.000 C 
ENDBRANCH   6  23
BRANCH   7  25
ATOM     25  O   UNL     1      -3.007   9.536  15.606  0.00  0.00    +0.000 OA
ATOM     26  C   UNL     1      -2.995  10.069  14.306  0.00  0.00    +0.000 C 
ENDBRANCH   7  25
BRANCH   2  27
ATOM     27  C   UNL     1      -1.491  12.918  22.457  0.00  0.00    +0.000 C 
BRANCH  27  28
ATOM     28  S   UNL     1      -2.868  12.562  23.595  0.00  0.00    +0.000 S 
BRANCH  28  29
ATOM     29  C   UNL     1      -3.226  14.153  24.173  0.00  0.00    +0.000 A 
ATOM     30  N   UNL     1      -2.483  14.863  24.991  0.00  0.00    +0.000 NA
ATOM     31  C   UNL     1      -3.161  16.044  25.160  0.00  0.00    +0.000 A 
ATOM     32  C   UNL     1      -4.334  16.044  24.440  0.00  0.00    +0.000 A 
ATOM     33  N   UNL     1      -4.361  14.828  23.806  0.00  0.00    +0.000 N 
ATOM     34  C   UNL     1      -5.402  14.373  22.918  0.00  0.00    +0.000 C 
ENDBRANCH  28  29
ENDBRANCH  27  28
ENDBRANCH   2  27
TORSDOF 9
ENDMDL
MODEL 8
REMARK VINA RESULT:      -6.3      3.298      4.851
REMARK  Name = 
REMARK  13 active torsions:
REMARK  status: ('A' for Active; 'I' for Inactive)
REMARK    1  A    between atoms: C_1  and  C_2
REMARK    2  A    between atoms: C_2  and  O_3
REMARK    3  A    between atoms: O_3  and  C_4
REMARK    4  A    between atoms: C_4  and  C_6
REMARK    5  A    between atoms: C_7  and  C_8
REMARK    6  A    between atoms: C_8  and  S_9
REMARK    7  A    between atoms: S_9  and  C_10
REMARK    8  A    between atoms: N_14  and  C_15
REMARK    9  A    between atoms: C_19  and  O_20
REMARK   10  A    between atoms: O_20  and  C_21
REMARK   11  A    between atoms: C_22  and  O_23
REMARK   12  A    between atoms: O_23  and  C_24
REMARK   13  A    between atoms: C_27  and  C_28
REMARK                            x       y       z     vdW  Elec       q    Type
REMARK                         _______ _______ _______ _____ _____    ______ ____
ROOT
ATOM      1  C   UNL     1      -1.176  12.717  21.008  0.00  0.00    +0.000 A 
ATOM      2  C   UNL     1      -0.166  12.219  20.168  0.00  0.00    +0.000 A 
ATOM      3  N   UNL     1      -0.462  11.652  18.965  0.00  0.00    +0.000 NA
ATOM      4  C   UNL     1      -1.730  11.568  18.544  0.00  0.00    +0.000 A 
ATOM      5  C   UNL     1      -1.992  10.849  17.365  0.00  0.00    +0.000 A 
ATOM      6  C   UNL     1      -3.279  10.655  16.830  0.00  0.00    +0.000 A 
ATOM      7  C   UNL     1      -4.342  11.295  17.455  0.00  0.00    +0.000 A 
ATOM      8  C   UNL     1      -4.056  12.060  18.610  0.00  0.00    +0.000 A 
ATOM      9  C   UNL     1      -2.784  12.141  19.246  0.00  0.00    +0.000 A 
ATOM     10  C   UNL     1      -2.528  12.726  20.550  0.00  0.00    +0.000 A 
ENDROOT
BRANCH  10  11
ATOM     11  C   UNL     1      -3.647  13.296  21.389  0.00  0.00    +0.000 A 
ATOM     12  C   UNL     1      -4.150  14.601  21.192  0.00  0.00    +0.000 A 
ATOM     13  C   UNL     1      -5.145  15.151  22.013  0.00  0.00    +0.000 A 
ATOM     14  C   UNL     1      -5.752  14.363  22.979  0.00  0.00    +0.000 A 
ATOM     15 CL   UNL     1      -7.024  15.006  23.941  0.00  0.00    +0.000 Cl
ATOM     16  C   UNL     1      -5.337  13.050  23.161  0.00  0.00    +0.000 A 
ATOM     17  C   UNL     1      -4.266  12.544  22.410  0.00  0.00    +0.000 A 
ENDBRANCH  10  11
BRANCH   1  18
ATOM     18  C   UNL     1      -0.854  13.079  22.419  0.00  0.00    +0.000 C 
ATOM     19  O   UNL     1      -0.704  12.256  23.306  0.00  0.00    +0.000 OA
BRANCH  18  20
ATOM     20  O   UNL     1      -0.783  14.423  22.578  0.00  0.00    +0.000 OA
BRANCH  20  22
ATOM     21  C   UNL     1      -2.316  15.140  24.385  0.00  0.00    +0.000 C 
ATOM     22  C   UNL     1      -0.881  14.918  23.928  0.00  0.00    +0.000 C 
ENDBRANCH  20  22
ENDBRANCH  18  20
ENDBRANCH   1  18
BRANCH   6  23
ATOM     23  O   UNL     1      -3.308   9.691  15.863  0.00  0.00    +0.000 OA
ATOM     24  C   UNL     1      -3.156  10.076  14.505  0.00  0.00    +0.000 C 
ENDBRANCH   6  23
BRANCH   7  25
ATOM     25  O   UNL     1      -5.685  11.295  17.268  0.00  0.00    +0.000 OA
ATOM     26  C   UNL     1      -6.506  12.428  17.391  0.00  0.00    +0.000 C 
ENDBRANCH   7  25
BRANCH   2  27
ATOM     27  C   UNL     1       1.313  12.284  20.544  0.00  0.00    +0.000 C 
BRANCH  27  28
ATOM     28  S   UNL     1       2.343  13.369  19.505  0.00  0.00    +0.000 S 
BRANCH  28  29
ATOM     29  C   UNL     1       1.519  14.877  19.702  0.00  0.00    +0.000 A 
ATOM     30  N   UNL     1       0.644  15.394  18.869  0.00  0.00    +0.000 NA
ATOM     31  C   UNL     1       0.264  16.583  19.439  0.00  0.00    +0.000 A 
ATOM     32  C   UNL     1       0.924  16.791  20.628  0.00  0.00    +0.000 A 
ATOM     33  N   UNL     1       1.721  15.687  20.789  0.00  0.00    +0.000 N 
ATOM     34  C   UNL     1       2.597  15.445  21.909  0.00  0.00    +0.000 C 
ENDBRANCH  28  29
ENDBRANCH  27  28
ENDBRANCH   2  27
TORSDOF 9
ENDMDL
MODEL 9
REMARK VINA RESULT:      -6.2      3.850      7.363
REMARK  Name = 
REMARK  13 active torsions:
REMARK  status: ('A' for Active; 'I' for Inactive)
REMARK    1  A    between atoms: C_1  and  C_2
REMARK    2  A    between atoms: C_2  and  O_3
REMARK    3  A    between atoms: O_3  and  C_4
REMARK    4  A    between atoms: C_4  and  C_6
REMARK    5  A    between atoms: C_7  and  C_8
REMARK    6  A    between atoms: C_8  and  S_9
REMARK    7  A    between atoms: S_9  and  C_10
REMARK    8  A    between atoms: N_14  and  C_15
REMARK    9  A    between atoms: C_19  and  O_20
REMARK   10  A    between atoms: O_20  and  C_21
REMARK   11  A    between atoms: C_22  and  O_23
REMARK   12  A    between atoms: O_23  and  C_24
REMARK   13  A    between atoms: C_27  and  C_28
REMARK                            x       y       z     vdW  Elec       q    Type
REMARK                         _______ _______ _______ _____ _____    ______ ____
ROOT
ATOM      1  C   UNL     1      -1.147  11.701  20.999  0.00  0.00    +0.000 A 
ATOM      2  C   UNL     1      -2.262  12.480  21.351  0.00  0.00    +0.000 A 
ATOM      3  N   UNL     1      -3.351  12.566  20.535  0.00  0.00    +0.000 NA
ATOM      4  C   UNL     1      -3.391  11.895  19.378  0.00  0.00    +0.000 A 
ATOM      5  C   UNL     1      -4.471  12.131  18.510  0.00  0.00    +0.000 A 
ATOM      6  C   UNL     1      -4.619  11.520  17.252  0.00  0.00    +0.000 A 
ATOM      7  C   UNL     1      -3.688  10.556  16.888  0.00  0.00    +0.000 A 
ATOM      8  C   UNL     1      -2.635  10.289  17.794  0.00  0.00    +0.000 A 
ATOM      9  C   UNL     1      -2.391  11.006  19.001  0.00  0.00    +0.000 A 
ATOM     10  C   UNL     1      -1.194  10.903  19.816  0.00  0.00    +0.000 A 
ENDROOT
BRANCH  10  11
ATOM     11  C   UNL     1      -0.045  10.008  19.416  0.00  0.00    +0.000 A 
ATOM     12  C   UNL     1       0.653  10.173  18.200  0.00  0.00    +0.000 A 
ATOM     13  C   UNL     1       1.678   9.303  17.801  0.00  0.00    +0.000 A 
ATOM     14  C   UNL     1       2.116   8.314  18.668  0.00  0.00    +0.000 A 
ATOM     15 CL   UNL     1       3.420   7.289  18.218  0.00  0.00    +0.000 Cl
ATOM     16  C   UNL     1       1.504   8.160  19.906  0.00  0.00    +0.000 A 
ATOM     17  C   UNL     1       0.407   8.964  20.250  0.00  0.00    +0.000 A 
ENDBRANCH  10  11
BRANCH   1  18
ATOM     18  C   UNL     1       0.124  11.840  21.767  0.00  0.00    +0.000 C 
ATOM     19  O   UNL     1       0.501  11.029  22.596  0.00  0.00    +0.000 OA
BRANCH  18  20
ATOM     20  O   UNL     1       0.773  12.985  21.441  0.00  0.00    +0.000 OA
BRANCH  20  22
ATOM     21  C   UNL     1       1.668  13.528  19.198  0.00  0.00    +0.000 C 
ATOM     22  C   UNL     1       1.895  12.858  20.546  0.00  0.00    +0.000 C 
ENDBRANCH  20  22
ENDBRANCH  18  20
ENDBRANCH   1  18
BRANCH   6  23
ATOM     23  O   UNL     1      -5.575  12.121  16.483  0.00  0.00    +0.000 OA
ATOM     24  C   UNL     1      -6.434  13.080  17.080  0.00  0.00    +0.000 C 
ENDBRANCH   6  23
BRANCH   7  25
ATOM     25  O   UNL     1      -3.479   9.822  15.767  0.00  0.00    +0.000 OA
ATOM     26  C   UNL     1      -2.985  10.339  14.558  0.00  0.00    +0.000 C 
ENDBRANCH   7  25
BRANCH   2  27
ATOM     27  C   UNL     1      -2.328  13.267  22.658  0.00  0.00    +0.000 C 
BRANCH  27  28
ATOM     28  S   UNL     1      -3.586  12.709  23.851  0.00  0.00    +0.000 S 
BRANCH  28  29
ATOM     29  C   UNL     1      -4.671  14.055  23.827  0.00  0.00    +0.000 A 
ATOM     30  N   UNL     1      -4.328  15.323  23.811  0.00  0.00    +0.000 NA
ATOM     31  C   UNL     1      -5.512  16.016  23.793  0.00  0.00    +0.000 A 
ATOM     32  C   UNL     1      -6.585  15.155  23.806  0.00  0.00    +0.000 A 
ATOM     33  N   UNL     1      -6.032  13.900  23.821  0.00  0.00    +0.000 N 
ATOM     34  C   UNL     1      -6.772  12.662  23.825  0.00  0.00    +0.000 C 
ENDBRANCH  28  29
ENDBRANCH  27  28
ENDBRANCH   2  27
TORSDOF 9
ENDMDL
