MODEL 1
REMARK VINA RESULT:      -7.0      0.000      0.000
REMARK  Name = 
REMARK  6 active torsions:
REMARK  status: ('A' for Active; 'I' for Inactive)
REMARK    1  A    between atoms: C_1  and  C_2
REMARK    2  A    between atoms: C_2  and  O_3
REMARK    3  A    between atoms: C_4  and  C_5
REMARK    4  A    between atoms: C_14  and  C_15
REMARK    5  A    between atoms: C_15  and  O_16
REMARK    6  A    between atoms: C_17  and  O_18
REMARK                            x       y       z     vdW  Elec       q    Type
REMARK                         _______ _______ _______ _____ _____    ______ ____
ROOT
ATOM      1  C   UNL     1       2.542   5.596  18.082  0.00  0.00    +0.000 C 
ATOM      2  C   UNL     1       3.223   4.880  19.253  0.00  0.00    +0.000 C 
ATOM      3  C   UNL     1       4.260   3.824  18.824  0.00  0.00    +0.000 C 
ATOM      4  O   UNL     1       3.451   2.674  18.459  0.00  0.00    +0.000 OA
ATOM      5  C   UNL     1       2.350   2.613  19.403  0.00  0.00    +0.000 C 
ATOM      6  C   UNL     1       2.207   4.016  20.020  0.00  0.00    +0.000 C 
ENDROOT
BRANCH   3   7
ATOM      7  C   UNL     1       5.174   4.223  17.696  0.00  0.00    +0.000 A 
ATOM      8  C   UNL     1       4.943   3.967  16.400  0.00  0.00    +0.000 A 
ATOM      9  N   UNL     1       5.816   4.344  15.423  0.00  0.00    +0.000 N 
ATOM     10  C   UNL     1       7.000   4.986  15.666  0.00  0.00    +0.000 A 
ATOM     11  O   UNL     1       7.777   5.269  14.767  0.00  0.00    +0.000 OA
ATOM     12  N   UNL     1       7.246   5.274  16.980  0.00  0.00    +0.000 N 
ATOM     13  C   UNL     1       6.444   4.929  18.034  0.00  0.00    +0.000 A 
ATOM     14  O   UNL     1       6.772   5.157  19.194  0.00  0.00    +0.000 OA
ATOM     15  H   UNL     1       5.622   4.135  14.449  0.00  0.00    +0.000 HD
ATOM     16  H   UNL     1       8.121   5.733  17.185  0.00  0.00    +0.000 HD
ENDBRANCH   3   7
BRANCH   2  17
ATOM     17  O   UNL     1       3.790   5.880  20.098  0.00  0.00    +0.000 OA
ATOM     18  H   UNL     1       3.580   5.620  21.018  0.00  0.00    +0.000 HD
ENDBRANCH   2  17
BRANCH   6  19
ATOM     19  O   UNL     1       2.550   4.016  21.417  0.00  0.00    +0.000 OA
ATOM     20  H   UNL     1       3.480   4.283  21.525  0.00  0.00    +0.000 HD
ENDBRANCH   6  19
BRANCH   5  21
ATOM     21  C   UNL     1       1.082   2.132  18.694  0.00  0.00    +0.000 C 
BRANCH  21  22
ATOM     22  O   UNL     1      -0.082   2.600  19.374  0.00  0.00    +0.000 OA
ATOM     23  H   UNL     1      -0.331   3.444  18.956  0.00  0.00    +0.000 HD
ENDBRANCH  21  22
ENDBRANCH   5  21
TORSDOF 5
ENDMDL
MODEL 2
REMARK VINA RESULT:      -7.0      2.548      5.840
REMARK  Name = 
REMARK  6 active torsions:
REMARK  status: ('A' for Active; 'I' for Inactive)
REMARK    1  A    between atoms: C_1  and  C_2
REMARK    2  A    between atoms: C_2  and  O_3
REMARK    3  A    between atoms: C_4  and  C_5
REMARK    4  A    between atoms: C_14  and  C_15
REMARK    5  A    between atoms: C_15  and  O_16
REMARK    6  A    between atoms: C_17  and  O_18
REMARK                            x       y       z     vdW  Elec       q    Type
REMARK                         _______ _______ _______ _____ _____    ______ ____
ROOT
ATOM      1  C   UNL     1       4.907   5.714  16.510  0.00  0.00    +0.000 C 
ATOM      2  C   UNL     1       5.844   4.679  17.141  0.00  0.00    +0.000 C 
ATOM      3  C   UNL     1       5.655   4.509  18.661  0.00  0.00    +0.000 C 
ATOM      4  O   UNL     1       6.364   5.645  19.227  0.00  0.00    +0.000 OA
ATOM      5  C   UNL     1       7.554   5.846  18.421  0.00  0.00    +0.000 C 
ATOM      6  C   UNL     1       7.304   5.160  17.067  0.00  0.00    +0.000 C 
ENDROOT
BRANCH   3   7
ATOM      7  C   UNL     1       4.231   4.463  19.145  0.00  0.00    +0.000 A 
ATOM      8  C   UNL     1       3.582   5.495  19.704  0.00  0.00    +0.000 A 
ATOM      9  N   UNL     1       2.292   5.389  20.134  0.00  0.00    +0.000 N 
ATOM     10  C   UNL     1       1.557   4.237  20.061  0.00  0.00    +0.000 A 
ATOM     11  O   UNL     1       0.418   4.169  20.497  0.00  0.00    +0.000 OA
ATOM     12  N   UNL     1       2.194   3.178  19.476  0.00  0.00    +0.000 N 
ATOM     13  C   UNL     1       3.486   3.176  19.024  0.00  0.00    +0.000 A 
ATOM     14  O   UNL     1       4.011   2.160  18.579  0.00  0.00    +0.000 OA
ATOM     15  H   UNL     1       1.824   6.183  20.559  0.00  0.00    +0.000 HD
ATOM     16  H   UNL     1       1.677   2.313  19.424  0.00  0.00    +0.000 HD
ENDBRANCH   3   7
BRANCH   2  17
ATOM     17  O   UNL     1       5.668   3.453  16.435  0.00  0.00    +0.000 OA
ATOM     18  H   UNL     1       5.425   2.779  17.102  0.00  0.00    +0.000 HD
ENDBRANCH   2  17
BRANCH   6  19
ATOM     19  O   UNL     1       8.164   4.020  16.884  0.00  0.00    +0.000 OA
ATOM     20  H   UNL     1       8.314   3.874  15.933  0.00  0.00    +0.000 HD
ENDBRANCH   6  19
BRANCH   5  21
ATOM     21  C   UNL     1       7.851   7.342  18.296  0.00  0.00    +0.000 C 
BRANCH  21  22
ATOM     22  O   UNL     1       7.766   7.758  16.934  0.00  0.00    +0.000 OA
ATOM     23  H   UNL     1       8.581   8.255  16.741  0.00  0.00    +0.000 HD
ENDBRANCH  21  22
ENDBRANCH   5  21
TORSDOF 5
ENDMDL
MODEL 3
REMARK VINA RESULT:      -6.7      1.689      1.877
REMARK  Name = 
REMARK  6 active torsions:
REMARK  status: ('A' for Active; 'I' for Inactive)
REMARK    1  A    between atoms: C_1  and  C_2
REMARK    2  A    between atoms: C_2  and  O_3
REMARK    3  A    between atoms: C_4  and  C_5
REMARK    4  A    between atoms: C_14  and  C_15
REMARK    5  A    between atoms: C_15  and  O_16
REMARK    6  A    between atoms: C_17  and  O_18
REMARK                            x       y       z     vdW  Elec       q    Type
REMARK                         _______ _______ _______ _____ _____    ______ ____
ROOT
ATOM      1  C   UNL     1       1.700   4.669  17.699  0.00  0.00    +0.000 C 
ATOM      2  C   UNL     1       2.437   5.519  18.738  0.00  0.00    +0.000 C 
ATOM      3  C   UNL     1       3.927   5.159  18.898  0.00  0.00    +0.000 C 
ATOM      4  O   UNL     1       3.908   3.972  19.736  0.00  0.00    +0.000 OA
ATOM      5  C   UNL     1       2.853   4.160  20.715  0.00  0.00    +0.000 C 
ATOM      6  C   UNL     1       1.900   5.229  20.150  0.00  0.00    +0.000 C 
ENDROOT
BRANCH   3   7
ATOM      7  C   UNL     1       4.683   4.909  17.621  0.00  0.00    +0.000 A 
ATOM      8  C   UNL     1       5.020   3.697  17.159  0.00  0.00    +0.000 A 
ATOM      9  N   UNL     1       5.716   3.534  15.998  0.00  0.00    +0.000 N 
ATOM     10  C   UNL     1       6.152   4.572  15.219  0.00  0.00    +0.000 A 
ATOM     11  O   UNL     1       6.811   4.388  14.208  0.00  0.00    +0.000 OA
ATOM     12  N   UNL     1       5.802   5.817  15.662  0.00  0.00    +0.000 N 
ATOM     13  C   UNL     1       5.118   6.089  16.817  0.00  0.00    +0.000 A 
ATOM     14  O   UNL     1       4.908   7.240  17.185  0.00  0.00    +0.000 OA
ATOM     15  H   UNL     1       5.964   2.606  15.671  0.00  0.00    +0.000 HD
ATOM     16  H   UNL     1       6.126   6.599  15.113  0.00  0.00    +0.000 HD
ENDBRANCH   3   7
BRANCH   2  17
ATOM     17  O   UNL     1       2.248   6.888  18.386  0.00  0.00    +0.000 OA
ATOM     18  H   UNL     1       3.137   7.297  18.368  0.00  0.00    +0.000 HD
ENDBRANCH   2  17
BRANCH   6  19
ATOM     19  O   UNL     1       1.944   6.439  20.927  0.00  0.00    +0.000 OA
ATOM     20  H   UNL     1       1.102   6.555  21.400  0.00  0.00    +0.000 HD
ENDBRANCH   6  19
BRANCH   5  21
ATOM     21  C   UNL     1       2.163   2.824  20.999  0.00  0.00    +0.000 C 
BRANCH  21  22
ATOM     22  O   UNL     1       0.745   2.969  20.942  0.00  0.00    +0.000 OA
ATOM     23  H   UNL     1       0.562   3.926  20.904  0.00  0.00    +0.000 HD
ENDBRANCH  21  22
ENDBRANCH   5  21
TORSDOF 5
ENDMDL
MODEL 4
REMARK VINA RESULT:      -6.6      2.424      5.707
REMARK  Name = 
REMARK  6 active torsions:
REMARK  status: ('A' for Active; 'I' for Inactive)
REMARK    1  A    between atoms: C_1  and  C_2
REMARK    2  A    between atoms: C_2  and  O_3
REMARK    3  A    between atoms: C_4  and  C_5
REMARK    4  A    between atoms: C_14  and  C_15
REMARK    5  A    between atoms: C_15  and  O_16
REMARK    6  A    between atoms: C_17  and  O_18
REMARK                            x       y       z     vdW  Elec       q    Type
REMARK                         _______ _______ _______ _____ _____    ______ ____
ROOT
ATOM      1  C   UNL     1       4.808   6.686  17.511  0.00  0.00    +0.000 C 
ATOM      2  C   UNL     1       5.450   5.399  16.985  0.00  0.00    +0.000 C 
ATOM      3  C   UNL     1       5.284   4.188  17.924  0.00  0.00    +0.000 C 
ATOM      4  O   UNL     1       6.299   4.398  18.943  0.00  0.00    +0.000 OA
ATOM      5  C   UNL     1       7.466   4.943  18.272  0.00  0.00    +0.000 C 
ATOM      6  C   UNL     1       6.982   5.541  16.940  0.00  0.00    +0.000 C 
ENDROOT
BRANCH   3   7
ATOM      7  C   UNL     1       3.923   4.019  18.543  0.00  0.00    +0.000 A 
ATOM      8  C   UNL     1       3.622   4.312  19.817  0.00  0.00    +0.000 A 
ATOM      9  N   UNL     1       2.370   4.127  20.325  0.00  0.00    +0.000 N 
ATOM     10  C   UNL     1       1.326   3.613  19.606  0.00  0.00    +0.000 A 
ATOM     11  O   UNL     1       0.229   3.421  20.108  0.00  0.00    +0.000 OA
ATOM     12  N   UNL     1       1.605   3.326  18.299  0.00  0.00    +0.000 N 
ATOM     13  C   UNL     1       2.827   3.463  17.697  0.00  0.00    +0.000 A 
ATOM     14  O   UNL     1       3.017   3.111  16.537  0.00  0.00    +0.000 OA
ATOM     15  H   UNL     1       2.169   4.351  21.294  0.00  0.00    +0.000 HD
ATOM     16  H   UNL     1       0.854   2.931  17.752  0.00  0.00    +0.000 HD
ENDBRANCH   3   7
BRANCH   2  17
ATOM     17  O   UNL     1       4.917   5.151  15.686  0.00  0.00    +0.000 OA
ATOM     18  H   UNL     1       5.674   5.165  15.066  0.00  0.00    +0.000 HD
ENDBRANCH   2  17
BRANCH   6  19
ATOM     19  O   UNL     1       7.488   4.801  15.813  0.00  0.00    +0.000 OA
ATOM     20  H   UNL     1       7.048   3.934  15.768  0.00  0.00    +0.000 HD
ENDBRANCH   6  19
BRANCH   5  21
ATOM     21  C   UNL     1       8.156   5.965  19.178  0.00  0.00    +0.000 C 
BRANCH  21  22
ATOM     22  O   UNL     1       8.138   5.526  20.536  0.00  0.00    +0.000 OA
ATOM     23  H   UNL     1       8.155   6.327  21.090  0.00  0.00    +0.000 HD
ENDBRANCH  21  22
ENDBRANCH   5  21
TORSDOF 5
ENDMDL
MODEL 5
REMARK VINA RESULT:      -6.6      1.734      2.761
REMARK  Name = 
REMARK  6 active torsions:
REMARK  status: ('A' for Active; 'I' for Inactive)
REMARK    1  A    between atoms: C_1  and  C_2
REMARK    2  A    between atoms: C_2  and  O_3
REMARK    3  A    between atoms: C_4  and  C_5
REMARK    4  A    between atoms: C_14  and  C_15
REMARK    5  A    between atoms: C_15  and  O_16
REMARK    6  A    between atoms: C_17  and  O_18
REMARK                            x       y       z     vdW  Elec       q    Type
REMARK                         _______ _______ _______ _____ _____    ______ ____
ROOT
ATOM      1  C   UNL     1       4.543   2.943  19.778  0.00  0.00    +0.000 C 
ATOM      2  C   UNL     1       3.584   2.751  18.598  0.00  0.00    +0.000 C 
ATOM      3  C   UNL     1       3.350   4.029  17.768  0.00  0.00    +0.000 C 
ATOM      4  O   UNL     1       2.390   4.782  18.557  0.00  0.00    +0.000 OA
ATOM      5  C   UNL     1       1.463   3.821  19.127  0.00  0.00    +0.000 C 
ATOM      6  C   UNL     1       2.162   2.451  19.104  0.00  0.00    +0.000 C 
ENDROOT
BRANCH   3   7
ATOM      7  C   UNL     1       4.574   4.853  17.472  0.00  0.00    +0.000 A 
ATOM      8  C   UNL     1       4.854   6.034  18.042  0.00  0.00    +0.000 A 
ATOM      9  N   UNL     1       5.975   6.742  17.724  0.00  0.00    +0.000 N 
ATOM     10  C   UNL     1       6.894   6.335  16.795  0.00  0.00    +0.000 A 
ATOM     11  O   UNL     1       7.865   7.018  16.506  0.00  0.00    +0.000 OA
ATOM     12  N   UNL     1       6.638   5.123  16.217  0.00  0.00    +0.000 N 
ATOM     13  C   UNL     1       5.539   4.343  16.455  0.00  0.00    +0.000 A 
ATOM     14  O   UNL     1       5.343   3.301  15.837  0.00  0.00    +0.000 OA
ATOM     15  H   UNL     1       6.163   7.636  18.166  0.00  0.00    +0.000 HD
ATOM     16  H   UNL     1       7.294   4.810  15.517  0.00  0.00    +0.000 HD
ENDBRANCH   3   7
BRANCH   2  17
ATOM     17  O   UNL     1       4.087   1.678  17.806  0.00  0.00    +0.000 OA
ATOM     18  H   UNL     1       4.920   1.384  18.229  0.00  0.00    +0.000 HD
ENDBRANCH   2  17
BRANCH   6  19
ATOM     19  O   UNL     1       1.520   1.546  18.187  0.00  0.00    +0.000 OA
ATOM     20  H   UNL     1       2.189   0.974  17.771  0.00  0.00    +0.000 HD
ENDBRANCH   6  19
BRANCH   5  21
ATOM     21  C   UNL     1       1.052   4.267  20.532  0.00  0.00    +0.000 C 
BRANCH  21  22
ATOM     22  O   UNL     1       1.379   3.263  21.493  0.00  0.00    +0.000 OA
ATOM     23  H   UNL     1       2.275   3.468  21.818  0.00  0.00    +0.000 HD
ENDBRANCH  21  22
ENDBRANCH   5  21
TORSDOF 5
ENDMDL
MODEL 6
REMARK VINA RESULT:      -6.6      2.442      5.603
REMARK  Name = 
REMARK  6 active torsions:
REMARK  status: ('A' for Active; 'I' for Inactive)
REMARK    1  A    between atoms: C_1  and  C_2
REMARK    2  A    between atoms: C_2  and  O_3
REMARK    3  A    between atoms: C_4  and  C_5
REMARK    4  A    between atoms: C_14  and  C_15
REMARK    5  A    between atoms: C_15  and  O_16
REMARK    6  A    between atoms: C_17  and  O_18
REMARK                            x       y       z     vdW  Elec       q    Type
REMARK                         _______ _______ _______ _____ _____    ______ ____
ROOT
ATOM      1  C   UNL     1       4.628   6.211  16.878  0.00  0.00    +0.000 C 
ATOM      2  C   UNL     1       5.485   4.979  16.569  0.00  0.00    +0.000 C 
ATOM      3  C   UNL     1       5.268   3.806  17.545  0.00  0.00    +0.000 C 
ATOM      4  O   UNL     1       6.046   4.180  18.714  0.00  0.00    +0.000 OA
ATOM      5  C   UNL     1       7.257   4.819  18.231  0.00  0.00    +0.000 C 
ATOM      6  C   UNL     1       6.975   5.291  16.793  0.00  0.00    +0.000 C 
ENDROOT
BRANCH   3   7
ATOM      7  C   UNL     1       3.839   3.516  17.916  0.00  0.00    +0.000 A 
ATOM      8  C   UNL     1       2.919   4.451  18.194  0.00  0.00    +0.000 A 
ATOM      9  N   UNL     1       1.639   4.125  18.535  0.00  0.00    +0.000 N 
ATOM     10  C   UNL     1       1.185   2.839  18.648  0.00  0.00    +0.000 A 
ATOM     11  O   UNL     1       0.042   2.587  18.999  0.00  0.00    +0.000 OA
ATOM     12  N   UNL     1       2.102   1.871  18.350  0.00  0.00    +0.000 N 
ATOM     13  C   UNL     1       3.410   2.090  18.010  0.00  0.00    +0.000 A 
ATOM     14  O   UNL     1       4.193   1.163  17.830  0.00  0.00    +0.000 OA
ATOM     15  H   UNL     1       0.961   4.851  18.746  0.00  0.00    +0.000 HD
ATOM     16  H   UNL     1       1.795   0.914  18.441  0.00  0.00    +0.000 HD
ENDBRANCH   3   7
BRANCH   2  17
ATOM     17  O   UNL     1       5.234   4.609  15.215  0.00  0.00    +0.000 OA
ATOM     18  H   UNL     1       4.459   4.010  15.229  0.00  0.00    +0.000 HD
ENDBRANCH   2  17
BRANCH   6  19
ATOM     19  O   UNL     1       7.757   4.558  15.833  0.00  0.00    +0.000 OA
ATOM     20  H   UNL     1       7.428   3.644  15.773  0.00  0.00    +0.000 HD
ENDBRANCH   6  19
BRANCH   5  21
ATOM     21  C   UNL     1       7.657   5.957  19.173  0.00  0.00    +0.000 C 
BRANCH  21  22
ATOM     22  O   UNL     1       7.993   5.445  20.462  0.00  0.00    +0.000 OA
ATOM     23  H   UNL     1       8.694   6.022  20.818  0.00  0.00    +0.000 HD
ENDBRANCH  21  22
ENDBRANCH   5  21
TORSDOF 5
ENDMDL
MODEL 7
REMARK VINA RESULT:      -6.6      1.587      3.107
REMARK  Name = 
REMARK  6 active torsions:
REMARK  status: ('A' for Active; 'I' for Inactive)
REMARK    1  A    between atoms: C_1  and  C_2
REMARK    2  A    between atoms: C_2  and  O_3
REMARK    3  A    between atoms: C_4  and  C_5
REMARK    4  A    between atoms: C_14  and  C_15
REMARK    5  A    between atoms: C_15  and  O_16
REMARK    6  A    between atoms: C_17  and  O_18
REMARK                            x       y       z     vdW  Elec       q    Type
REMARK                         _______ _______ _______ _____ _____    ______ ____
ROOT
ATOM      1  C   UNL     1       3.646   1.330  19.015  0.00  0.00    +0.000 C 
ATOM      2  C   UNL     1       2.564   2.262  18.460  0.00  0.00    +0.000 C 
ATOM      3  C   UNL     1       2.869   3.760  18.654  0.00  0.00    +0.000 C 
ATOM      4  O   UNL     1       2.514   4.008  20.041  0.00  0.00    +0.000 OA
ATOM      5  C   UNL     1       1.325   3.223  20.321  0.00  0.00    +0.000 C 
ATOM      6  C   UNL     1       1.260   2.109  19.262  0.00  0.00    +0.000 C 
ENDROOT
BRANCH   3   7
ATOM      7  C   UNL     1       4.286   4.183  18.374  0.00  0.00    +0.000 A 
ATOM      8  C   UNL     1       5.183   4.515  19.313  0.00  0.00    +0.000 A 
ATOM      9  N   UNL     1       6.452   4.902  18.996  0.00  0.00    +0.000 N 
ATOM     10  C   UNL     1       6.916   5.011  17.714  0.00  0.00    +0.000 A 
ATOM     11  O   UNL     1       8.047   5.404  17.468  0.00  0.00    +0.000 OA
ATOM     12  N   UNL     1       6.023   4.658  16.741  0.00  0.00    +0.000 N 
ATOM     13  C   UNL     1       4.728   4.270  16.951  0.00  0.00    +0.000 A 
ATOM     14  O   UNL     1       3.964   4.042  16.018  0.00  0.00    +0.000 OA
ATOM     15  H   UNL     1       7.111   5.154  19.725  0.00  0.00    +0.000 HD
ATOM     16  H   UNL     1       6.339   4.745  15.786  0.00  0.00    +0.000 HD
ENDBRANCH   3   7
BRANCH   2  17
ATOM     17  O   UNL     1       2.369   1.924  17.088  0.00  0.00    +0.000 OA
ATOM     18  H   UNL     1       2.764   1.038  16.959  0.00  0.00    +0.000 HD
ENDBRANCH   2  17
BRANCH   6  19
ATOM     19  O   UNL     1       0.141   2.288  18.375  0.00  0.00    +0.000 OA
ATOM     20  H   UNL     1      -0.521   2.864  18.796  0.00  0.00    +0.000 HD
ENDBRANCH   6  19
BRANCH   5  21
ATOM     21  C   UNL     1       1.379   2.692  21.755  0.00  0.00    +0.000 C 
BRANCH  21  22
ATOM     22  O   UNL     1       2.730   2.476  22.160  0.00  0.00    +0.000 OA
ATOM     23  H   UNL     1       2.700   1.882  22.932  0.00  0.00    +0.000 HD
ENDBRANCH  21  22
ENDBRANCH   5  21
TORSDOF 5
ENDMDL
MODEL 8
REMARK VINA RESULT:      -6.5      2.461      5.757
REMARK  Name = 
REMARK  6 active torsions:
REMARK  status: ('A' for Active; 'I' for Inactive)
REMARK    1  A    between atoms: C_1  and  C_2
REMARK    2  A    between atoms: C_2  and  O_3
REMARK    3  A    between atoms: C_4  and  C_5
REMARK    4  A    between atoms: C_14  and  C_15
REMARK    5  A    between atoms: C_15  and  O_16
REMARK    6  A    between atoms: C_17  and  O_18
REMARK                            x       y       z     vdW  Elec       q    Type
REMARK                         _______ _______ _______ _____ _____    ______ ____
ROOT
ATOM      1  C   UNL     1       4.658   4.823  15.544  0.00  0.00    +0.000 C 
ATOM      2  C   UNL     1       5.672   4.147  16.473  0.00  0.00    +0.000 C 
ATOM      3  C   UNL     1       5.209   4.051  17.940  0.00  0.00    +0.000 C 
ATOM      4  O   UNL     1       5.458   5.382  18.469  0.00  0.00    +0.000 OA
ATOM      5  C   UNL     1       6.701   5.845  17.881  0.00  0.00    +0.000 C 
ATOM      6  C   UNL     1       6.937   5.012  16.609  0.00  0.00    +0.000 C 
ENDROOT
BRANCH   3   7
ATOM      7  C   UNL     1       3.775   3.645  18.151  0.00  0.00    +0.000 A 
ATOM      8  C   UNL     1       2.776   4.492  18.439  0.00  0.00    +0.000 A 
ATOM      9  N   UNL     1       1.497   4.061  18.630  0.00  0.00    +0.000 N 
ATOM     10  C   UNL     1       1.119   2.748  18.571  0.00  0.00    +0.000 A 
ATOM     11  O   UNL     1      -0.031   2.396  18.792  0.00  0.00    +0.000 OA
ATOM     12  N   UNL     1       2.118   1.869  18.259  0.00  0.00    +0.000 N 
ATOM     13  C   UNL     1       3.433   2.195  18.062  0.00  0.00    +0.000 A 
ATOM     14  O   UNL     1       4.286   1.337  17.860  0.00  0.00    +0.000 OA
ATOM     15  H   UNL     1       0.758   4.721  18.852  0.00  0.00    +0.000 HD
ATOM     16  H   UNL     1       1.866   0.892  18.226  0.00  0.00    +0.000 HD
ENDBRANCH   3   7
BRANCH   2  17
ATOM     17  O   UNL     1       5.978   2.869  15.919  0.00  0.00    +0.000 OA
ATOM     18  H   UNL     1       5.362   2.735  15.170  0.00  0.00    +0.000 HD
ENDBRANCH   2  17
BRANCH   6  19
ATOM     19  O   UNL     1       8.081   4.150  16.746  0.00  0.00    +0.000 OA
ATOM     20  H   UNL     1       8.874   4.686  16.924  0.00  0.00    +0.000 HD
ENDBRANCH   6  19
BRANCH   5  21
ATOM     21  C   UNL     1       6.620   7.350  17.611  0.00  0.00    +0.000 C 
BRANCH  21  22
ATOM     22  O   UNL     1       7.833   7.822  17.027  0.00  0.00    +0.000 OA
ATOM     23  H   UNL     1       8.223   7.069  16.545  0.00  0.00    +0.000 HD
ENDBRANCH  21  22
ENDBRANCH   5  21
TORSDOF 5
ENDMDL
MODEL 9
REMARK VINA RESULT:      -6.5      1.480      2.703
REMARK  Name = 
REMARK  6 active torsions:
REMARK  status: ('A' for Active; 'I' for Inactive)
REMARK    1  A    between atoms: C_1  and  C_2
REMARK    2  A    between atoms: C_2  and  O_3
REMARK    3  A    between atoms: C_4  and  C_5
REMARK    4  A    between atoms: C_14  and  C_15
REMARK    5  A    between atoms: C_15  and  O_16
REMARK    6  A    between atoms: C_17  and  O_18
REMARK                            x       y       z     vdW  Elec       q    Type
REMARK                         _______ _______ _______ _____ _____    ______ ____
ROOT
ATOM      1  C   UNL     1       3.532   1.247  18.770  0.00  0.00    +0.000 C 
ATOM      2  C   UNL     1       2.438   2.210  18.297  0.00  0.00    +0.000 C 
ATOM      3  C   UNL     1       2.867   3.690  18.295  0.00  0.00    +0.000 C 
ATOM      4  O   UNL     1       2.753   4.085  19.689  0.00  0.00    +0.000 OA
ATOM      5  C   UNL     1       1.575   3.425  20.222  0.00  0.00    +0.000 C 
ATOM      6  C   UNL     1       1.271   2.232  19.299  0.00  0.00    +0.000 C 
ENDROOT
BRANCH   3   7
ATOM      7  C   UNL     1       4.246   3.974  17.763  0.00  0.00    +0.000 A 
ATOM      8  C   UNL     1       4.539   4.166  16.468  0.00  0.00    +0.000 A 
ATOM      9  N   UNL     1       5.812   4.409  16.045  0.00  0.00    +0.000 N 
ATOM     10  C   UNL     1       6.896   4.456  16.879  0.00  0.00    +0.000 A 
ATOM     11  O   UNL     1       8.029   4.632  16.456  0.00  0.00    +0.000 OA
ATOM     12  N   UNL     1       6.616   4.282  18.205  0.00  0.00    +0.000 N 
ATOM     13  C   UNL     1       5.380   4.021  18.731  0.00  0.00    +0.000 A 
ATOM     14  O   UNL     1       5.222   3.801  19.928  0.00  0.00    +0.000 OA
ATOM     15  H   UNL     1       6.010   4.546  15.059  0.00  0.00    +0.000 HD
ATOM     16  H   UNL     1       7.402   4.296  18.839  0.00  0.00    +0.000 HD
ENDBRANCH   3   7
BRANCH   2  17
ATOM     17  O   UNL     1       2.006   1.772  17.011  0.00  0.00    +0.000 OA
ATOM     18  H   UNL     1       2.682   2.075  16.371  0.00  0.00    +0.000 HD
ENDBRANCH   2  17
BRANCH   6  19
ATOM     19  O   UNL     1       0.039   2.421  18.579  0.00  0.00    +0.000 OA
ATOM     20  H   UNL     1      -0.713   2.355  19.194  0.00  0.00    +0.000 HD
ENDBRANCH   6  19
BRANCH   5  21
ATOM     21  C   UNL     1       1.820   3.018  21.676  0.00  0.00    +0.000 C 
BRANCH  21  22
ATOM     22  O   UNL     1       3.125   2.460  21.828  0.00  0.00    +0.000 OA
ATOM     23  H   UNL     1       3.015   1.492  21.860  0.00  0.00    +0.000 HD
ENDBRANCH  21  22
ENDBRANCH   5  21
TORSDOF 5
ENDMDL
