MODEL 1
REMARK VINA RESULT:      -7.4      0.000      0.000
REMARK  Name = 
REMARK  3 active torsions:
REMARK  status: ('A' for Active; 'I' for Inactive)
REMARK    1  A    between atoms: C_2  and  C_3
REMARK    2  A    between atoms: C_11  and  O_12
REMARK    3  A    between atoms: O_12  and  C_13
REMARK                            x       y       z     vdW  Elec       q    Type
REMARK                         _______ _______ _______ _____ _____    ______ ____
ROOT
ATOM      1  O   UNL     1       7.931   5.449  14.215  0.00  0.00    +0.000 OA
ATOM      2  C   UNL     1       6.907   4.795  14.431  0.00  0.00    +0.000 C 
ATOM      3  N   UNL     1       6.340   4.765  15.709  0.00  0.00    +0.000 N 
ATOM      4  C   UNL     1       5.281   3.864  16.160  0.00  0.00    +0.000 C 
ATOM      5  C   UNL     1       4.097   4.694  16.633  0.00  0.00    +0.000 C 
ATOM      6  C   UNL     1       4.526   5.607  17.793  0.00  0.00    +0.000 C 
ATOM      7  C   UNL     1       5.728   6.471  17.370  0.00  0.00    +0.000 C 
ATOM      8  C   UNL     1       6.858   5.639  16.758  0.00  0.00    +0.000 C 
ENDROOT
BRANCH   2   9
ATOM      9  C   UNL     1       6.294   4.029  13.367  0.00  0.00    +0.000 A 
ATOM     10  C   UNL     1       6.851   3.227  12.397  0.00  0.00    +0.000 A 
ATOM     11  C   UNL     1       5.751   2.748  11.667  0.00  0.00    +0.000 A 
ATOM     12  N   UNL     1       4.599   3.257  12.106  0.00  0.00    +0.000 NA
ATOM     13  O   UNL     1       4.948   4.103  13.146  0.00  0.00    +0.000 OA
ENDBRANCH   2   9
BRANCH   6  14
ATOM     14  O   UNL     1       4.944   4.836  18.932  0.00  0.00    +0.000 OA
BRANCH  14  15
ATOM     15  C   UNL     1       3.903   4.344  19.693  0.00  0.00    +0.000 A 
ATOM     16  C   UNL     1       2.919   5.250  20.055  0.00  0.00    +0.000 A 
ATOM     17  C   UNL     1       1.851   4.790  20.818  0.00  0.00    +0.000 A 
ATOM     18  C   UNL     1       1.818   3.456  21.208  0.00  0.00    +0.000 A 
ATOM     19  C   UNL     1       2.863   2.634  20.822  0.00  0.00    +0.000 A 
ATOM     20  N   UNL     1       3.904   3.047  20.069  0.00  0.00    +0.000 NA
ENDBRANCH  14  15
ENDBRANCH   6  14
TORSDOF 3
ENDMDL
MODEL 2
REMARK VINA RESULT:      -7.2      1.835      7.264
REMARK  Name = 
REMARK  3 active torsions:
REMARK  status: ('A' for Active; 'I' for Inactive)
REMARK    1  A    between atoms: C_2  and  C_3
REMARK    2  A    between atoms: C_11  and  O_12
REMARK    3  A    between atoms: O_12  and  C_13
REMARK                            x       y       z     vdW  Elec       q    Type
REMARK                         _______ _______ _______ _____ _____    ______ ____
ROOT
ATOM      1  O   UNL     1       2.266   6.588  19.956  0.00  0.00    +0.000 OA
ATOM      2  C   UNL     1       2.551   5.437  19.614  0.00  0.00    +0.000 C 
ATOM      3  N   UNL     1       3.181   5.197  18.388  0.00  0.00    +0.000 N 
ATOM      4  C   UNL     1       3.365   3.892  17.756  0.00  0.00    +0.000 C 
ATOM      5  C   UNL     1       4.853   3.652  17.547  0.00  0.00    +0.000 C 
ATOM      6  C   UNL     1       5.440   4.749  16.646  0.00  0.00    +0.000 C 
ATOM      7  C   UNL     1       5.139   6.138  17.238  0.00  0.00    +0.000 C 
ATOM      8  C   UNL     1       3.657   6.316  17.581  0.00  0.00    +0.000 C 
ENDROOT
BRANCH   2   9
ATOM      9  C   UNL     1       2.211   4.317  20.466  0.00  0.00    +0.000 A 
ATOM     10  C   UNL     1       0.998   3.731  20.745  0.00  0.00    +0.000 A 
ATOM     11  C   UNL     1       1.311   2.685  21.627  0.00  0.00    +0.000 A 
ATOM     12  N   UNL     1       2.610   2.653  21.926  0.00  0.00    +0.000 NA
ATOM     13  O   UNL     1       3.168   3.713  21.232  0.00  0.00    +0.000 OA
ENDBRANCH   2   9
BRANCH   6  14
ATOM     14  O   UNL     1       4.851   4.714  15.335  0.00  0.00    +0.000 OA
BRANCH  14  15
ATOM     15  C   UNL     1       5.765   4.592  14.309  0.00  0.00    +0.000 A 
ATOM     16  C   UNL     1       5.461   3.675  13.316  0.00  0.00    +0.000 A 
ATOM     17  C   UNL     1       6.356   3.528  12.261  0.00  0.00    +0.000 A 
ATOM     18  C   UNL     1       7.525   4.280  12.251  0.00  0.00    +0.000 A 
ATOM     19  C   UNL     1       7.755   5.149  13.303  0.00  0.00    +0.000 A 
ATOM     20  N   UNL     1       6.898   5.325  14.332  0.00  0.00    +0.000 NA
ENDBRANCH  14  15
ENDBRANCH   6  14
TORSDOF 3
ENDMDL
MODEL 3
REMARK VINA RESULT:      -7.2      0.626      1.073
REMARK  Name = 
REMARK  3 active torsions:
REMARK  status: ('A' for Active; 'I' for Inactive)
REMARK    1  A    between atoms: C_2  and  C_3
REMARK    2  A    between atoms: C_11  and  O_12
REMARK    3  A    between atoms: O_12  and  C_13
REMARK                            x       y       z     vdW  Elec       q    Type
REMARK                         _______ _______ _______ _____ _____    ______ ____
ROOT
ATOM      1  O   UNL     1       7.950   5.468  14.221  0.00  0.00    +0.000 OA
ATOM      2  C   UNL     1       6.922   4.823  14.440  0.00  0.00    +0.000 C 
ATOM      3  N   UNL     1       6.356   4.802  15.719  0.00  0.00    +0.000 N 
ATOM      4  C   UNL     1       5.290   3.910  16.175  0.00  0.00    +0.000 C 
ATOM      5  C   UNL     1       4.112   4.751  16.645  0.00  0.00    +0.000 C 
ATOM      6  C   UNL     1       4.548   5.666  17.799  0.00  0.00    +0.000 C 
ATOM      7  C   UNL     1       5.756   6.520  17.372  0.00  0.00    +0.000 C 
ATOM      8  C   UNL     1       6.880   5.677  16.763  0.00  0.00    +0.000 C 
ENDROOT
BRANCH   2   9
ATOM      9  C   UNL     1       6.303   4.056  13.380  0.00  0.00    +0.000 A 
ATOM     10  C   UNL     1       6.856   3.268  12.396  0.00  0.00    +0.000 A 
ATOM     11  C   UNL     1       5.751   2.779  11.680  0.00  0.00    +0.000 A 
ATOM     12  N   UNL     1       4.600   3.270  12.140  0.00  0.00    +0.000 NA
ATOM     13  O   UNL     1       4.953   4.112  13.180  0.00  0.00    +0.000 OA
ENDBRANCH   2   9
BRANCH   6  14
ATOM     14  O   UNL     1       4.961   4.897  18.943  0.00  0.00    +0.000 OA
BRANCH  14  15
ATOM     15  C   UNL     1       3.919   4.447  19.726  0.00  0.00    +0.000 A 
ATOM     16  C   UNL     1       3.897   3.090  20.006  0.00  0.00    +0.000 A 
ATOM     17  C   UNL     1       2.864   2.599  20.798  0.00  0.00    +0.000 A 
ATOM     18  C   UNL     1       1.885   3.473  21.257  0.00  0.00    +0.000 A 
ATOM     19  C   UNL     1       1.976   4.807  20.900  0.00  0.00    +0.000 A 
ATOM     20  N   UNL     1       2.975   5.315  20.147  0.00  0.00    +0.000 NA
ENDBRANCH  14  15
ENDBRANCH   6  14
TORSDOF 3
ENDMDL
MODEL 4
REMARK VINA RESULT:      -6.9      1.202      1.262
REMARK  Name = 
REMARK  3 active torsions:
REMARK  status: ('A' for Active; 'I' for Inactive)
REMARK    1  A    between atoms: C_2  and  C_3
REMARK    2  A    between atoms: C_11  and  O_12
REMARK    3  A    between atoms: O_12  and  C_13
REMARK                            x       y       z     vdW  Elec       q    Type
REMARK                         _______ _______ _______ _____ _____    ______ ____
ROOT
ATOM      1  O   UNL     1       7.796   5.937  15.228  0.00  0.00    +0.000 OA
ATOM      2  C   UNL     1       6.897   5.096  15.151  0.00  0.00    +0.000 C 
ATOM      3  N   UNL     1       6.155   4.744  16.283  0.00  0.00    +0.000 N 
ATOM      4  C   UNL     1       5.233   3.615  16.391  0.00  0.00    +0.000 C 
ATOM      5  C   UNL     1       3.852   4.141  16.755  0.00  0.00    +0.000 C 
ATOM      6  C   UNL     1       3.912   4.887  18.097  0.00  0.00    +0.000 C 
ATOM      7  C   UNL     1       4.976   6.000  18.037  0.00  0.00    +0.000 C 
ATOM      8  C   UNL     1       6.326   5.488  17.527  0.00  0.00    +0.000 C 
ENDROOT
BRANCH   2   9
ATOM      9  C   UNL     1       6.616   4.443  13.889  0.00  0.00    +0.000 A 
ATOM     10  C   UNL     1       5.600   3.591  13.521  0.00  0.00    +0.000 A 
ATOM     11  C   UNL     1       5.858   3.305  12.171  0.00  0.00    +0.000 A 
ATOM     12  N   UNL     1       6.980   3.883  11.741  0.00  0.00    +0.000 NA
ATOM     13  O   UNL     1       7.482   4.561  12.840  0.00  0.00    +0.000 OA
ENDBRANCH   2   9
BRANCH   6  14
ATOM     14  O   UNL     1       4.289   4.003  19.167  0.00  0.00    +0.000 OA
BRANCH  14  15
ATOM     15  C   UNL     1       3.237   3.600  19.962  0.00  0.00    +0.000 A 
ATOM     16  C   UNL     1       2.027   4.243  19.760  0.00  0.00    +0.000 A 
ATOM     17  C   UNL     1       0.940   3.859  20.540  0.00  0.00    +0.000 A 
ATOM     18  C   UNL     1       1.110   2.871  21.503  0.00  0.00    +0.000 A 
ATOM     19  C   UNL     1       2.365   2.308  21.651  0.00  0.00    +0.000 A 
ATOM     20  N   UNL     1       3.434   2.648  20.899  0.00  0.00    +0.000 NA
ENDBRANCH  14  15
ENDBRANCH   6  14
TORSDOF 3
ENDMDL
MODEL 5
REMARK VINA RESULT:      -6.8      1.765      7.234
REMARK  Name = 
REMARK  3 active torsions:
REMARK  status: ('A' for Active; 'I' for Inactive)
REMARK    1  A    between atoms: C_2  and  C_3
REMARK    2  A    between atoms: C_11  and  O_12
REMARK    3  A    between atoms: O_12  and  C_13
REMARK                            x       y       z     vdW  Elec       q    Type
REMARK                         _______ _______ _______ _____ _____    ______ ____
ROOT
ATOM      1  O   UNL     1       2.384   6.693  19.940  0.00  0.00    +0.000 OA
ATOM      2  C   UNL     1       2.576   5.531  19.571  0.00  0.00    +0.000 C 
ATOM      3  N   UNL     1       3.163   5.269  18.329  0.00  0.00    +0.000 N 
ATOM      4  C   UNL     1       3.239   3.966  17.670  0.00  0.00    +0.000 C 
ATOM      5  C   UNL     1       4.701   3.622  17.427  0.00  0.00    +0.000 C 
ATOM      6  C   UNL     1       5.349   4.689  16.533  0.00  0.00    +0.000 C 
ATOM      7  C   UNL     1       5.163   6.086  17.155  0.00  0.00    +0.000 C 
ATOM      8  C   UNL     1       3.706   6.365  17.532  0.00  0.00    +0.000 C 
ENDROOT
BRANCH   2   9
ATOM      9  C   UNL     1       2.171   4.424  20.410  0.00  0.00    +0.000 A 
ATOM     10  C   UNL     1       0.993   3.715  20.463  0.00  0.00    +0.000 A 
ATOM     11  C   UNL     1       1.207   2.757  21.467  0.00  0.00    +0.000 A 
ATOM     12  N   UNL     1       2.403   2.891  22.041  0.00  0.00    +0.000 NA
ATOM     13  O   UNL     1       2.990   3.973  21.407  0.00  0.00    +0.000 OA
ENDBRANCH   2   9
BRANCH   6  14
ATOM     14  O   UNL     1       4.734   4.723  15.234  0.00  0.00    +0.000 OA
BRANCH  14  15
ATOM     15  C   UNL     1       5.601   4.465  14.192  0.00  0.00    +0.000 A 
ATOM     16  C   UNL     1       6.814   5.133  14.217  0.00  0.00    +0.000 A 
ATOM     17  C   UNL     1       7.717   4.894  13.186  0.00  0.00    +0.000 A 
ATOM     18  C   UNL     1       7.365   4.022  12.162  0.00  0.00    +0.000 A 
ATOM     19  C   UNL     1       6.118   3.424  12.209  0.00  0.00    +0.000 A 
ATOM     20  N   UNL     1       5.227   3.624  13.205  0.00  0.00    +0.000 NA
ENDBRANCH  14  15
ENDBRANCH   6  14
TORSDOF 3
ENDMDL
MODEL 6
REMARK VINA RESULT:      -6.6      2.056      7.057
REMARK  Name = 
REMARK  3 active torsions:
REMARK  status: ('A' for Active; 'I' for Inactive)
REMARK    1  A    between atoms: C_2  and  C_3
REMARK    2  A    between atoms: C_11  and  O_12
REMARK    3  A    between atoms: O_12  and  C_13
REMARK                            x       y       z     vdW  Elec       q    Type
REMARK                         _______ _______ _______ _____ _____    ______ ____
ROOT
ATOM      1  O   UNL     1       1.330   4.009  17.423  0.00  0.00    +0.000 OA
ATOM      2  C   UNL     1       2.308   3.872  18.163  0.00  0.00    +0.000 C 
ATOM      3  N   UNL     1       3.605   3.922  17.641  0.00  0.00    +0.000 N 
ATOM      4  C   UNL     1       4.831   3.550  18.346  0.00  0.00    +0.000 C 
ATOM      5  C   UNL     1       5.763   4.752  18.378  0.00  0.00    +0.000 C 
ATOM      6  C   UNL     1       6.104   5.191  16.946  0.00  0.00    +0.000 C 
ATOM      7  C   UNL     1       4.812   5.462  16.153  0.00  0.00    +0.000 C 
ATOM      8  C   UNL     1       3.817   4.302  16.248  0.00  0.00    +0.000 C 
ENDROOT
BRANCH   2   9
ATOM      9  C   UNL     1       2.123   3.632  19.578  0.00  0.00    +0.000 A 
ATOM     10  C   UNL     1       1.476   2.617  20.244  0.00  0.00    +0.000 A 
ATOM     11  C   UNL     1       1.649   2.925  21.603  0.00  0.00    +0.000 A 
ATOM     12  N   UNL     1       2.301   4.075  21.776  0.00  0.00    +0.000 NA
ATOM     13  O   UNL     1       2.556   4.544  20.499  0.00  0.00    +0.000 OA
ENDBRANCH   2   9
BRANCH   6  14
ATOM     14  O   UNL     1       6.820   4.160  16.244  0.00  0.00    +0.000 OA
BRANCH  14  15
ATOM     15  C   UNL     1       7.002   4.415  14.900  0.00  0.00    +0.000 A 
ATOM     16  C   UNL     1       6.307   3.604  14.018  0.00  0.00    +0.000 A 
ATOM     17  C   UNL     1       6.461   3.833  12.654  0.00  0.00    +0.000 A 
ATOM     18  C   UNL     1       7.317   4.842  12.227  0.00  0.00    +0.000 A 
ATOM     19  C   UNL     1       7.992   5.579  13.185  0.00  0.00    +0.000 A 
ATOM     20  N   UNL     1       7.850   5.391  14.514  0.00  0.00    +0.000 NA
ENDBRANCH  14  15
ENDBRANCH   6  14
TORSDOF 3
ENDMDL
MODEL 7
REMARK VINA RESULT:      -6.6      1.313      1.631
REMARK  Name = 
REMARK  3 active torsions:
REMARK  status: ('A' for Active; 'I' for Inactive)
REMARK    1  A    between atoms: C_2  and  C_3
REMARK    2  A    between atoms: C_11  and  O_12
REMARK    3  A    between atoms: O_12  and  C_13
REMARK                            x       y       z     vdW  Elec       q    Type
REMARK                         _______ _______ _______ _____ _____    ______ ____
ROOT
ATOM      1  O   UNL     1       7.808   6.130  15.307  0.00  0.00    +0.000 OA
ATOM      2  C   UNL     1       6.939   5.259  15.211  0.00  0.00    +0.000 C 
ATOM      3  N   UNL     1       6.172   4.897  16.322  0.00  0.00    +0.000 N 
ATOM      4  C   UNL     1       5.283   3.739  16.415  0.00  0.00    +0.000 C 
ATOM      5  C   UNL     1       3.874   4.224  16.725  0.00  0.00    +0.000 C 
ATOM      6  C   UNL     1       3.865   4.989  18.058  0.00  0.00    +0.000 C 
ATOM      7  C   UNL     1       4.893   6.135  18.019  0.00  0.00    +0.000 C 
ATOM      8  C   UNL     1       6.276   5.661  17.562  0.00  0.00    +0.000 C 
ENDROOT
BRANCH   2   9
ATOM      9  C   UNL     1       6.722   4.582  13.950  0.00  0.00    +0.000 A 
ATOM     10  C   UNL     1       5.816   3.611  13.591  0.00  0.00    +0.000 A 
ATOM     11  C   UNL     1       6.086   3.366  12.235  0.00  0.00    +0.000 A 
ATOM     12  N   UNL     1       7.121   4.082  11.793  0.00  0.00    +0.000 NA
ATOM     13  O   UNL     1       7.552   4.812  12.888  0.00  0.00    +0.000 OA
ENDBRANCH   2   9
BRANCH   6  14
ATOM     14  O   UNL     1       4.233   4.131  19.151  0.00  0.00    +0.000 OA
BRANCH  14  15
ATOM     15  C   UNL     1       3.172   3.726  19.934  0.00  0.00    +0.000 A 
ATOM     16  C   UNL     1       3.429   2.722  20.853  0.00  0.00    +0.000 A 
ATOM     17  C   UNL     1       2.384   2.291  21.664  0.00  0.00    +0.000 A 
ATOM     18  C   UNL     1       1.124   2.858  21.510  0.00  0.00    +0.000 A 
ATOM     19  C   UNL     1       0.958   3.835  20.542  0.00  0.00    +0.000 A 
ATOM     20  N   UNL     1       1.956   4.285  19.752  0.00  0.00    +0.000 NA
ENDBRANCH  14  15
ENDBRANCH   6  14
TORSDOF 3
ENDMDL
MODEL 8
REMARK VINA RESULT:      -6.4      1.889      6.863
REMARK  Name = 
REMARK  3 active torsions:
REMARK  status: ('A' for Active; 'I' for Inactive)
REMARK    1  A    between atoms: C_2  and  C_3
REMARK    2  A    between atoms: C_11  and  O_12
REMARK    3  A    between atoms: O_12  and  C_13
REMARK                            x       y       z     vdW  Elec       q    Type
REMARK                         _______ _______ _______ _____ _____    ______ ____
ROOT
ATOM      1  O   UNL     1       2.643   6.366  19.866  0.00  0.00    +0.000 OA
ATOM      2  C   UNL     1       2.810   5.394  19.125  0.00  0.00    +0.000 C 
ATOM      3  N   UNL     1       3.618   5.499  17.988  0.00  0.00    +0.000 N 
ATOM      4  C   UNL     1       3.719   4.516  16.910  0.00  0.00    +0.000 C 
ATOM      5  C   UNL     1       5.165   4.058  16.796  0.00  0.00    +0.000 C 
ATOM      6  C   UNL     1       6.073   5.258  16.486  0.00  0.00    +0.000 C 
ATOM      7  C   UNL     1       5.879   6.357  17.548  0.00  0.00    +0.000 C 
ATOM      8  C   UNL     1       4.404   6.707  17.761  0.00  0.00    +0.000 C 
ENDROOT
BRANCH   2   9
ATOM      9  C   UNL     1       2.148   4.138  19.410  0.00  0.00    +0.000 A 
ATOM     10  C   UNL     1       1.155   3.468  18.733  0.00  0.00    +0.000 A 
ATOM     11  C   UNL     1       0.942   2.305  19.490  0.00  0.00    +0.000 A 
ATOM     12  N   UNL     1       1.698   2.276  20.588  0.00  0.00    +0.000 NA
ATOM     13  O   UNL     1       2.422   3.456  20.561  0.00  0.00    +0.000 OA
ENDBRANCH   2   9
BRANCH   6  14
ATOM     14  O   UNL     1       5.745   5.842  15.213  0.00  0.00    +0.000 OA
BRANCH  14  15
ATOM     15  C   UNL     1       6.225   5.137  14.129  0.00  0.00    +0.000 A 
ATOM     16  C   UNL     1       5.429   4.104  13.661  0.00  0.00    +0.000 A 
ATOM     17  C   UNL     1       5.877   3.373  12.566  0.00  0.00    +0.000 A 
ATOM     18  C   UNL     1       7.107   3.683  11.998  0.00  0.00    +0.000 A 
ATOM     19  C   UNL     1       7.845   4.714  12.554  0.00  0.00    +0.000 A 
ATOM     20  N   UNL     1       7.429   5.451  13.606  0.00  0.00    +0.000 NA
ENDBRANCH  14  15
ENDBRANCH   6  14
TORSDOF 3
ENDMDL
MODEL 9
REMARK VINA RESULT:      -6.4      2.874      6.589
REMARK  Name = 
REMARK  3 active torsions:
REMARK  status: ('A' for Active; 'I' for Inactive)
REMARK    1  A    between atoms: C_2  and  C_3
REMARK    2  A    between atoms: C_11  and  O_12
REMARK    3  A    between atoms: O_12  and  C_13
REMARK                            x       y       z     vdW  Elec       q    Type
REMARK                         _______ _______ _______ _____ _____    ______ ____
ROOT
ATOM      1  O   UNL     1       3.195   1.697  17.537  0.00  0.00    +0.000 OA
ATOM      2  C   UNL     1       3.411   2.654  18.285  0.00  0.00    +0.000 C 
ATOM      3  N   UNL     1       4.385   3.603  17.960  0.00  0.00    +0.000 N 
ATOM      4  C   UNL     1       4.903   4.643  18.847  0.00  0.00    +0.000 C 
ATOM      5  C   UNL     1       4.650   6.003  18.212  0.00  0.00    +0.000 C 
ATOM      6  C   UNL     1       5.358   6.086  16.851  0.00  0.00    +0.000 C 
ATOM      7  C   UNL     1       4.915   4.918  15.951  0.00  0.00    +0.000 C 
ATOM      8  C   UNL     1       5.036   3.563  16.654  0.00  0.00    +0.000 C 
ENDROOT
BRANCH   2   9
ATOM      9  C   UNL     1       2.675   2.791  19.524  0.00  0.00    +0.000 A 
ATOM     10  C   UNL     1       1.481   3.416  19.800  0.00  0.00    +0.000 A 
ATOM     11  C   UNL     1       1.281   3.196  21.172  0.00  0.00    +0.000 A 
ATOM     12  N   UNL     1       2.298   2.537  21.727  0.00  0.00    +0.000 NA
ATOM     13  O   UNL     1       3.199   2.325  20.697  0.00  0.00    +0.000 OA
ENDBRANCH   2   9
BRANCH   6  14
ATOM     14  O   UNL     1       6.785   5.984  17.001  0.00  0.00    +0.000 OA
BRANCH  14  15
ATOM     15  C   UNL     1       7.381   7.119  17.510  0.00  0.00    +0.000 A 
ATOM     16  C   UNL     1       8.225   6.940  18.595  0.00  0.00    +0.000 A 
ATOM     17  C   UNL     1       8.849   8.061  19.133  0.00  0.00    +0.000 A 
ATOM     18  C   UNL     1       8.590   9.312  18.586  0.00  0.00    +0.000 A 
ATOM     19  C   UNL     1       7.709   9.393  17.521  0.00  0.00    +0.000 A 
ATOM     20  N   UNL     1       7.101   8.323  16.968  0.00  0.00    +0.000 NA
ENDBRANCH  14  15
ENDBRANCH   6  14
TORSDOF 3
ENDMDL
