MODEL 1
REMARK VINA RESULT:      -8.9      0.000      0.000
REMARK  Name = 
REMARK  5 active torsions:
REMARK  status: ('A' for Active; 'I' for Inactive)
REMARK    1  A    between atoms: N_3  and  C_4
REMARK    2  A    between atoms: C_4  and  C_5
REMARK    3  A    between atoms: N_9  and  C_10
REMARK    4  A    between atoms: C_14  and  C_15
REMARK    5  A    between atoms: C_20  and  C_21
REMARK                            x       y       z     vdW  Elec       q    Type
REMARK                         _______ _______ _______ _____ _____    ______ ____
ROOT
ATOM      1  C   UNL     1       2.505   7.537  19.018  0.00  0.00    +0.000 A 
ATOM      2  C   UNL     1       2.329   8.243  17.828  0.00  0.00    +0.000 A 
ATOM      3  C   UNL     1       1.494   9.354  17.787  0.00  0.00    +0.000 A 
ATOM      4  C   UNL     1       0.834   9.772  18.938  0.00  0.00    +0.000 A 
ATOM      5  C   UNL     1       1.051   9.139  20.169  0.00  0.00    +0.000 A 
ATOM      6  C   UNL     1       1.867   7.991  20.185  0.00  0.00    +0.000 A 
ENDROOT
BRANCH   5   7
ATOM      7  C   UNL     1       0.433   9.641  21.407  0.00  0.00    +0.000 A 
ATOM      8  C   UNL     1       0.690   9.297  22.729  0.00  0.00    +0.000 A 
ATOM      9  N   UNL     1      -0.112   9.967  23.611  0.00  0.00    +0.000 NA
ATOM     10  C   UNL     1      -0.869  10.744  22.867  0.00  0.00    +0.000 A 
ATOM     11  C   UNL     1      -1.912  11.649  23.230  0.00  0.00    +0.000 A 
ATOM     12  C   UNL     1      -2.597  12.345  22.289  0.00  0.00    +0.000 A 
ATOM     13  C   UNL     1      -2.190  12.218  20.882  0.00  0.00    +0.000 A 
ATOM     14  C   UNL     1      -1.197  11.386  20.539  0.00  0.00    +0.000 A 
ATOM     15  N   UNL     1      -0.560  10.616  21.514  0.00  0.00    +0.000 N 
BRANCH  12  16
ATOM     16  C   UNL     1      -3.703  13.238  22.714  0.00  0.00    +0.000 A 
ATOM     17  C   UNL     1      -3.463  14.586  23.009  0.00  0.00    +0.000 A 
ATOM     18  C   UNL     1      -4.522  15.388  23.430  0.00  0.00    +0.000 A 
ATOM     19  C   UNL     1      -5.787  14.838  23.537  0.00  0.00    +0.000 A 
ATOM     20  C   UNL     1      -5.949  13.497  23.217  0.00  0.00    +0.000 A 
ATOM     21  N   UNL     1      -4.938  12.697  22.809  0.00  0.00    +0.000 NA
ENDBRANCH  12  16
ENDBRANCH   5   7
BRANCH   1  25
ATOM     22  O   UNL     1       1.638   4.715  18.994  0.00  0.00    +0.000 OA
ATOM     23  C   UNL     1       2.802   5.072  19.128  0.00  0.00    +0.000 C 
ATOM     24  N   UNL     1       3.815   4.153  19.303  0.00  0.00    +0.000 N 
ATOM     25  N   UNL     1       3.285   6.360  19.088  0.00  0.00    +0.000 N 
ATOM     26  H   UNL     1       4.586   4.474  19.870  0.00  0.00    +0.000 HD
ATOM     27  H   UNL     1       4.279   6.458  18.941  0.00  0.00    +0.000 HD
BRANCH  24  28
ATOM     28  C   UNL     1       3.453   2.736  19.445  0.00  0.00    +0.000 C 
BRANCH  28  29
ATOM     29  C   UNL     1       3.450   1.925  18.141  0.00  0.00    +0.000 C 
ATOM     30  F   UNL     1       2.205   1.796  17.627  0.00  0.00    +0.000 F 
ATOM     31  F   UNL     1       4.241   2.468  17.194  0.00  0.00    +0.000 F 
ATOM     32  F   UNL     1       3.905   0.668  18.378  0.00  0.00    +0.000 F 
ENDBRANCH  28  29
ENDBRANCH  24  28
ENDBRANCH   1  25
TORSDOF 5
ENDMDL
MODEL 2
REMARK VINA RESULT:      -8.8      3.255      5.223
REMARK  Name = 
REMARK  5 active torsions:
REMARK  status: ('A' for Active; 'I' for Inactive)
REMARK    1  A    between atoms: N_3  and  C_4
REMARK    2  A    between atoms: C_4  and  C_5
REMARK    3  A    between atoms: N_9  and  C_10
REMARK    4  A    between atoms: C_14  and  C_15
REMARK    5  A    between atoms: C_20  and  C_21
REMARK                            x       y       z     vdW  Elec       q    Type
REMARK                         _______ _______ _______ _____ _____    ______ ____
ROOT
ATOM      1  C   UNL     1       4.198   4.125  17.748  0.00  0.00    +0.000 A 
ATOM      2  C   UNL     1       3.887   3.403  18.901  0.00  0.00    +0.000 A 
ATOM      3  C   UNL     1       3.190   4.005  19.941  0.00  0.00    +0.000 A 
ATOM      4  C   UNL     1       2.792   5.334  19.835  0.00  0.00    +0.000 A 
ATOM      5  C   UNL     1       3.012   6.066  18.661  0.00  0.00    +0.000 A 
ATOM      6  C   UNL     1       3.755   5.454  17.633  0.00  0.00    +0.000 A 
ENDROOT
BRANCH   5   7
ATOM      7  C   UNL     1       2.503   7.438  18.507  0.00  0.00    +0.000 A 
ATOM      8  C   UNL     1       2.596   8.302  17.423  0.00  0.00    +0.000 A 
ATOM      9  N   UNL     1       2.015   9.516  17.668  0.00  0.00    +0.000 NA
ATOM     10  C   UNL     1       1.544   9.432  18.893  0.00  0.00    +0.000 A 
ATOM     11  C   UNL     1       0.864  10.397  19.695  0.00  0.00    +0.000 A 
ATOM     12  C   UNL     1       0.480  10.111  20.964  0.00  0.00    +0.000 A 
ATOM     13  C   UNL     1       0.700   8.751  21.477  0.00  0.00    +0.000 A 
ATOM     14  C   UNL     1       1.318   7.835  20.719  0.00  0.00    +0.000 A 
ATOM     15  N   UNL     1       1.780   8.175  19.447  0.00  0.00    +0.000 N 
BRANCH  12  16
ATOM     16  C   UNL     1      -0.182  11.164  21.773  0.00  0.00    +0.000 A 
ATOM     17  C   UNL     1      -1.174  10.834  22.705  0.00  0.00    +0.000 A 
ATOM     18  C   UNL     1      -1.791  11.853  23.429  0.00  0.00    +0.000 A 
ATOM     19  C   UNL     1      -1.404  13.164  23.217  0.00  0.00    +0.000 A 
ATOM     20  C   UNL     1      -0.407  13.412  22.285  0.00  0.00    +0.000 A 
ATOM     21  N   UNL     1       0.207  12.442  21.568  0.00  0.00    +0.000 NA
ENDBRANCH  12  16
ENDBRANCH   5   7
BRANCH   1  25
ATOM     22  O   UNL     1       5.663   5.499  15.585  0.00  0.00    +0.000 OA
ATOM     23  C   UNL     1       5.580   4.282  15.688  0.00  0.00    +0.000 C 
ATOM     24  N   UNL     1       6.165   3.445  14.762  0.00  0.00    +0.000 N 
ATOM     25  N   UNL     1       4.968   3.575  16.699  0.00  0.00    +0.000 N 
ATOM     26  H   UNL     1       5.680   2.572  14.613  0.00  0.00    +0.000 HD
ATOM     27  H   UNL     1       5.224   2.601  16.778  0.00  0.00    +0.000 HD
BRANCH  24  28
ATOM     28  C   UNL     1       6.792   4.048  13.578  0.00  0.00    +0.000 C 
BRANCH  28  29
ATOM     29  C   UNL     1       6.263   3.545  12.227  0.00  0.00    +0.000 C 
ATOM     30  F   UNL     1       6.744   2.317  11.921  0.00  0.00    +0.000 F 
ATOM     31  F   UNL     1       4.917   3.491  12.187  0.00  0.00    +0.000 F 
ATOM     32  F   UNL     1       6.665   4.379  11.234  0.00  0.00    +0.000 F 
ENDBRANCH  28  29
ENDBRANCH  24  28
ENDBRANCH   1  25
TORSDOF 5
ENDMDL
MODEL 3
REMARK VINA RESULT:      -8.7      2.758      4.238
REMARK  Name = 
REMARK  5 active torsions:
REMARK  status: ('A' for Active; 'I' for Inactive)
REMARK    1  A    between atoms: N_3  and  C_4
REMARK    2  A    between atoms: C_4  and  C_5
REMARK    3  A    between atoms: N_9  and  C_10
REMARK    4  A    between atoms: C_14  and  C_15
REMARK    5  A    between atoms: C_20  and  C_21
REMARK                            x       y       z     vdW  Elec       q    Type
REMARK                         _______ _______ _______ _____ _____    ______ ____
ROOT
ATOM      1  C   UNL     1       3.708   4.702  19.285  0.00  0.00    +0.000 A 
ATOM      2  C   UNL     1       3.053   3.936  20.251  0.00  0.00    +0.000 A 
ATOM      3  C   UNL     1       2.044   4.495  21.025  0.00  0.00    +0.000 A 
ATOM      4  C   UNL     1       1.675   5.823  20.837  0.00  0.00    +0.000 A 
ATOM      5  C   UNL     1       2.251   6.599  19.822  0.00  0.00    +0.000 A 
ATOM      6  C   UNL     1       3.300   6.030  19.073  0.00  0.00    +0.000 A 
ENDROOT
BRANCH   5   7
ATOM      7  C   UNL     1       1.792   7.971  19.554  0.00  0.00    +0.000 A 
ATOM      8  C   UNL     1       1.961   8.756  18.420  0.00  0.00    +0.000 A 
ATOM      9  N   UNL     1       1.408  10.000  18.556  0.00  0.00    +0.000 NA
ATOM     10  C   UNL     1       0.879  10.012  19.760  0.00  0.00    +0.000 A 
ATOM     11  C   UNL     1       0.194  11.048  20.464  0.00  0.00    +0.000 A 
ATOM     12  C   UNL     1      -0.255  10.860  21.730  0.00  0.00    +0.000 A 
ATOM     13  C   UNL     1      -0.101   9.532  22.342  0.00  0.00    +0.000 A 
ATOM     14  C   UNL     1       0.521   8.550  21.677  0.00  0.00    +0.000 A 
ATOM     15  N   UNL     1       1.051   8.789  20.407  0.00  0.00    +0.000 N 
BRANCH  12  16
ATOM     16  C   UNL     1      -0.920  11.983  22.435  0.00  0.00    +0.000 A 
ATOM     17  C   UNL     1      -2.183  11.817  23.017  0.00  0.00    +0.000 A 
ATOM     18  C   UNL     1      -2.788  12.902  23.650  0.00  0.00    +0.000 A 
ATOM     19  C   UNL     1      -2.123  14.115  23.696  0.00  0.00    +0.000 A 
ATOM     20  C   UNL     1      -0.870  14.200  23.106  0.00  0.00    +0.000 A 
ATOM     21  N   UNL     1      -0.262  13.163  22.484  0.00  0.00    +0.000 NA
ENDBRANCH  12  16
ENDBRANCH   5   7
BRANCH   1  25
ATOM     22  O   UNL     1       5.479   6.108  17.388  0.00  0.00    +0.000 OA
ATOM     23  C   UNL     1       5.537   4.906  17.615  0.00  0.00    +0.000 C 
ATOM     24  N   UNL     1       6.448   4.099  16.966  0.00  0.00    +0.000 N 
ATOM     25  N   UNL     1       4.788   4.197  18.527  0.00  0.00    +0.000 N 
ATOM     26  H   UNL     1       6.140   3.150  16.812  0.00  0.00    +0.000 HD
ATOM     27  H   UNL     1       5.144   3.288  18.784  0.00  0.00    +0.000 HD
BRANCH  24  28
ATOM     28  C   UNL     1       7.270   4.693  15.904  0.00  0.00    +0.000 C 
BRANCH  28  29
ATOM     29  C   UNL     1       6.674   4.614  14.490  0.00  0.00    +0.000 C 
ATOM     30  F   UNL     1       7.506   5.136  13.560  0.00  0.00    +0.000 F 
ATOM     31  F   UNL     1       6.376   3.351  14.126  0.00  0.00    +0.000 F 
ATOM     32  F   UNL     1       5.525   5.335  14.433  0.00  0.00    +0.000 F 
ENDBRANCH  28  29
ENDBRANCH  24  28
ENDBRANCH   1  25
TORSDOF 5
ENDMDL
MODEL 4
REMARK VINA RESULT:      -8.6      3.006      4.690
REMARK  Name = 
REMARK  5 active torsions:
REMARK  status: ('A' for Active; 'I' for Inactive)
REMARK    1  A    between atoms: N_3  and  C_4
REMARK    2  A    between atoms: C_4  and  C_5
REMARK    3  A    between atoms: N_9  and  C_10
REMARK    4  A    between atoms: C_14  and  C_15
REMARK    5  A    between atoms: C_20  and  C_21
REMARK                            x       y       z     vdW  Elec       q    Type
REMARK                         _______ _______ _______ _____ _____    ______ ____
ROOT
ATOM      1  C   UNL     1       3.690   4.313  18.284  0.00  0.00    +0.000 A 
ATOM      2  C   UNL     1       3.347   3.657  19.466  0.00  0.00    +0.000 A 
ATOM      3  C   UNL     1       2.672   4.333  20.476  0.00  0.00    +0.000 A 
ATOM      4  C   UNL     1       2.328   5.671  20.309  0.00  0.00    +0.000 A 
ATOM      5  C   UNL     1       2.581   6.340  19.103  0.00  0.00    +0.000 A 
ATOM      6  C   UNL     1       3.301   5.652  18.107  0.00  0.00    +0.000 A 
ENDROOT
BRANCH   5   7
ATOM      7  C   UNL     1       2.129   7.723  18.886  0.00  0.00    +0.000 A 
ATOM      8  C   UNL     1       2.251   8.529  17.761  0.00  0.00    +0.000 A 
ATOM      9  N   UNL     1       1.722   9.777  17.950  0.00  0.00    +0.000 NA
ATOM     10  C   UNL     1       1.255   9.771  19.179  0.00  0.00    +0.000 A 
ATOM     11  C   UNL     1       0.621  10.801  19.937  0.00  0.00    +0.000 A 
ATOM     12  C   UNL     1       0.233  10.592  21.220  0.00  0.00    +0.000 A 
ATOM     13  C   UNL     1       0.400   9.251  21.797  0.00  0.00    +0.000 A 
ATOM     14  C   UNL     1       0.974   8.274  21.082  0.00  0.00    +0.000 A 
ATOM     15  N   UNL     1       1.443   8.533  19.792  0.00  0.00    +0.000 N 
BRANCH  12  16
ATOM     16  C   UNL     1      -0.379  11.709  21.980  0.00  0.00    +0.000 A 
ATOM     17  C   UNL     1      -1.508  11.497  22.781  0.00  0.00    +0.000 A 
ATOM     18  C   UNL     1      -2.071  12.575  23.462  0.00  0.00    +0.000 A 
ATOM     19  C   UNL     1      -1.498  13.828  23.337  0.00  0.00    +0.000 A 
ATOM     20  C   UNL     1      -0.374  13.959  22.533  0.00  0.00    +0.000 A 
ATOM     21  N   UNL     1       0.191  12.929  21.861  0.00  0.00    +0.000 NA
ENDBRANCH  12  16
ENDBRANCH   5   7
BRANCH   1  25
ATOM     22  O   UNL     1       5.610   5.495  16.378  0.00  0.00    +0.000 OA
ATOM     23  C   UNL     1       5.278   4.316  16.373  0.00  0.00    +0.000 C 
ATOM     24  N   UNL     1       5.779   3.439  15.434  0.00  0.00    +0.000 N 
ATOM     25  N   UNL     1       4.440   3.686  17.264  0.00  0.00    +0.000 N 
ATOM     26  H   UNL     1       5.149   2.694  15.171  0.00  0.00    +0.000 HD
ATOM     27  H   UNL     1       4.489   2.678  17.283  0.00  0.00    +0.000 HD
BRANCH  24  28
ATOM     28  C   UNL     1       6.630   3.976  14.364  0.00  0.00    +0.000 C 
BRANCH  28  29
ATOM     29  C   UNL     1       6.146   3.688  12.935  0.00  0.00    +0.000 C 
ATOM     30  F   UNL     1       4.831   3.963  12.780  0.00  0.00    +0.000 F 
ATOM     31  F   UNL     1       6.833   4.386  12.008  0.00  0.00    +0.000 F 
ATOM     32  F   UNL     1       6.305   2.371  12.650  0.00  0.00    +0.000 F 
ENDBRANCH  28  29
ENDBRANCH  24  28
ENDBRANCH   1  25
TORSDOF 5
ENDMDL
MODEL 5
REMARK VINA RESULT:      -8.5      4.348      6.547
REMARK  Name = 
REMARK  5 active torsions:
REMARK  status: ('A' for Active; 'I' for Inactive)
REMARK    1  A    between atoms: N_3  and  C_4
REMARK    2  A    between atoms: C_4  and  C_5
REMARK    3  A    between atoms: N_9  and  C_10
REMARK    4  A    between atoms: C_14  and  C_15
REMARK    5  A    between atoms: C_20  and  C_21
REMARK                            x       y       z     vdW  Elec       q    Type
REMARK                         _______ _______ _______ _____ _____    ______ ____
ROOT
ATOM      1  C   UNL     1       6.442   4.234  16.896  0.00  0.00    +0.000 A 
ATOM      2  C   UNL     1       7.634   4.494  17.571  0.00  0.00    +0.000 A 
ATOM      3  C   UNL     1       7.630   5.240  18.744  0.00  0.00    +0.000 A 
ATOM      4  C   UNL     1       6.432   5.728  19.255  0.00  0.00    +0.000 A 
ATOM      5  C   UNL     1       5.206   5.417  18.651  0.00  0.00    +0.000 A 
ATOM      6  C   UNL     1       5.231   4.694  17.442  0.00  0.00    +0.000 A 
ENDROOT
BRANCH   5   7
ATOM      7  C   UNL     1       3.929   5.844  19.246  0.00  0.00    +0.000 A 
ATOM      8  C   UNL     1       3.186   5.260  20.264  0.00  0.00    +0.000 A 
ATOM      9  N   UNL     1       2.030   5.942  20.528  0.00  0.00    +0.000 NA
ATOM     10  C   UNL     1       2.034   6.962  19.696  0.00  0.00    +0.000 A 
ATOM     11  C   UNL     1       1.074   7.998  19.492  0.00  0.00    +0.000 A 
ATOM     12  C   UNL     1       1.262   8.954  18.549  0.00  0.00    +0.000 A 
ATOM     13  C   UNL     1       2.521   8.958  17.790  0.00  0.00    +0.000 A 
ATOM     14  C   UNL     1       3.435   7.999  17.994  0.00  0.00    +0.000 A 
ATOM     15  N   UNL     1       3.185   6.976  18.910  0.00  0.00    +0.000 N 
BRANCH  12  16
ATOM     16  C   UNL     1       0.213   9.983  18.344  0.00  0.00    +0.000 A 
ATOM     17  C   UNL     1      -0.962   9.679  17.645  0.00  0.00    +0.000 A 
ATOM     18  C   UNL     1      -1.915  10.678  17.451  0.00  0.00    +0.000 A 
ATOM     19  C   UNL     1      -1.683  11.943  17.961  0.00  0.00    +0.000 A 
ATOM     20  C   UNL     1      -0.500  12.165  18.652  0.00  0.00    +0.000 A 
ATOM     21  N   UNL     1       0.441  11.214  18.852  0.00  0.00    +0.000 NA
ENDBRANCH  12  16
ENDBRANCH   5   7
BRANCH   1  25
ATOM     22  O   UNL     1       6.320   5.314  14.151  0.00  0.00    +0.000 OA
ATOM     23  C   UNL     1       6.294   4.119  14.417  0.00  0.00    +0.000 C 
ATOM     24  N   UNL     1       6.183   3.169  13.425  0.00  0.00    +0.000 N 
ATOM     25  N   UNL     1       6.408   3.544  15.663  0.00  0.00    +0.000 N 
ATOM     26  H   UNL     1       5.692   2.329  13.695  0.00  0.00    +0.000 HD
ATOM     27  H   UNL     1       6.642   2.562  15.679  0.00  0.00    +0.000 HD
BRANCH  24  28
ATOM     28  C   UNL     1       5.975   3.626  12.044  0.00  0.00    +0.000 C 
BRANCH  28  29
ATOM     29  C   UNL     1       4.655   3.180  11.398  0.00  0.00    +0.000 C 
ATOM     30  F   UNL     1       4.263   4.023  10.414  0.00  0.00    +0.000 F 
ATOM     31  F   UNL     1       4.726   1.937  10.882  0.00  0.00    +0.000 F 
ATOM     32  F   UNL     1       3.664   3.179  12.325  0.00  0.00    +0.000 F 
ENDBRANCH  28  29
ENDBRANCH  24  28
ENDBRANCH   1  25
TORSDOF 5
ENDMDL
MODEL 6
REMARK VINA RESULT:      -8.4      2.476      3.521
REMARK  Name = 
REMARK  5 active torsions:
REMARK  status: ('A' for Active; 'I' for Inactive)
REMARK    1  A    between atoms: N_3  and  C_4
REMARK    2  A    between atoms: C_4  and  C_5
REMARK    3  A    between atoms: N_9  and  C_10
REMARK    4  A    between atoms: C_14  and  C_15
REMARK    5  A    between atoms: C_20  and  C_21
REMARK                            x       y       z     vdW  Elec       q    Type
REMARK                         _______ _______ _______ _____ _____    ______ ____
ROOT
ATOM      1  C   UNL     1       3.558   5.891  19.264  0.00  0.00    +0.000 A 
ATOM      2  C   UNL     1       3.008   4.946  20.132  0.00  0.00    +0.000 A 
ATOM      3  C   UNL     1       1.912   5.271  20.922  0.00  0.00    +0.000 A 
ATOM      4  C   UNL     1       1.352   6.542  20.847  0.00  0.00    +0.000 A 
ATOM      5  C   UNL     1       1.822   7.490  19.928  0.00  0.00    +0.000 A 
ATOM      6  C   UNL     1       2.959   7.158  19.164  0.00  0.00    +0.000 A 
ENDROOT
BRANCH   5   7
ATOM      7  C   UNL     1       1.167   8.798  19.775  0.00  0.00    +0.000 A 
ATOM      8  C   UNL     1       1.146   9.656  18.682  0.00  0.00    +0.000 A 
ATOM      9  N   UNL     1       0.444  10.804  18.930  0.00  0.00    +0.000 NA
ATOM     10  C   UNL     1       0.009  10.682  20.165  0.00  0.00    +0.000 A 
ATOM     11  C   UNL     1      -0.753  11.578  20.974  0.00  0.00    +0.000 A 
ATOM     12  C   UNL     1      -1.078  11.265  22.253  0.00  0.00    +0.000 A 
ATOM     13  C   UNL     1      -0.705   9.942  22.772  0.00  0.00    +0.000 A 
ATOM     14  C   UNL     1      -0.009   9.089  22.008  0.00  0.00    +0.000 A 
ATOM     15  N   UNL     1       0.389   9.463  20.724  0.00  0.00    +0.000 N 
BRANCH  12  16
ATOM     16  C   UNL     1      -1.832  12.250  23.067  0.00  0.00    +0.000 A 
ATOM     17  C   UNL     1      -1.296  13.515  23.340  0.00  0.00    +0.000 A 
ATOM     18  C   UNL     1      -2.023  14.405  24.129  0.00  0.00    +0.000 A 
ATOM     19  C   UNL     1      -3.259  14.023  24.618  0.00  0.00    +0.000 A 
ATOM     20  C   UNL     1      -3.729  12.757  24.296  0.00  0.00    +0.000 A 
ATOM     21  N   UNL     1      -3.044  11.874  23.534  0.00  0.00    +0.000 NA
ENDBRANCH  12  16
ENDBRANCH   5   7
BRANCH   1  25
ATOM     22  O   UNL     1       3.839   4.323  16.778  0.00  0.00    +0.000 OA
ATOM     23  C   UNL     1       4.778   4.836  17.374  0.00  0.00    +0.000 C 
ATOM     24  N   UNL     1       6.073   4.695  16.920  0.00  0.00    +0.000 N 
ATOM     25  N   UNL     1       4.716   5.628  18.498  0.00  0.00    +0.000 N 
ATOM     26  H   UNL     1       6.777   4.687  17.644  0.00  0.00    +0.000 HD
ATOM     27  H   UNL     1       5.534   6.185  18.695  0.00  0.00    +0.000 HD
BRANCH  24  28
ATOM     28  C   UNL     1       6.315   3.814  15.771  0.00  0.00    +0.000 C 
BRANCH  28  29
ATOM     29  C   UNL     1       6.264   4.497  14.396  0.00  0.00    +0.000 C 
ATOM     30  F   UNL     1       5.707   5.728  14.463  0.00  0.00    +0.000 F 
ATOM     31  F   UNL     1       7.483   4.617  13.834  0.00  0.00    +0.000 F 
ATOM     32  F   UNL     1       5.496   3.768  13.547  0.00  0.00    +0.000 F 
ENDBRANCH  28  29
ENDBRANCH  24  28
ENDBRANCH   1  25
TORSDOF 5
ENDMDL
MODEL 7
REMARK VINA RESULT:      -8.4      3.281      4.863
REMARK  Name = 
REMARK  5 active torsions:
REMARK  status: ('A' for Active; 'I' for Inactive)
REMARK    1  A    between atoms: N_3  and  C_4
REMARK    2  A    between atoms: C_4  and  C_5
REMARK    3  A    between atoms: N_9  and  C_10
REMARK    4  A    between atoms: C_14  and  C_15
REMARK    5  A    between atoms: C_20  and  C_21
REMARK                            x       y       z     vdW  Elec       q    Type
REMARK                         _______ _______ _______ _____ _____    ______ ____
ROOT
ATOM      1  C   UNL     1       3.835   4.550  17.788  0.00  0.00    +0.000 A 
ATOM      2  C   UNL     1       3.742   3.913  19.025  0.00  0.00    +0.000 A 
ATOM      3  C   UNL     1       3.236   4.589  20.129  0.00  0.00    +0.000 A 
ATOM      4  C   UNL     1       2.812   5.908  20.003  0.00  0.00    +0.000 A 
ATOM      5  C   UNL     1       2.812   6.555  18.760  0.00  0.00    +0.000 A 
ATOM      6  C   UNL     1       3.366   5.869  17.661  0.00  0.00    +0.000 A 
ENDROOT
BRANCH   5   7
ATOM      7  C   UNL     1       2.271   7.914  18.604  0.00  0.00    +0.000 A 
ATOM      8  C   UNL     1       2.338   8.776  17.516  0.00  0.00    +0.000 A 
ATOM      9  N   UNL     1       1.730   9.977  17.759  0.00  0.00    +0.000 NA
ATOM     10  C   UNL     1       1.268   9.887  18.987  0.00  0.00    +0.000 A 
ATOM     11  C   UNL     1       0.571  10.839  19.790  0.00  0.00    +0.000 A 
ATOM     12  C   UNL     1       0.201  10.549  21.062  0.00  0.00    +0.000 A 
ATOM     13  C   UNL     1       0.455   9.197  21.579  0.00  0.00    +0.000 A 
ATOM     14  C   UNL     1       1.089   8.292  20.821  0.00  0.00    +0.000 A 
ATOM     15  N   UNL     1       1.536   8.638  19.545  0.00  0.00    +0.000 N 
BRANCH  12  16
ATOM     16  C   UNL     1      -0.481  11.590  21.870  0.00  0.00    +0.000 A 
ATOM     17  C   UNL     1      -0.064  12.926  21.817  0.00  0.00    +0.000 A 
ATOM     18  C   UNL     1      -0.713  13.872  22.610  0.00  0.00    +0.000 A 
ATOM     19  C   UNL     1      -1.758  13.472  23.423  0.00  0.00    +0.000 A 
ATOM     20  C   UNL     1      -2.121  12.132  23.414  0.00  0.00    +0.000 A 
ATOM     21  N   UNL     1      -1.507  11.194  22.656  0.00  0.00    +0.000 NA
ENDBRANCH  12  16
ENDBRANCH   5   7
BRANCH   1  25
ATOM     22  O   UNL     1       6.065   5.460  16.081  0.00  0.00    +0.000 OA
ATOM     23  C   UNL     1       5.418   4.441  15.876  0.00  0.00    +0.000 C 
ATOM     24  N   UNL     1       5.682   3.635  14.789  0.00  0.00    +0.000 N 
ATOM     25  N   UNL     1       4.411   3.925  16.659  0.00  0.00    +0.000 N 
ATOM     26  H   UNL     1       4.878   3.153  14.412  0.00  0.00    +0.000 HD
ATOM     27  H   UNL     1       4.176   2.956  16.501  0.00  0.00    +0.000 HD
BRANCH  24  28
ATOM     28  C   UNL     1       6.681   4.089  13.812  0.00  0.00    +0.000 C 
BRANCH  28  29
ATOM     29  C   UNL     1       6.413   3.674  12.358  0.00  0.00    +0.000 C 
ATOM     30  F   UNL     1       6.789   2.397  12.118  0.00  0.00    +0.000 F 
ATOM     31  F   UNL     1       5.116   3.803  12.015  0.00  0.00    +0.000 F 
ATOM     32  F   UNL     1       7.135   4.456  11.514  0.00  0.00    +0.000 F 
ENDBRANCH  28  29
ENDBRANCH  24  28
ENDBRANCH   1  25
TORSDOF 5
ENDMDL
MODEL 8
REMARK VINA RESULT:      -8.3      1.022      1.110
REMARK  Name = 
REMARK  5 active torsions:
REMARK  status: ('A' for Active; 'I' for Inactive)
REMARK    1  A    between atoms: N_3  and  C_4
REMARK    2  A    between atoms: C_4  and  C_5
REMARK    3  A    between atoms: N_9  and  C_10
REMARK    4  A    between atoms: C_14  and  C_15
REMARK    5  A    between atoms: C_20  and  C_21
REMARK                            x       y       z     vdW  Elec       q    Type
REMARK                         _______ _______ _______ _____ _____    ______ ____
ROOT
ATOM      1  C   UNL     1       2.121   7.628  18.540  0.00  0.00    +0.000 A 
ATOM      2  C   UNL     1       2.510   8.610  17.629  0.00  0.00    +0.000 A 
ATOM      3  C   UNL     1       2.211   9.947  17.866  0.00  0.00    +0.000 A 
ATOM      4  C   UNL     1       1.526  10.313  19.020  0.00  0.00    +0.000 A 
ATOM      5  C   UNL     1       1.193   9.366  19.997  0.00  0.00    +0.000 A 
ATOM      6  C   UNL     1       1.467   8.012  19.723  0.00  0.00    +0.000 A 
ENDROOT
BRANCH   5   7
ATOM      7  C   UNL     1       0.559   9.764  21.265  0.00  0.00    +0.000 A 
ATOM      8  C   UNL     1       0.836   9.351  22.562  0.00  0.00    +0.000 A 
ATOM      9  N   UNL     1       0.010   9.931  23.485  0.00  0.00    +0.000 NA
ATOM     10  C   UNL     1      -0.783  10.718  22.791  0.00  0.00    +0.000 A 
ATOM     11  C   UNL     1      -1.863  11.553  23.210  0.00  0.00    +0.000 A 
ATOM     12  C   UNL     1      -2.581  12.275  22.315  0.00  0.00    +0.000 A 
ATOM     13  C   UNL     1      -2.175  12.251  20.902  0.00  0.00    +0.000 A 
ATOM     14  C   UNL     1      -1.148  11.486  20.507  0.00  0.00    +0.000 A 
ATOM     15  N   UNL     1      -0.475  10.686  21.432  0.00  0.00    +0.000 N 
BRANCH  12  16
ATOM     16  C   UNL     1      -3.723  13.091  22.796  0.00  0.00    +0.000 A 
ATOM     17  C   UNL     1      -3.774  14.468  22.547  0.00  0.00    +0.000 A 
ATOM     18  C   UNL     1      -4.851  15.207  23.036  0.00  0.00    +0.000 A 
ATOM     19  C   UNL     1      -5.847  14.563  23.747  0.00  0.00    +0.000 A 
ATOM     20  C   UNL     1      -5.732  13.194  23.944  0.00  0.00    +0.000 A 
ATOM     21  N   UNL     1      -4.698  12.454  23.482  0.00  0.00    +0.000 NA
ENDBRANCH  12  16
ENDBRANCH   5   7
BRANCH   1  25
ATOM     22  O   UNL     1       4.185   5.841  19.664  0.00  0.00    +0.000 OA
ATOM     23  C   UNL     1       3.363   5.494  18.825  0.00  0.00    +0.000 C 
ATOM     24  N   UNL     1       3.359   4.212  18.318  0.00  0.00    +0.000 N 
ATOM     25  N   UNL     1       2.339   6.251  18.303  0.00  0.00    +0.000 N 
ATOM     26  H   UNL     1       3.044   4.135  17.361  0.00  0.00    +0.000 HD
ATOM     27  H   UNL     1       1.601   5.742  17.841  0.00  0.00    +0.000 HD
BRANCH  24  28
ATOM     28  C   UNL     1       4.440   3.301  18.719  0.00  0.00    +0.000 C 
BRANCH  28  29
ATOM     29  C   UNL     1       3.986   2.010  19.416  0.00  0.00    +0.000 C 
ATOM     30  F   UNL     1       2.891   2.208  20.185  0.00  0.00    +0.000 F 
ATOM     31  F   UNL     1       3.714   1.020  18.543  0.00  0.00    +0.000 F 
ATOM     32  F   UNL     1       4.966   1.564  20.243  0.00  0.00    +0.000 F 
ENDBRANCH  28  29
ENDBRANCH  24  28
ENDBRANCH   1  25
TORSDOF 5
ENDMDL
MODEL 9
REMARK VINA RESULT:      -8.2      4.718      9.688
REMARK  Name = 
REMARK  5 active torsions:
REMARK  status: ('A' for Active; 'I' for Inactive)
REMARK    1  A    between atoms: N_3  and  C_4
REMARK    2  A    between atoms: C_4  and  C_5
REMARK    3  A    between atoms: N_9  and  C_10
REMARK    4  A    between atoms: C_14  and  C_15
REMARK    5  A    between atoms: C_20  and  C_21
REMARK                            x       y       z     vdW  Elec       q    Type
REMARK                         _______ _______ _______ _____ _____    ______ ____
ROOT
ATOM      1  C   UNL     1      -0.840  11.707  19.133  0.00  0.00    +0.000 A 
ATOM      2  C   UNL     1      -0.583  12.614  20.161  0.00  0.00    +0.000 A 
ATOM      3  C   UNL     1       0.166  12.231  21.267  0.00  0.00    +0.000 A 
ATOM      4  C   UNL     1       0.671  10.937  21.351  0.00  0.00    +0.000 A 
ATOM      5  C   UNL     1       0.505  10.023  20.301  0.00  0.00    +0.000 A 
ATOM      6  C   UNL     1      -0.291  10.415  19.207  0.00  0.00    +0.000 A 
ENDROOT
BRANCH   5   7
ATOM      7  C   UNL     1       1.123   8.689  20.343  0.00  0.00    +0.000 A 
ATOM      8  C   UNL     1       1.027   7.697  21.310  0.00  0.00    +0.000 A 
ATOM      9  N   UNL     1       1.772   6.591  21.005  0.00  0.00    +0.000 NA
ATOM     10  C   UNL     1       2.335   6.864  19.848  0.00  0.00    +0.000 A 
ATOM     11  C   UNL     1       3.241   6.100  19.053  0.00  0.00    +0.000 A 
ATOM     12  C   UNL     1       3.731   6.585  17.885  0.00  0.00    +0.000 A 
ATOM     13  C   UNL     1       3.246   7.885  17.402  0.00  0.00    +0.000 A 
ATOM     14  C   UNL     1       2.378   8.597  18.135  0.00  0.00    +0.000 A 
ATOM     15  N   UNL     1       1.950   8.117  19.374  0.00  0.00    +0.000 N 
BRANCH  12  16
ATOM     16  C   UNL     1       4.706   5.770  17.117  0.00  0.00    +0.000 A 
ATOM     17  C   UNL     1       5.940   6.307  16.730  0.00  0.00    +0.000 A 
ATOM     18  C   UNL     1       6.820   5.520  15.989  0.00  0.00    +0.000 A 
ATOM     19  C   UNL     1       6.459   4.226  15.661  0.00  0.00    +0.000 A 
ATOM     20  C   UNL     1       5.223   3.760  16.089  0.00  0.00    +0.000 A 
ATOM     21  N   UNL     1       4.351   4.504  16.808  0.00  0.00    +0.000 NA
ENDBRANCH  12  16
ENDBRANCH   5   7
BRANCH   1  25
ATOM     22  O   UNL     1      -3.103  10.206  17.976  0.00  0.00    +0.000 OA
ATOM     23  C   UNL     1      -2.665  11.250  17.509  0.00  0.00    +0.000 C 
ATOM     24  N   UNL     1      -3.202  11.801  16.365  0.00  0.00    +0.000 N 
ATOM     25  N   UNL     1      -1.658  12.032  18.027  0.00  0.00    +0.000 N 
ATOM     26  H   UNL     1      -2.546  12.312  15.791  0.00  0.00    +0.000 HD
ATOM     27  H   UNL     1      -1.608  12.979  17.681  0.00  0.00    +0.000 HD
BRANCH  24  28
ATOM     28  C   UNL     1      -4.237  11.045  15.647  0.00  0.00    +0.000 C 
BRANCH  28  29
ATOM     29  C   UNL     1      -3.714  10.001  14.649  0.00  0.00    +0.000 C 
ATOM     30  F   UNL     1      -3.263   8.887  15.271  0.00  0.00    +0.000 F 
ATOM     31  F   UNL     1      -4.649   9.632  13.751  0.00  0.00    +0.000 F 
ATOM     32  F   UNL     1      -2.665  10.511  13.955  0.00  0.00    +0.000 F 
ENDBRANCH  28  29
ENDBRANCH  24  28
ENDBRANCH   1  25
TORSDOF 5
ENDMDL
