MODEL 1
REMARK VINA RESULT:      -6.9      0.000      0.000
REMARK  Name = 
REMARK  5 active torsions:
REMARK  status: ('A' for Active; 'I' for Inactive)
REMARK    1  A    between atoms: C_2  and  C_4
REMARK    2  A    between atoms: N_6  and  C_7
REMARK    3  A    between atoms: C_7  and  C_8
REMARK    4  A    between atoms: C_15  and  C_16
REMARK    5  A    between atoms: C_19  and  C_20
REMARK                            x       y       z     vdW  Elec       q    Type
REMARK                         _______ _______ _______ _____ _____    ______ ____
ROOT
ATOM      1  C   UNL     1       4.727   3.593  18.609  0.00  0.00    +0.000 C 
ATOM      2  C   UNL     1       5.607   3.899  17.637  0.00  0.00    +0.000 C 
ATOM      3  N   UNL     1       5.698   5.144  17.025  0.00  0.00    +0.000 N 
ATOM      4  C   UNL     1       4.740   6.101  17.351  0.00  0.00    +0.000 C 
ATOM      5  C   UNL     1       3.802   5.935  18.302  0.00  0.00    +0.000 C 
ATOM      6  C   UNL     1       3.793   4.674  19.186  0.00  0.00    +0.000 C 
ENDROOT
BRANCH   1   8
ATOM      7  N   UNL     1       4.244   1.213  18.513  0.00  0.00    +0.000 N 
ATOM      8  C   UNL     1       4.754   2.247  19.236  0.00  0.00    +0.000 C 
ATOM      9  O   UNL     1       5.202   2.051  20.361  0.00  0.00    +0.000 OA
ATOM     10  H   UNL     1       4.205   0.311  18.968  0.00  0.00    +0.000 HD
ATOM     11  H   UNL     1       3.755   1.320  17.636  0.00  0.00    +0.000 HD
ENDBRANCH   1   8
BRANCH   5  12
ATOM     12  C   UNL     1       2.851   7.032  18.613  0.00  0.00    +0.000 C 
ATOM     13  N   UNL     1       2.498   7.193  19.919  0.00  0.00    +0.000 N 
ATOM     14  O   UNL     1       2.403   7.780  17.753  0.00  0.00    +0.000 OA
ATOM     15  H   UNL     1       2.932   6.701  20.686  0.00  0.00    +0.000 HD
ATOM     16  H   UNL     1       1.911   7.989  20.137  0.00  0.00    +0.000 HD
ENDBRANCH   5  12
BRANCH   6  17
ATOM     17  C   UNL     1       2.395   4.184  19.562  0.00  0.00    +0.000 A 
ATOM     18  N   UNL     1       1.875   4.184  20.774  0.00  0.00    +0.000 NA
ATOM     19  C   UNL     1       0.609   3.630  20.735  0.00  0.00    +0.000 A 
ATOM     20  C   UNL     1       0.166   3.221  19.497  0.00  0.00    +0.000 A 
ATOM     21  S   UNL     1       1.373   3.520  18.326  0.00  0.00    +0.000 S 
ENDBRANCH   6  17
BRANCH   3  22
ATOM     22  C   UNL     1       6.853   5.475  16.166  0.00  0.00    +0.000 C 
BRANCH  22  23
ATOM     23  C   UNL     1       6.707   4.966  14.750  0.00  0.00    +0.000 A 
ATOM     24  C   UNL     1       7.651   5.292  13.765  0.00  0.00    +0.000 A 
ATOM     25  C   UNL     1       7.569   4.737  12.486  0.00  0.00    +0.000 A 
ATOM     26  C   UNL     1       6.541   3.849  12.176  0.00  0.00    +0.000 A 
ATOM     27  C   UNL     1       5.587   3.527  13.139  0.00  0.00    +0.000 A 
ATOM     28  C   UNL     1       5.667   4.083  14.417  0.00  0.00    +0.000 A 
ENDBRANCH  22  23
ENDBRANCH   3  22
TORSDOF 5
ENDMDL
MODEL 2
REMARK VINA RESULT:      -6.8      3.037      6.359
REMARK  Name = 
REMARK  5 active torsions:
REMARK  status: ('A' for Active; 'I' for Inactive)
REMARK    1  A    between atoms: C_2  and  C_4
REMARK    2  A    between atoms: N_6  and  C_7
REMARK    3  A    between atoms: C_7  and  C_8
REMARK    4  A    between atoms: C_15  and  C_16
REMARK    5  A    between atoms: C_19  and  C_20
REMARK                            x       y       z     vdW  Elec       q    Type
REMARK                         _______ _______ _______ _____ _____    ______ ____
ROOT
ATOM      1  C   UNL     1       4.157   6.210  17.548  0.00  0.00    +0.000 C 
ATOM      2  C   UNL     1       3.685   7.458  17.372  0.00  0.00    +0.000 C 
ATOM      3  N   UNL     1       2.708   8.047  18.167  0.00  0.00    +0.000 N 
ATOM      4  C   UNL     1       2.091   7.256  19.132  0.00  0.00    +0.000 C 
ATOM      5  C   UNL     1       2.458   5.993  19.420  0.00  0.00    +0.000 C 
ATOM      6  C   UNL     1       3.689   5.359  18.744  0.00  0.00    +0.000 C 
ENDROOT
BRANCH   1   8
ATOM      7  N   UNL     1       6.468   5.521  17.245  0.00  0.00    +0.000 N 
ATOM      8  C   UNL     1       5.245   5.699  16.676  0.00  0.00    +0.000 C 
ATOM      9  O   UNL     1       5.077   5.451  15.486  0.00  0.00    +0.000 OA
ATOM     10  H   UNL     1       7.221   5.234  16.634  0.00  0.00    +0.000 HD
ATOM     11  H   UNL     1       6.706   5.814  18.181  0.00  0.00    +0.000 HD
ENDBRANCH   1   8
BRANCH   5  12
ATOM     12  C   UNL     1       1.771   5.242  20.500  0.00  0.00    +0.000 C 
ATOM     13  N   UNL     1       2.442   5.096  21.676  0.00  0.00    +0.000 N 
ATOM     14  O   UNL     1       0.645   4.779  20.368  0.00  0.00    +0.000 OA
ATOM     15  H   UNL     1       3.309   5.566  21.893  0.00  0.00    +0.000 HD
ATOM     16  H   UNL     1       1.940   4.652  22.435  0.00  0.00    +0.000 HD
ENDBRANCH   5  12
BRANCH   6  17
ATOM     17  C   UNL     1       3.543   3.865  18.456  0.00  0.00    +0.000 A 
ATOM     18  N   UNL     1       2.803   3.330  17.504  0.00  0.00    +0.000 NA
ATOM     19  C   UNL     1       2.886   1.951  17.575  0.00  0.00    +0.000 A 
ATOM     20  C   UNL     1       3.693   1.443  18.567  0.00  0.00    +0.000 A 
ATOM     21  S   UNL     1       4.372   2.725  19.469  0.00  0.00    +0.000 S 
ENDBRANCH   6  17
BRANCH   3  22
ATOM     22  C   UNL     1       2.440   9.497  18.075  0.00  0.00    +0.000 C 
BRANCH  22  23
ATOM     23  C   UNL     1       1.066   9.881  18.574  0.00  0.00    +0.000 A 
ATOM     24  C   UNL     1       0.893  10.452  19.844  0.00  0.00    +0.000 A 
ATOM     25  C   UNL     1      -0.362  10.900  20.260  0.00  0.00    +0.000 A 
ATOM     26  C   UNL     1      -1.461  10.783  19.412  0.00  0.00    +0.000 A 
ATOM     27  C   UNL     1      -1.308  10.205  18.153  0.00  0.00    +0.000 A 
ATOM     28  C   UNL     1      -0.053   9.755  17.737  0.00  0.00    +0.000 A 
ENDBRANCH  22  23
ENDBRANCH   3  22
TORSDOF 5
ENDMDL
MODEL 3
REMARK VINA RESULT:      -6.8      5.259      8.037
REMARK  Name = 
REMARK  5 active torsions:
REMARK  status: ('A' for Active; 'I' for Inactive)
REMARK    1  A    between atoms: C_2  and  C_4
REMARK    2  A    between atoms: N_6  and  C_7
REMARK    3  A    between atoms: C_7  and  C_8
REMARK    4  A    between atoms: C_15  and  C_16
REMARK    5  A    between atoms: C_19  and  C_20
REMARK                            x       y       z     vdW  Elec       q    Type
REMARK                         _______ _______ _______ _____ _____    ______ ____
ROOT
ATOM      1  C   UNL     1       0.060   9.885  18.968  0.00  0.00    +0.000 C 
ATOM      2  C   UNL     1       1.051   9.043  18.618  0.00  0.00    +0.000 C 
ATOM      3  N   UNL     1       1.790   8.285  19.518  0.00  0.00    +0.000 N 
ATOM      4  C   UNL     1       1.577   8.497  20.878  0.00  0.00    +0.000 C 
ATOM      5  C   UNL     1       0.621   9.306  21.373  0.00  0.00    +0.000 C 
ATOM      6  C   UNL     1      -0.390   9.993  20.437  0.00  0.00    +0.000 C 
ENDROOT
BRANCH   1   8
ATOM      7  N   UNL     1      -0.527  11.951  17.830  0.00  0.00    +0.000 N 
ATOM      8  C   UNL     1      -0.706  10.605  17.919  0.00  0.00    +0.000 C 
ATOM      9  O   UNL     1      -1.482  10.035  17.159  0.00  0.00    +0.000 OA
ATOM     10  H   UNL     1      -1.097  12.446  17.159  0.00  0.00    +0.000 HD
ATOM     11  H   UNL     1       0.002  12.498  18.493  0.00  0.00    +0.000 HD
ENDBRANCH   1   8
BRANCH   5  12
ATOM     12  C   UNL     1       0.437   9.433  22.841  0.00  0.00    +0.000 C 
ATOM     13  N   UNL     1      -0.843   9.424  23.307  0.00  0.00    +0.000 N 
ATOM     14  O   UNL     1       1.379   9.527  23.618  0.00  0.00    +0.000 OA
ATOM     15  H   UNL     1      -1.649   9.215  22.737  0.00  0.00    +0.000 HD
ATOM     16  H   UNL     1      -0.961   9.433  24.313  0.00  0.00    +0.000 HD
ENDBRANCH   5  12
BRANCH   6  17
ATOM     17  C   UNL     1      -0.803  11.395  20.884  0.00  0.00    +0.000 A 
ATOM     18  N   UNL     1      -2.040  11.818  21.061  0.00  0.00    +0.000 NA
ATOM     19  C   UNL     1      -2.025  13.152  21.426  0.00  0.00    +0.000 A 
ATOM     20  C   UNL     1      -0.783  13.735  21.535  0.00  0.00    +0.000 A 
ATOM     21  S   UNL     1       0.426  12.590  21.156  0.00  0.00    +0.000 S 
ENDBRANCH   6  17
BRANCH   3  22
ATOM     22  C   UNL     1       2.669   7.198  19.039  0.00  0.00    +0.000 C 
BRANCH  22  23
ATOM     23  C   UNL     1       2.051   5.826  19.178  0.00  0.00    +0.000 A 
ATOM     24  C   UNL     1       1.910   4.982  18.067  0.00  0.00    +0.000 A 
ATOM     25  C   UNL     1       1.434   3.678  18.217  0.00  0.00    +0.000 A 
ATOM     26  C   UNL     1       1.091   3.202  19.481  0.00  0.00    +0.000 A 
ATOM     27  C   UNL     1       1.212   4.033  20.592  0.00  0.00    +0.000 A 
ATOM     28  C   UNL     1       1.686   5.338  20.443  0.00  0.00    +0.000 A 
ENDBRANCH  22  23
ENDBRANCH   3  22
TORSDOF 5
ENDMDL
MODEL 4
REMARK VINA RESULT:      -6.7      2.863      6.040
REMARK  Name = 
REMARK  5 active torsions:
REMARK  status: ('A' for Active; 'I' for Inactive)
REMARK    1  A    between atoms: C_2  and  C_4
REMARK    2  A    between atoms: N_6  and  C_7
REMARK    3  A    between atoms: C_7  and  C_8
REMARK    4  A    between atoms: C_15  and  C_16
REMARK    5  A    between atoms: C_19  and  C_20
REMARK                            x       y       z     vdW  Elec       q    Type
REMARK                         _______ _______ _______ _____ _____    ______ ____
ROOT
ATOM      1  C   UNL     1       4.671   5.663  18.014  0.00  0.00    +0.000 C 
ATOM      2  C   UNL     1       4.143   6.824  17.585  0.00  0.00    +0.000 C 
ATOM      3  N   UNL     1       2.990   7.401  18.105  0.00  0.00    +0.000 N 
ATOM      4  C   UNL     1       2.266   6.675  19.046  0.00  0.00    +0.000 C 
ATOM      5  C   UNL     1       2.672   5.502  19.568  0.00  0.00    +0.000 C 
ATOM      6  C   UNL     1       4.054   4.921  19.215  0.00  0.00    +0.000 C 
ENDROOT
BRANCH   1   8
ATOM      7  N   UNL     1       6.800   4.516  18.262  0.00  0.00    +0.000 N 
ATOM      8  C   UNL     1       5.941   5.164  17.428  0.00  0.00    +0.000 C 
ATOM      9  O   UNL     1       6.232   5.325  16.247  0.00  0.00    +0.000 OA
ATOM     10  H   UNL     1       7.690   4.235  17.875  0.00  0.00    +0.000 HD
ATOM     11  H   UNL     1       6.679   4.452  19.262  0.00  0.00    +0.000 HD
ENDBRANCH   1   8
BRANCH   5  12
ATOM     12  C   UNL     1       1.854   4.822  20.603  0.00  0.00    +0.000 C 
ATOM     13  N   UNL     1       2.479   4.494  21.769  0.00  0.00    +0.000 N 
ATOM     14  O   UNL     1       0.666   4.571  20.446  0.00  0.00    +0.000 OA
ATOM     15  H   UNL     1       3.412   4.792  22.011  0.00  0.00    +0.000 HD
ATOM     16  H   UNL     1       1.900   4.102  22.501  0.00  0.00    +0.000 HD
ENDBRANCH   5  12
BRANCH   6  17
ATOM     17  C   UNL     1       4.084   3.396  19.117  0.00  0.00    +0.000 A 
ATOM     18  N   UNL     1       4.730   2.581  19.928  0.00  0.00    +0.000 NA
ATOM     19  C   UNL     1       4.561   1.275  19.504  0.00  0.00    +0.000 A 
ATOM     20  C   UNL     1       3.782   1.100  18.382  0.00  0.00    +0.000 A 
ATOM     21  S   UNL     1       3.243   2.618  17.812  0.00  0.00    +0.000 S 
ENDBRANCH   6  17
BRANCH   3  22
ATOM     22  C   UNL     1       2.630   8.793  17.765  0.00  0.00    +0.000 C 
BRANCH  22  23
ATOM     23  C   UNL     1       1.397   9.283  18.488  0.00  0.00    +0.000 A 
ATOM     24  C   UNL     1       1.393   9.446  19.881  0.00  0.00    +0.000 A 
ATOM     25  C   UNL     1       0.288   9.996  20.533  0.00  0.00    +0.000 A 
ATOM     26  C   UNL     1      -0.829  10.389  19.800  0.00  0.00    +0.000 A 
ATOM     27  C   UNL     1      -0.847  10.220  18.417  0.00  0.00    +0.000 A 
ATOM     28  C   UNL     1       0.257   9.669  17.765  0.00  0.00    +0.000 A 
ENDBRANCH  22  23
ENDBRANCH   3  22
TORSDOF 5
ENDMDL
MODEL 5
REMARK VINA RESULT:      -6.6      5.436      8.295
REMARK  Name = 
REMARK  5 active torsions:
REMARK  status: ('A' for Active; 'I' for Inactive)
REMARK    1  A    between atoms: C_2  and  C_4
REMARK    2  A    between atoms: N_6  and  C_7
REMARK    3  A    between atoms: C_7  and  C_8
REMARK    4  A    between atoms: C_15  and  C_16
REMARK    5  A    between atoms: C_19  and  C_20
REMARK                            x       y       z     vdW  Elec       q    Type
REMARK                         _______ _______ _______ _____ _____    ______ ____
ROOT
ATOM      1  C   UNL     1       0.063  10.585  19.089  0.00  0.00    +0.000 C 
ATOM      2  C   UNL     1       0.978   9.746  18.568  0.00  0.00    +0.000 C 
ATOM      3  N   UNL     1       1.656   8.775  19.296  0.00  0.00    +0.000 N 
ATOM      4  C   UNL     1       1.469   8.746  20.675  0.00  0.00    +0.000 C 
ATOM      5  C   UNL     1       0.588   9.523  21.333  0.00  0.00    +0.000 C 
ATOM      6  C   UNL     1      -0.369  10.453  20.562  0.00  0.00    +0.000 C 
ENDROOT
BRANCH   1   8
ATOM      7  N   UNL     1      -0.015  12.722  17.934  0.00  0.00    +0.000 N 
ATOM      8  C   UNL     1      -0.646  11.548  18.208  0.00  0.00    +0.000 C 
ATOM      9  O   UNL     1      -1.759  11.323  17.744  0.00  0.00    +0.000 OA
ATOM     10  H   UNL     1      -0.528  13.401  17.388  0.00  0.00    +0.000 HD
ATOM     11  H   UNL     1       0.843  13.021  18.374  0.00  0.00    +0.000 HD
ENDBRANCH   1   8
BRANCH   5  12
ATOM     12  C   UNL     1       0.423   9.389  22.802  0.00  0.00    +0.000 C 
ATOM     13  N   UNL     1      -0.818   9.061  23.258  0.00  0.00    +0.000 N 
ATOM     14  O   UNL     1       1.350   9.546  23.586  0.00  0.00    +0.000 OA
ATOM     15  H   UNL     1      -1.584   8.788  22.661  0.00  0.00    +0.000 HD
ATOM     16  H   UNL     1      -0.907   8.894  24.253  0.00  0.00    +0.000 HD
ENDBRANCH   5  12
BRANCH   6  17
ATOM     17  C   UNL     1      -0.660  11.776  21.270  0.00  0.00    +0.000 A 
ATOM     18  N   UNL     1       0.242  12.613  21.747  0.00  0.00    +0.000 NA
ATOM     19  C   UNL     1      -0.394  13.679  22.356  0.00  0.00    +0.000 A 
ATOM     20  C   UNL     1      -1.770  13.657  22.333  0.00  0.00    +0.000 A 
ATOM     21  S   UNL     1      -2.310  12.246  21.535  0.00  0.00    +0.000 S 
ENDBRANCH   6  17
BRANCH   3  22
ATOM     22  C   UNL     1       2.438   7.729  18.604  0.00  0.00    +0.000 C 
BRANCH  22  23
ATOM     23  C   UNL     1       2.008   6.326  18.967  0.00  0.00    +0.000 A 
ATOM     24  C   UNL     1       1.819   5.351  17.977  0.00  0.00    +0.000 A 
ATOM     25  C   UNL     1       1.523   4.031  18.323  0.00  0.00    +0.000 A 
ATOM     26  C   UNL     1       1.411   3.670  19.664  0.00  0.00    +0.000 A 
ATOM     27  C   UNL     1       1.580   4.631  20.658  0.00  0.00    +0.000 A 
ATOM     28  C   UNL     1       1.875   5.951  20.313  0.00  0.00    +0.000 A 
ENDBRANCH  22  23
ENDBRANCH   3  22
TORSDOF 5
ENDMDL
MODEL 6
REMARK VINA RESULT:      -6.6      2.951      6.106
REMARK  Name = 
REMARK  5 active torsions:
REMARK  status: ('A' for Active; 'I' for Inactive)
REMARK    1  A    between atoms: C_2  and  C_4
REMARK    2  A    between atoms: N_6  and  C_7
REMARK    3  A    between atoms: C_7  and  C_8
REMARK    4  A    between atoms: C_15  and  C_16
REMARK    5  A    between atoms: C_19  and  C_20
REMARK                            x       y       z     vdW  Elec       q    Type
REMARK                         _______ _______ _______ _____ _____    ______ ____
ROOT
ATOM      1  C   UNL     1       2.314   4.710  18.546  0.00  0.00    +0.000 C 
ATOM      2  C   UNL     1       2.118   6.039  18.451  0.00  0.00    +0.000 C 
ATOM      3  N   UNL     1       3.087   6.946  18.038  0.00  0.00    +0.000 N 
ATOM      4  C   UNL     1       4.378   6.469  17.825  0.00  0.00    +0.000 C 
ATOM      5  C   UNL     1       4.719   5.168  17.883  0.00  0.00    +0.000 C 
ATOM      6  C   UNL     1       3.648   4.082  18.099  0.00  0.00    +0.000 C 
ENDROOT
BRANCH   1   8
ATOM      7  N   UNL     1       0.722   3.942  20.214  0.00  0.00    +0.000 N 
ATOM      8  C   UNL     1       1.191   3.822  18.942  0.00  0.00    +0.000 C 
ATOM      9  O   UNL     1       0.697   3.000  18.178  0.00  0.00    +0.000 OA
ATOM     10  H   UNL     1       0.002   3.293  20.500  0.00  0.00    +0.000 HD
ATOM     11  H   UNL     1       1.155   4.510  20.928  0.00  0.00    +0.000 HD
ENDBRANCH   1   8
BRANCH   5  12
ATOM     12  C   UNL     1       6.113   4.748  17.593  0.00  0.00    +0.000 C 
ATOM     13  N   UNL     1       7.000   4.790  18.627  0.00  0.00    +0.000 N 
ATOM     14  O   UNL     1       6.470   4.363  16.487  0.00  0.00    +0.000 OA
ATOM     15  H   UNL     1       6.740   4.966  19.586  0.00  0.00    +0.000 HD
ATOM     16  H   UNL     1       7.928   4.429  18.445  0.00  0.00    +0.000 HD
ENDBRANCH   5  12
BRANCH   6  17
ATOM     17  C   UNL     1       4.119   2.899  18.943  0.00  0.00    +0.000 A 
ATOM     18  N   UNL     1       4.714   2.974  20.118  0.00  0.00    +0.000 NA
ATOM     19  C   UNL     1       5.032   1.702  20.558  0.00  0.00    +0.000 A 
ATOM     20  C   UNL     1       4.670   0.666  19.726  0.00  0.00    +0.000 A 
ATOM     21  S   UNL     1       3.916   1.289  18.326  0.00  0.00    +0.000 S 
ENDBRANCH   6  17
BRANCH   3  22
ATOM     22  C   UNL     1       2.718   8.338  17.709  0.00  0.00    +0.000 C 
BRANCH  22  23
ATOM     23  C   UNL     1       1.597   8.877  18.567  0.00  0.00    +0.000 A 
ATOM     24  C   UNL     1       1.600   8.694  19.958  0.00  0.00    +0.000 A 
ATOM     25  C   UNL     1       0.618   9.281  20.757  0.00  0.00    +0.000 A 
ATOM     26  C   UNL     1      -0.381  10.058  20.177  0.00  0.00    +0.000 A 
ATOM     27  C   UNL     1      -0.407  10.237  18.795  0.00  0.00    +0.000 A 
ATOM     28  C   UNL     1       0.574   9.649  17.994  0.00  0.00    +0.000 A 
ENDBRANCH  22  23
ENDBRANCH   3  22
TORSDOF 5
ENDMDL
MODEL 7
REMARK VINA RESULT:      -6.6      2.872      6.116
REMARK  Name = 
REMARK  5 active torsions:
REMARK  status: ('A' for Active; 'I' for Inactive)
REMARK    1  A    between atoms: C_2  and  C_4
REMARK    2  A    between atoms: N_6  and  C_7
REMARK    3  A    between atoms: C_7  and  C_8
REMARK    4  A    between atoms: C_15  and  C_16
REMARK    5  A    between atoms: C_19  and  C_20
REMARK                            x       y       z     vdW  Elec       q    Type
REMARK                         _______ _______ _______ _____ _____    ______ ____
ROOT
ATOM      1  C   UNL     1       4.673   5.488  18.157  0.00  0.00    +0.000 C 
ATOM      2  C   UNL     1       4.096   6.616  17.701  0.00  0.00    +0.000 C 
ATOM      3  N   UNL     1       2.902   7.137  18.186  0.00  0.00    +0.000 N 
ATOM      4  C   UNL     1       2.194   6.384  19.120  0.00  0.00    +0.000 C 
ATOM      5  C   UNL     1       2.648   5.240  19.665  0.00  0.00    +0.000 C 
ATOM      6  C   UNL     1       4.066   4.728  19.352  0.00  0.00    +0.000 C 
ENDROOT
BRANCH   1   8
ATOM      7  N   UNL     1       6.880   4.524  18.483  0.00  0.00    +0.000 N 
ATOM      8  C   UNL     1       5.981   5.050  17.607  0.00  0.00    +0.000 C 
ATOM      9  O   UNL     1       6.268   5.157  16.419  0.00  0.00    +0.000 OA
ATOM     10  H   UNL     1       7.792   4.287  18.117  0.00  0.00    +0.000 HD
ATOM     11  H   UNL     1       6.758   4.515  19.485  0.00  0.00    +0.000 HD
ENDBRANCH   1   8
BRANCH   5  12
ATOM     12  C   UNL     1       1.842   4.529  20.689  0.00  0.00    +0.000 C 
ATOM     13  N   UNL     1       0.653   4.001  20.285  0.00  0.00    +0.000 N 
ATOM     14  O   UNL     1       2.215   4.399  21.848  0.00  0.00    +0.000 OA
ATOM     15  H   UNL     1       0.354   3.957  19.322  0.00  0.00    +0.000 HD
ATOM     16  H   UNL     1       0.144   3.452  20.966  0.00  0.00    +0.000 HD
ENDBRANCH   5  12
BRANCH   6  17
ATOM     17  C   UNL     1       4.179   3.206  19.274  0.00  0.00    +0.000 A 
ATOM     18  N   UNL     1       4.867   2.438  20.095  0.00  0.00    +0.000 NA
ATOM     19  C   UNL     1       4.769   1.119  19.687  0.00  0.00    +0.000 A 
ATOM     20  C   UNL     1       4.001   0.888  18.569  0.00  0.00    +0.000 A 
ATOM     21  S   UNL     1       3.381   2.367  17.980  0.00  0.00    +0.000 S 
ENDBRANCH   6  17
BRANCH   3  22
ATOM     22  C   UNL     1       2.478   8.504  17.821  0.00  0.00    +0.000 C 
BRANCH  22  23
ATOM     23  C   UNL     1       1.495   9.105  18.800  0.00  0.00    +0.000 A 
ATOM     24  C   UNL     1       0.440   9.916  18.358  0.00  0.00    +0.000 A 
ATOM     25  C   UNL     1      -0.524  10.384  19.253  0.00  0.00    +0.000 A 
ATOM     26  C   UNL     1      -0.445  10.046  20.602  0.00  0.00    +0.000 A 
ATOM     27  C   UNL     1       0.605   9.253  21.059  0.00  0.00    +0.000 A 
ATOM     28  C   UNL     1       1.571   8.786  20.165  0.00  0.00    +0.000 A 
ENDBRANCH  22  23
ENDBRANCH   3  22
TORSDOF 5
ENDMDL
MODEL 8
REMARK VINA RESULT:      -6.5      2.916      6.092
REMARK  Name = 
REMARK  5 active torsions:
REMARK  status: ('A' for Active; 'I' for Inactive)
REMARK    1  A    between atoms: C_2  and  C_4
REMARK    2  A    between atoms: N_6  and  C_7
REMARK    3  A    between atoms: C_7  and  C_8
REMARK    4  A    between atoms: C_15  and  C_16
REMARK    5  A    between atoms: C_19  and  C_20
REMARK                            x       y       z     vdW  Elec       q    Type
REMARK                         _______ _______ _______ _____ _____    ______ ____
ROOT
ATOM      1  C   UNL     1       2.321   4.595  18.558  0.00  0.00    +0.000 C 
ATOM      2  C   UNL     1       2.123   5.921  18.430  0.00  0.00    +0.000 C 
ATOM      3  N   UNL     1       3.094   6.822  18.010  0.00  0.00    +0.000 N 
ATOM      4  C   UNL     1       4.389   6.345  17.824  0.00  0.00    +0.000 C 
ATOM      5  C   UNL     1       4.734   5.047  17.917  0.00  0.00    +0.000 C 
ATOM      6  C   UNL     1       3.664   3.963  18.144  0.00  0.00    +0.000 C 
ENDROOT
BRANCH   1   8
ATOM      7  N   UNL     1       0.713   3.857  20.224  0.00  0.00    +0.000 N 
ATOM      8  C   UNL     1       1.196   3.713  18.960  0.00  0.00    +0.000 C 
ATOM      9  O   UNL     1       0.713   2.874  18.207  0.00  0.00    +0.000 OA
ATOM     10  H   UNL     1      -0.008   3.211  20.515  0.00  0.00    +0.000 HD
ATOM     11  H   UNL     1       1.137   4.440  20.930  0.00  0.00    +0.000 HD
ENDBRANCH   1   8
BRANCH   5  12
ATOM     12  C   UNL     1       6.134   4.625  17.656  0.00  0.00    +0.000 C 
ATOM     13  N   UNL     1       6.393   4.058  16.445  0.00  0.00    +0.000 N 
ATOM     14  O   UNL     1       7.033   4.784  18.472  0.00  0.00    +0.000 OA
ATOM     15  H   UNL     1       5.731   4.023  15.685  0.00  0.00    +0.000 HD
ATOM     16  H   UNL     1       7.362   3.844  16.241  0.00  0.00    +0.000 HD
ENDBRANCH   5  12
BRANCH   6  17
ATOM     17  C   UNL     1       4.127   2.800  19.021  0.00  0.00    +0.000 A 
ATOM     18  N   UNL     1       4.652   2.902  20.227  0.00  0.00    +0.000 NA
ATOM     19  C   UNL     1       4.989   1.644  20.693  0.00  0.00    +0.000 A 
ATOM     20  C   UNL     1       4.710   0.593  19.850  0.00  0.00    +0.000 A 
ATOM     21  S   UNL     1       4.015   1.181  18.405  0.00  0.00    +0.000 S 
ENDBRANCH   6  17
BRANCH   3  22
ATOM     22  C   UNL     1       2.725   8.205  17.643  0.00  0.00    +0.000 C 
BRANCH  22  23
ATOM     23  C   UNL     1       1.729   8.828  18.594  0.00  0.00    +0.000 A 
ATOM     24  C   UNL     1       0.730   9.695  18.127  0.00  0.00    +0.000 A 
ATOM     25  C   UNL     1      -0.250  10.186  18.992  0.00  0.00    +0.000 A 
ATOM     26  C   UNL     1      -0.244   9.817  20.335  0.00  0.00    +0.000 A 
ATOM     27  C   UNL     1       0.749   8.967  20.817  0.00  0.00    +0.000 A 
ATOM     28  C   UNL     1       1.731   8.477  19.953  0.00  0.00    +0.000 A 
ENDBRANCH  22  23
ENDBRANCH   3  22
TORSDOF 5
ENDMDL
MODEL 9
REMARK VINA RESULT:      -6.5      5.458      8.472
REMARK  Name = 
REMARK  5 active torsions:
REMARK  status: ('A' for Active; 'I' for Inactive)
REMARK    1  A    between atoms: C_2  and  C_4
REMARK    2  A    between atoms: N_6  and  C_7
REMARK    3  A    between atoms: C_7  and  C_8
REMARK    4  A    between atoms: C_15  and  C_16
REMARK    5  A    between atoms: C_19  and  C_20
REMARK                            x       y       z     vdW  Elec       q    Type
REMARK                         _______ _______ _______ _____ _____    ______ ____
ROOT
ATOM      1  C   UNL     1      -0.501  10.782  19.036  0.00  0.00    +0.000 C 
ATOM      2  C   UNL     1       0.461  10.081  18.408  0.00  0.00    +0.000 C 
ATOM      3  N   UNL     1       1.326   9.195  19.040  0.00  0.00    +0.000 N 
ATOM      4  C   UNL     1       1.275   9.115  20.430  0.00  0.00    +0.000 C 
ATOM      5  C   UNL     1       0.367   9.757  21.188  0.00  0.00    +0.000 C 
ATOM      6  C   UNL     1      -0.771  10.567  20.538  0.00  0.00    +0.000 C 
ENDROOT
BRANCH   1   8
ATOM      7  N   UNL     1      -0.853  12.730  17.627  0.00  0.00    +0.000 N 
ATOM      8  C   UNL     1      -1.410  11.659  18.254  0.00  0.00    +0.000 C 
ATOM      9  O   UNL     1      -2.617  11.454  18.172  0.00  0.00    +0.000 OA
ATOM     10  H   UNL     1      -1.483  13.361  17.149  0.00  0.00    +0.000 HD
ATOM     11  H   UNL     1       0.105  13.024  17.747  0.00  0.00    +0.000 HD
ENDBRANCH   1   8
BRANCH   5  12
ATOM     12  C   UNL     1       0.361   9.574  22.662  0.00  0.00    +0.000 C 
ATOM     13  N   UNL     1      -0.844   9.338  23.251  0.00  0.00    +0.000 N 
ATOM     14  O   UNL     1       1.383   9.614  23.335  0.00  0.00    +0.000 OA
ATOM     15  H   UNL     1      -1.697   9.160  22.741  0.00  0.00    +0.000 HD
ATOM     16  H   UNL     1      -0.834   9.137  24.244  0.00  0.00    +0.000 HD
ENDBRANCH   5  12
BRANCH   6  17
ATOM     17  C   UNL     1      -1.163  11.826  21.310  0.00  0.00    +0.000 A 
ATOM     18  N   UNL     1      -2.320  12.039  21.906  0.00  0.00    +0.000 NA
ATOM     19  C   UNL     1      -2.327  13.304  22.466  0.00  0.00    +0.000 A 
ATOM     20  C   UNL     1      -1.176  14.042  22.304  0.00  0.00    +0.000 A 
ATOM     21  S   UNL     1      -0.035  13.142  21.406  0.00  0.00    +0.000 S 
ENDBRANCH   6  17
BRANCH   3  22
ATOM     22  C   UNL     1       2.168   8.275  18.248  0.00  0.00    +0.000 C 
BRANCH  22  23
ATOM     23  C   UNL     1       2.137   6.852  18.756  0.00  0.00    +0.000 A 
ATOM     24  C   UNL     1       2.093   6.577  20.131  0.00  0.00    +0.000 A 
ATOM     25  C   UNL     1       1.961   5.266  20.593  0.00  0.00    +0.000 A 
ATOM     26  C   UNL     1       1.870   4.213  19.686  0.00  0.00    +0.000 A 
ATOM     27  C   UNL     1       1.927   4.468  18.317  0.00  0.00    +0.000 A 
ATOM     28  C   UNL     1       2.061   5.779  17.854  0.00  0.00    +0.000 A 
ENDBRANCH  22  23
ENDBRANCH   3  22
TORSDOF 5
ENDMDL
