MODEL 1
REMARK VINA RESULT:      -7.6      0.000      0.000
REMARK  Name = 
REMARK  9 active torsions:
REMARK  status: ('A' for Active; 'I' for Inactive)
REMARK    1  A    between atoms: C_1  and  N_2
REMARK    2  A    between atoms: N_2  and  C_3
REMARK    3  A    between atoms: N_2  and  C_4
REMARK    4  A    between atoms: N_2  and  C_22
REMARK    5  A    between atoms: C_4  and  C_5
REMARK    6  A    between atoms: C_5  and  C_6
REMARK    7  A    between atoms: C_6  and  N_7
REMARK    8  A    between atoms: C_22  and  C_23
REMARK    9  A    between atoms: C_26  and  N_27
REMARK                            x       y       z     vdW  Elec       q    Type
REMARK                         _______ _______ _______ _____ _____    ______ ____
ROOT
ATOM      1  C   UNL     1       3.159   6.711  19.626  0.00  0.00    +0.000 C 
ENDROOT
BRANCH   1   2
ATOM      2  N   UNL     1       3.486   5.551  18.786  0.00  0.00    +0.000 N 
ATOM      3  C   UNL     1       2.618   4.413  18.820  0.00  0.00    +0.000 A 
ATOM      4  C   UNL     1       1.358   4.411  19.476  0.00  0.00    +0.000 A 
ATOM      5  C   UNL     1       0.519   3.286  19.524  0.00  0.00    +0.000 A 
ATOM      6  C   UNL     1       0.902   2.110  18.909  0.00  0.00    +0.000 A 
ATOM      7  C   UNL     1       2.112   2.075  18.230  0.00  0.00    +0.000 A 
ATOM      8  C   UNL     1       2.957   3.206  18.173  0.00  0.00    +0.000 A 
ATOM      9  S   UNL     1       4.438   2.975  17.225  0.00  0.00    +0.000 S 
ATOM     10  C   UNL     1       5.224   4.562  17.322  0.00  0.00    +0.000 A 
ATOM     11  C   UNL     1       6.441   4.666  16.616  0.00  0.00    +0.000 A 
ATOM     12  C   UNL     1       7.195   5.838  16.643  0.00  0.00    +0.000 A 
ATOM     13  C   UNL     1       6.725   6.907  17.375  0.00  0.00    +0.000 A 
ATOM     14 CL   UNL     1       7.635   8.366  17.465  0.00  0.00    +0.000 Cl
ATOM     15  C   UNL     1       5.510   6.822  18.053  0.00  0.00    +0.000 A 
ATOM     16  C   UNL     1       4.719   5.641  18.062  0.00  0.00    +0.000 A 
ENDBRANCH   1   2
BRANCH   1  17
ATOM     17  C   UNL     1       2.149   7.638  18.949  0.00  0.00    +0.000 C 
BRANCH  17  18
ATOM     18  C   UNL     1       1.481   8.660  19.874  0.00  0.00    +0.000 C 
BRANCH  18  20
ATOM     19  C   UNL     1       1.912  10.217  17.987  0.00  0.00    +0.000 C 
ATOM     20  N   UNL     1       1.042   9.998  19.239  0.00  0.00    +0.000 N 
ATOM     21  C   UNL     1      -0.381   9.978  18.673  0.00  0.00    +0.000 C 
BRANCH  20  22
ATOM     22  C   UNL     1       1.195  11.182  20.246  0.00  0.00    +0.000 C 
BRANCH  22  23
ATOM     23  C   UNL     1      -0.007  11.484  21.122  0.00  0.00    +0.000 A 
ATOM     24  C   UNL     1      -0.847  12.570  20.823  0.00  0.00    +0.000 A 
ATOM     25  C   UNL     1      -1.867  12.961  21.696  0.00  0.00    +0.000 A 
ATOM     26  C   UNL     1      -2.115  12.211  22.845  0.00  0.00    +0.000 A 
ATOM     27  C   UNL     1      -1.363  11.063  23.112  0.00  0.00    +0.000 A 
ATOM     28  C   UNL     1      -0.311  10.707  22.254  0.00  0.00    +0.000 A 
BRANCH  26  29
ATOM     29  N   UNL     1      -3.167  12.647  23.776  0.00  0.00    +0.000 N 
ATOM     30  O   UNL     1      -4.011  11.812  24.117  0.00  0.00    +0.000 OA
ATOM     31  O   UNL     1      -3.146  13.832  24.141  0.00  0.00    +0.000 OA
ENDBRANCH  26  29
ENDBRANCH  22  23
ENDBRANCH  20  22
ENDBRANCH  18  20
ENDBRANCH  17  18
ENDBRANCH   1  17
TORSDOF 7
ENDMDL
MODEL 2
REMARK VINA RESULT:      -7.4      5.521      9.536
REMARK  Name = 
REMARK  9 active torsions:
REMARK  status: ('A' for Active; 'I' for Inactive)
REMARK    1  A    between atoms: C_1  and  N_2
REMARK    2  A    between atoms: N_2  and  C_3
REMARK    3  A    between atoms: N_2  and  C_4
REMARK    4  A    between atoms: N_2  and  C_22
REMARK    5  A    between atoms: C_4  and  C_5
REMARK    6  A    between atoms: C_5  and  C_6
REMARK    7  A    between atoms: C_6  and  N_7
REMARK    8  A    between atoms: C_22  and  C_23
REMARK    9  A    between atoms: C_26  and  N_27
REMARK                            x       y       z     vdW  Elec       q    Type
REMARK                         _______ _______ _______ _____ _____    ______ ____
ROOT
ATOM      1  C   UNL     1       3.508   6.273  17.113  0.00  0.00    +0.000 C 
ENDROOT
BRANCH   1   2
ATOM      2  N   UNL     1       2.674   6.391  18.317  0.00  0.00    +0.000 N 
ATOM      3  C   UNL     1       2.167   7.681  18.675  0.00  0.00    +0.000 A 
ATOM      4  C   UNL     1       2.268   8.822  17.834  0.00  0.00    +0.000 A 
ATOM      5  C   UNL     1       1.787  10.089  18.200  0.00  0.00    +0.000 A 
ATOM      6  C   UNL     1       1.175  10.272  19.425  0.00  0.00    +0.000 A 
ATOM      7  C   UNL     1       1.028   9.178  20.266  0.00  0.00    +0.000 A 
ATOM      8  C   UNL     1       1.504   7.899  19.901  0.00  0.00    +0.000 A 
ATOM      9  S   UNL     1       1.185   6.624  21.092  0.00  0.00    +0.000 S 
ATOM     10  C   UNL     1       1.857   5.178  20.317  0.00  0.00    +0.000 A 
ATOM     11  C   UNL     1       1.713   3.985  21.057  0.00  0.00    +0.000 A 
ATOM     12  C   UNL     1       2.236   2.779  20.596  0.00  0.00    +0.000 A 
ATOM     13  C   UNL     1       2.900   2.769  19.388  0.00  0.00    +0.000 A 
ATOM     14 CL   UNL     1       3.592   1.310  18.789  0.00  0.00    +0.000 Cl
ATOM     15  C   UNL     1       3.024   3.937  18.637  0.00  0.00    +0.000 A 
ATOM     16  C   UNL     1       2.517   5.189  19.080  0.00  0.00    +0.000 A 
ENDBRANCH   1   2
BRANCH   1  17
ATOM     17  C   UNL     1       4.908   6.848  17.331  0.00  0.00    +0.000 C 
BRANCH  17  18
ATOM     18  C   UNL     1       5.706   6.206  18.470  0.00  0.00    +0.000 C 
BRANCH  18  20
ATOM     19  C   UNL     1       7.698   7.182  17.352  0.00  0.00    +0.000 C 
ATOM     20  N   UNL     1       7.222   6.021  18.245  0.00  0.00    +0.000 N 
ATOM     21  C   UNL     1       8.064   6.193  19.513  0.00  0.00    +0.000 C 
BRANCH  20  22
ATOM     22  C   UNL     1       7.534   4.639  17.586  0.00  0.00    +0.000 C 
BRANCH  22  23
ATOM     23  C   UNL     1       6.978   4.415  16.192  0.00  0.00    +0.000 A 
ATOM     24  C   UNL     1       5.846   3.604  16.001  0.00  0.00    +0.000 A 
ATOM     25  C   UNL     1       5.408   3.258  14.720  0.00  0.00    +0.000 A 
ATOM     26  C   UNL     1       6.051   3.795  13.604  0.00  0.00    +0.000 A 
ATOM     27  C   UNL     1       7.114   4.688  13.766  0.00  0.00    +0.000 A 
ATOM     28  C   UNL     1       7.576   4.991  15.057  0.00  0.00    +0.000 A 
BRANCH  26  29
ATOM     29  N   UNL     1       5.607   3.400  12.259  0.00  0.00    +0.000 N 
ATOM     30  O   UNL     1       4.432   3.630  11.955  0.00  0.00    +0.000 OA
ATOM     31  O   UNL     1       6.437   2.842  11.528  0.00  0.00    +0.000 OA
ENDBRANCH  26  29
ENDBRANCH  22  23
ENDBRANCH  20  22
ENDBRANCH  18  20
ENDBRANCH  17  18
ENDBRANCH   1  17
TORSDOF 7
ENDMDL
MODEL 3
REMARK VINA RESULT:      -7.3      2.653      3.411
REMARK  Name = 
REMARK  9 active torsions:
REMARK  status: ('A' for Active; 'I' for Inactive)
REMARK    1  A    between atoms: C_1  and  N_2
REMARK    2  A    between atoms: N_2  and  C_3
REMARK    3  A    between atoms: N_2  and  C_4
REMARK    4  A    between atoms: N_2  and  C_22
REMARK    5  A    between atoms: C_4  and  C_5
REMARK    6  A    between atoms: C_5  and  C_6
REMARK    7  A    between atoms: C_6  and  N_7
REMARK    8  A    between atoms: C_22  and  C_23
REMARK    9  A    between atoms: C_26  and  N_27
REMARK                            x       y       z     vdW  Elec       q    Type
REMARK                         _______ _______ _______ _____ _____    ______ ____
ROOT
ATOM      1  C   UNL     1       2.590   6.855  17.937  0.00  0.00    +0.000 C 
ENDROOT
BRANCH   1   2
ATOM      2  N   UNL     1       3.355   5.625  18.180  0.00  0.00    +0.000 N 
ATOM      3  C   UNL     1       2.641   4.426  18.502  0.00  0.00    +0.000 A 
ATOM      4  C   UNL     1       1.228   4.312  18.418  0.00  0.00    +0.000 A 
ATOM      5  C   UNL     1       0.532   3.140  18.755  0.00  0.00    +0.000 A 
ATOM      6  C   UNL     1       1.221   2.023  19.185  0.00  0.00    +0.000 A 
ATOM      7  C   UNL     1       2.607   2.081  19.254  0.00  0.00    +0.000 A 
ATOM      8  C   UNL     1       3.313   3.255  18.910  0.00  0.00    +0.000 A 
ATOM      9  S   UNL     1       5.077   3.116  19.023  0.00  0.00    +0.000 S 
ATOM     10  C   UNL     1       5.638   4.713  18.493  0.00  0.00    +0.000 A 
ATOM     11  C   UNL     1       7.039   4.872  18.465  0.00  0.00    +0.000 A 
ATOM     12  C   UNL     1       7.622   6.088  18.116  0.00  0.00    +0.000 A 
ATOM     13  C   UNL     1       6.799   7.145  17.791  0.00  0.00    +0.000 A 
ATOM     14 CL   UNL     1       7.470   8.677  17.385  0.00  0.00    +0.000 Cl
ATOM     15  C   UNL     1       5.414   6.989  17.791  0.00  0.00    +0.000 A 
ATOM     16  C   UNL     1       4.780   5.769  18.154  0.00  0.00    +0.000 A 
ENDBRANCH   1   2
BRANCH   1  17
ATOM     17  C   UNL     1       2.603   7.783  19.152  0.00  0.00    +0.000 C 
BRANCH  17  18
ATOM     18  C   UNL     1       1.453   7.576  20.143  0.00  0.00    +0.000 C 
BRANCH  18  20
ATOM     19  C   UNL     1      -0.506   8.508  21.352  0.00  0.00    +0.000 C 
ATOM     20  N   UNL     1       0.922   8.829  20.873  0.00  0.00    +0.000 N 
ATOM     21  C   UNL     1       1.660   9.147  22.177  0.00  0.00    +0.000 C 
BRANCH  20  22
ATOM     22  C   UNL     1       0.935  10.080  19.938  0.00  0.00    +0.000 C 
BRANCH  22  23
ATOM     23  C   UNL     1      -0.330  10.340  19.141  0.00  0.00    +0.000 A 
ATOM     24  C   UNL     1      -0.573   9.640  17.947  0.00  0.00    +0.000 A 
ATOM     25  C   UNL     1      -1.649   9.969  17.119  0.00  0.00    +0.000 A 
ATOM     26  C   UNL     1      -2.552  10.953  17.520  0.00  0.00    +0.000 A 
ATOM     27  C   UNL     1      -2.394  11.593  18.753  0.00  0.00    +0.000 A 
ATOM     28  C   UNL     1      -1.283  11.288  19.555  0.00  0.00    +0.000 A 
BRANCH  26  29
ATOM     29  N   UNL     1      -3.662  11.319  16.627  0.00  0.00    +0.000 N 
ATOM     30  O   UNL     1      -4.697  11.747  17.148  0.00  0.00    +0.000 OA
ATOM     31  O   UNL     1      -3.491  11.152  15.411  0.00  0.00    +0.000 OA
ENDBRANCH  26  29
ENDBRANCH  22  23
ENDBRANCH  20  22
ENDBRANCH  18  20
ENDBRANCH  17  18
ENDBRANCH   1  17
TORSDOF 7
ENDMDL
MODEL 4
REMARK VINA RESULT:      -7.2      5.615      9.780
REMARK  Name = 
REMARK  9 active torsions:
REMARK  status: ('A' for Active; 'I' for Inactive)
REMARK    1  A    between atoms: C_1  and  N_2
REMARK    2  A    between atoms: N_2  and  C_3
REMARK    3  A    between atoms: N_2  and  C_4
REMARK    4  A    between atoms: N_2  and  C_22
REMARK    5  A    between atoms: C_4  and  C_5
REMARK    6  A    between atoms: C_5  and  C_6
REMARK    7  A    between atoms: C_6  and  N_7
REMARK    8  A    between atoms: C_22  and  C_23
REMARK    9  A    between atoms: C_26  and  N_27
REMARK                            x       y       z     vdW  Elec       q    Type
REMARK                         _______ _______ _______ _____ _____    ______ ____
ROOT
ATOM      1  C   UNL     1       3.318   6.630  17.172  0.00  0.00    +0.000 C 
ENDROOT
BRANCH   1   2
ATOM      2  N   UNL     1       2.506   6.725  18.393  0.00  0.00    +0.000 N 
ATOM      3  C   UNL     1       2.022   8.010  18.796  0.00  0.00    +0.000 A 
ATOM      4  C   UNL     1       2.122   9.173  17.986  0.00  0.00    +0.000 A 
ATOM      5  C   UNL     1       1.663  10.435  18.396  0.00  0.00    +0.000 A 
ATOM      6  C   UNL     1       1.075  10.591  19.635  0.00  0.00    +0.000 A 
ATOM      7  C   UNL     1       0.930   9.475  20.449  0.00  0.00    +0.000 A 
ATOM      8  C   UNL     1       1.383   8.201  20.040  0.00  0.00    +0.000 A 
ATOM      9  S   UNL     1       1.068   6.897  21.200  0.00  0.00    +0.000 S 
ATOM     10  C   UNL     1       1.709   5.465  20.373  0.00  0.00    +0.000 A 
ATOM     11  C   UNL     1       1.562   4.254  21.081  0.00  0.00    +0.000 A 
ATOM     12  C   UNL     1       2.062   3.055  20.577  0.00  0.00    +0.000 A 
ATOM     13  C   UNL     1       2.706   3.071  19.358  0.00  0.00    +0.000 A 
ATOM     14 CL   UNL     1       3.369   1.622  18.707  0.00  0.00    +0.000 Cl
ATOM     15  C   UNL     1       2.831   4.258  18.638  0.00  0.00    +0.000 A 
ATOM     16  C   UNL     1       2.348   5.503  19.125  0.00  0.00    +0.000 A 
ENDBRANCH   1   2
BRANCH   1  17
ATOM     17  C   UNL     1       4.765   7.057  17.416  0.00  0.00    +0.000 C 
BRANCH  17  18
ATOM     18  C   UNL     1       5.669   5.980  18.022  0.00  0.00    +0.000 C 
BRANCH  18  20
ATOM     19  C   UNL     1       8.006   6.755  18.351  0.00  0.00    +0.000 C 
ATOM     20  N   UNL     1       7.105   5.874  17.465  0.00  0.00    +0.000 N 
ATOM     21  C   UNL     1       7.728   4.483  17.614  0.00  0.00    +0.000 C 
BRANCH  20  22
ATOM     22  C   UNL     1       7.169   6.325  15.971  0.00  0.00    +0.000 C 
BRANCH  22  23
ATOM     23  C   UNL     1       6.758   5.294  14.935  0.00  0.00    +0.000 A 
ATOM     24  C   UNL     1       7.560   5.067  13.804  0.00  0.00    +0.000 A 
ATOM     25  C   UNL     1       7.130   4.239  12.764  0.00  0.00    +0.000 A 
ATOM     26  C   UNL     1       5.920   3.555  12.883  0.00  0.00    +0.000 A 
ATOM     27  C   UNL     1       5.152   3.680  14.045  0.00  0.00    +0.000 A 
ATOM     28  C   UNL     1       5.571   4.552  15.062  0.00  0.00    +0.000 A 
BRANCH  26  29
ATOM     29  N   UNL     1       5.457   2.712  11.770  0.00  0.00    +0.000 N 
ATOM     30  O   UNL     1       4.313   2.904  11.345  0.00  0.00    +0.000 OA
ATOM     31  O   UNL     1       6.240   1.850  11.347  0.00  0.00    +0.000 OA
ENDBRANCH  26  29
ENDBRANCH  22  23
ENDBRANCH  20  22
ENDBRANCH  18  20
ENDBRANCH  17  18
ENDBRANCH   1  17
TORSDOF 7
ENDMDL
MODEL 5
REMARK VINA RESULT:      -7.1      5.119      9.649
REMARK  Name = 
REMARK  9 active torsions:
REMARK  status: ('A' for Active; 'I' for Inactive)
REMARK    1  A    between atoms: C_1  and  N_2
REMARK    2  A    between atoms: N_2  and  C_3
REMARK    3  A    between atoms: N_2  and  C_4
REMARK    4  A    between atoms: N_2  and  C_22
REMARK    5  A    between atoms: C_4  and  C_5
REMARK    6  A    between atoms: C_5  and  C_6
REMARK    7  A    between atoms: C_6  and  N_7
REMARK    8  A    between atoms: C_22  and  C_23
REMARK    9  A    between atoms: C_26  and  N_27
REMARK                            x       y       z     vdW  Elec       q    Type
REMARK                         _______ _______ _______ _____ _____    ______ ____
ROOT
ATOM      1  C   UNL     1      -0.405  11.568  19.048  0.00  0.00    +0.000 C 
ENDROOT
BRANCH   1   2
ATOM      2  N   UNL     1      -1.753  11.985  19.455  0.00  0.00    +0.000 N 
ATOM      3  C   UNL     1      -1.944  12.486  20.782  0.00  0.00    +0.000 A 
ATOM      4  C   UNL     1      -0.873  12.779  21.669  0.00  0.00    +0.000 A 
ATOM      5  C   UNL     1      -1.068  13.252  22.977  0.00  0.00    +0.000 A 
ATOM      6  C   UNL     1      -2.346  13.459  23.456  0.00  0.00    +0.000 A 
ATOM      7  C   UNL     1      -3.422  13.213  22.614  0.00  0.00    +0.000 A 
ATOM      8  C   UNL     1      -3.233  12.745  21.295  0.00  0.00    +0.000 A 
ATOM      9  S   UNL     1      -4.728  12.532  20.365  0.00  0.00    +0.000 S 
ATOM     10  C   UNL     1      -4.139  11.990  18.782  0.00  0.00    +0.000 A 
ATOM     11  C   UNL     1      -5.144  11.764  17.819  0.00  0.00    +0.000 A 
ATOM     12  C   UNL     1      -4.834  11.289  16.546  0.00  0.00    +0.000 A 
ATOM     13  C   UNL     1      -3.512  11.045  16.239  0.00  0.00    +0.000 A 
ATOM     14 CL   UNL     1      -3.080  10.428  14.691  0.00  0.00    +0.000 Cl
ATOM     15  C   UNL     1      -2.509  11.291  17.175  0.00  0.00    +0.000 A 
ATOM     16  C   UNL     1      -2.786  11.762  18.488  0.00  0.00    +0.000 A 
ENDBRANCH   1   2
BRANCH   1  17
ATOM     17  C   UNL     1      -0.272  10.046  18.988  0.00  0.00    +0.000 C 
BRANCH  17  18
ATOM     18  C   UNL     1       1.012   9.480  19.603  0.00  0.00    +0.000 C 
BRANCH  18  20
ATOM     19  C   UNL     1       0.992  10.080  22.013  0.00  0.00    +0.000 C 
ATOM     20  N   UNL     1       0.908   8.897  21.029  0.00  0.00    +0.000 N 
ATOM     21  C   UNL     1      -0.455   8.278  21.349  0.00  0.00    +0.000 C 
BRANCH  20  22
ATOM     22  C   UNL     1       2.040   7.857  21.302  0.00  0.00    +0.000 C 
BRANCH  22  23
ATOM     23  C   UNL     1       2.005   6.587  20.471  0.00  0.00    +0.000 A 
ATOM     24  C   UNL     1       2.506   6.585  19.158  0.00  0.00    +0.000 A 
ATOM     25  C   UNL     1       2.346   5.477  18.321  0.00  0.00    +0.000 A 
ATOM     26  C   UNL     1       1.754   4.316  18.821  0.00  0.00    +0.000 A 
ATOM     27  C   UNL     1       1.342   4.255  20.155  0.00  0.00    +0.000 A 
ATOM     28  C   UNL     1       1.465   5.390  20.972  0.00  0.00    +0.000 A 
BRANCH  26  29
ATOM     29  N   UNL     1       1.558   3.166  17.925  0.00  0.00    +0.000 N 
ATOM     30  O   UNL     1       2.202   3.146  16.871  0.00  0.00    +0.000 OA
ATOM     31  O   UNL     1       0.742   2.304  18.280  0.00  0.00    +0.000 OA
ENDBRANCH  26  29
ENDBRANCH  22  23
ENDBRANCH  20  22
ENDBRANCH  18  20
ENDBRANCH  17  18
ENDBRANCH   1  17
TORSDOF 7
ENDMDL
MODEL 6
REMARK VINA RESULT:      -7.1      5.389      9.956
REMARK  Name = 
REMARK  9 active torsions:
REMARK  status: ('A' for Active; 'I' for Inactive)
REMARK    1  A    between atoms: C_1  and  N_2
REMARK    2  A    between atoms: N_2  and  C_3
REMARK    3  A    between atoms: N_2  and  C_4
REMARK    4  A    between atoms: N_2  and  C_22
REMARK    5  A    between atoms: C_4  and  C_5
REMARK    6  A    between atoms: C_5  and  C_6
REMARK    7  A    between atoms: C_6  and  N_7
REMARK    8  A    between atoms: C_22  and  C_23
REMARK    9  A    between atoms: C_26  and  N_27
REMARK                            x       y       z     vdW  Elec       q    Type
REMARK                         _______ _______ _______ _____ _____    ______ ____
ROOT
ATOM      1  C   UNL     1      -1.235  12.072  19.838  0.00  0.00    +0.000 C 
ENDROOT
BRANCH   1   2
ATOM      2  N   UNL     1      -2.662  12.038  19.490  0.00  0.00    +0.000 N 
ATOM      3  C   UNL     1      -3.037  11.605  18.178  0.00  0.00    +0.000 A 
ATOM      4  C   UNL     1      -2.125  11.028  17.254  0.00  0.00    +0.000 A 
ATOM      5  C   UNL     1      -2.495  10.624  15.961  0.00  0.00    +0.000 A 
ATOM      6  C   UNL     1      -3.800  10.772  15.535  0.00  0.00    +0.000 A 
ATOM      7  C   UNL     1      -4.732  11.304  16.416  0.00  0.00    +0.000 A 
ATOM      8  C   UNL     1      -4.368  11.706  17.720  0.00  0.00    +0.000 A 
ATOM      9  S   UNL     1      -5.708  12.321  18.706  0.00  0.00    +0.000 S 
ATOM     10  C   UNL     1      -4.928  12.685  20.256  0.00  0.00    +0.000 A 
ATOM     11  C   UNL     1      -5.793  13.179  21.256  0.00  0.00    +0.000 A 
ATOM     12  C   UNL     1      -5.312  13.554  22.508  0.00  0.00    +0.000 A 
ATOM     13  C   UNL     1      -3.962  13.429  22.760  0.00  0.00    +0.000 A 
ATOM     14 CL   UNL     1      -3.314  13.909  24.281  0.00  0.00    +0.000 Cl
ATOM     15  C   UNL     1      -3.104  12.917  21.788  0.00  0.00    +0.000 A 
ATOM     16  C   UNL     1      -3.554  12.536  20.494  0.00  0.00    +0.000 A 
ENDBRANCH   1   2
BRANCH   1  17
ATOM     17  C   UNL     1      -0.661  10.668  20.027  0.00  0.00    +0.000 C 
BRANCH  17  18
ATOM     18  C   UNL     1       0.391  10.537  21.133  0.00  0.00    +0.000 C 
BRANCH  18  20
ATOM     19  C   UNL     1       0.160   9.525  23.389  0.00  0.00    +0.000 C 
ATOM     20  N   UNL     1       0.432   9.202  21.907  0.00  0.00    +0.000 N 
ATOM     21  C   UNL     1      -0.705   8.241  21.549  0.00  0.00    +0.000 C 
BRANCH  20  22
ATOM     22  C   UNL     1       1.808   8.484  21.730  0.00  0.00    +0.000 C 
BRANCH  22  23
ATOM     23  C   UNL     1       1.897   7.463  20.610  0.00  0.00    +0.000 A 
ATOM     24  C   UNL     1       1.763   6.092  20.889  0.00  0.00    +0.000 A 
ATOM     25  C   UNL     1       1.993   5.126  19.906  0.00  0.00    +0.000 A 
ATOM     26  C   UNL     1       2.279   5.525  18.600  0.00  0.00    +0.000 A 
ATOM     27  C   UNL     1       2.314   6.884  18.272  0.00  0.00    +0.000 A 
ATOM     28  C   UNL     1       2.128   7.846  19.277  0.00  0.00    +0.000 A 
BRANCH  26  29
ATOM     29  N   UNL     1       2.554   4.504  17.579  0.00  0.00    +0.000 N 
ATOM     30  O   UNL     1       1.656   3.695  17.323  0.00  0.00    +0.000 OA
ATOM     31  O   UNL     1       3.678   4.510  17.058  0.00  0.00    +0.000 OA
ENDBRANCH  26  29
ENDBRANCH  22  23
ENDBRANCH  20  22
ENDBRANCH  18  20
ENDBRANCH  17  18
ENDBRANCH   1  17
TORSDOF 7
ENDMDL
MODEL 7
REMARK VINA RESULT:      -7.1      2.376      3.091
REMARK  Name = 
REMARK  9 active torsions:
REMARK  status: ('A' for Active; 'I' for Inactive)
REMARK    1  A    between atoms: C_1  and  N_2
REMARK    2  A    between atoms: N_2  and  C_3
REMARK    3  A    between atoms: N_2  and  C_4
REMARK    4  A    between atoms: N_2  and  C_22
REMARK    5  A    between atoms: C_4  and  C_5
REMARK    6  A    between atoms: C_5  and  C_6
REMARK    7  A    between atoms: C_6  and  N_7
REMARK    8  A    between atoms: C_22  and  C_23
REMARK    9  A    between atoms: C_26  and  N_27
REMARK                            x       y       z     vdW  Elec       q    Type
REMARK                         _______ _______ _______ _____ _____    ______ ____
ROOT
ATOM      1  C   UNL     1       3.292   6.639  19.864  0.00  0.00    +0.000 C 
ENDROOT
BRANCH   1   2
ATOM      2  N   UNL     1       3.508   5.538  18.916  0.00  0.00    +0.000 N 
ATOM      3  C   UNL     1       2.609   4.424  18.942  0.00  0.00    +0.000 A 
ATOM      4  C   UNL     1       1.409   4.406  19.703  0.00  0.00    +0.000 A 
ATOM      5  C   UNL     1       0.541   3.303  19.740  0.00  0.00    +0.000 A 
ATOM      6  C   UNL     1       0.831   2.167  19.009  0.00  0.00    +0.000 A 
ATOM      7  C   UNL     1       1.978   2.153  18.227  0.00  0.00    +0.000 A 
ATOM      8  C   UNL     1       2.852   3.262  18.180  0.00  0.00    +0.000 A 
ATOM      9  S   UNL     1       4.239   3.065  17.092  0.00  0.00    +0.000 S 
ATOM     10  C   UNL     1       5.083   4.618  17.237  0.00  0.00    +0.000 A 
ATOM     11  C   UNL     1       6.239   4.744  16.439  0.00  0.00    +0.000 A 
ATOM     12  C   UNL     1       7.030   5.889  16.486  0.00  0.00    +0.000 A 
ATOM     13  C   UNL     1       6.659   6.912  17.333  0.00  0.00    +0.000 A 
ATOM     14 CL   UNL     1       7.621   8.334  17.451  0.00  0.00    +0.000 Cl
ATOM     15  C   UNL     1       5.504   6.808  18.106  0.00  0.00    +0.000 A 
ATOM     16  C   UNL     1       4.678   5.650  18.097  0.00  0.00    +0.000 A 
ENDBRANCH   1   2
BRANCH   1  17
ATOM     17  C   UNL     1       2.300   7.669  19.325  0.00  0.00    +0.000 C 
BRANCH  17  18
ATOM     18  C   UNL     1       0.982   7.773  20.100  0.00  0.00    +0.000 C 
BRANCH  18  20
ATOM     19  C   UNL     1      -0.567   8.863  21.707  0.00  0.00    +0.000 C 
ATOM     20  N   UNL     1       0.796   9.011  21.004  0.00  0.00    +0.000 N 
ATOM     21  C   UNL     1       1.782   9.079  22.173  0.00  0.00    +0.000 C 
BRANCH  20  22
ATOM     22  C   UNL     1       0.863  10.334  20.176  0.00  0.00    +0.000 C 
BRANCH  22  23
ATOM     23  C   UNL     1      -0.353  10.663  19.329  0.00  0.00    +0.000 A 
ATOM     24  C   UNL     1      -1.290  11.613  19.772  0.00  0.00    +0.000 A 
ATOM     25  C   UNL     1      -2.491  11.821  19.089  0.00  0.00    +0.000 A 
ATOM     26  C   UNL     1      -2.733  11.138  17.897  0.00  0.00    +0.000 A 
ATOM     27  C   UNL     1      -1.771  10.265  17.378  0.00  0.00    +0.000 A 
ATOM     28  C   UNL     1      -0.589  10.028  18.097  0.00  0.00    +0.000 A 
BRANCH  26  29
ATOM     29  N   UNL     1      -4.013  11.336  17.201  0.00  0.00    +0.000 N 
ATOM     30  O   UNL     1      -4.172  10.759  16.120  0.00  0.00    +0.000 OA
ATOM     31  O   UNL     1      -4.841  12.087  17.737  0.00  0.00    +0.000 OA
ENDBRANCH  26  29
ENDBRANCH  22  23
ENDBRANCH  20  22
ENDBRANCH  18  20
ENDBRANCH  17  18
ENDBRANCH   1  17
TORSDOF 7
ENDMDL
MODEL 8
REMARK VINA RESULT:      -7.0      5.533      9.764
REMARK  Name = 
REMARK  9 active torsions:
REMARK  status: ('A' for Active; 'I' for Inactive)
REMARK    1  A    between atoms: C_1  and  N_2
REMARK    2  A    between atoms: N_2  and  C_3
REMARK    3  A    between atoms: N_2  and  C_4
REMARK    4  A    between atoms: N_2  and  C_22
REMARK    5  A    between atoms: C_4  and  C_5
REMARK    6  A    between atoms: C_5  and  C_6
REMARK    7  A    between atoms: C_6  and  N_7
REMARK    8  A    between atoms: C_22  and  C_23
REMARK    9  A    between atoms: C_26  and  N_27
REMARK                            x       y       z     vdW  Elec       q    Type
REMARK                         _______ _______ _______ _____ _____    ______ ____
ROOT
ATOM      1  C   UNL     1       3.336   6.844  17.276  0.00  0.00    +0.000 C 
ENDROOT
BRANCH   1   2
ATOM      2  N   UNL     1       2.515   6.899  18.493  0.00  0.00    +0.000 N 
ATOM      3  C   UNL     1       1.967   8.160  18.894  0.00  0.00    +0.000 A 
ATOM      4  C   UNL     1       2.014   9.326  18.084  0.00  0.00    +0.000 A 
ATOM      5  C   UNL     1       1.493  10.564  18.491  0.00  0.00    +0.000 A 
ATOM      6  C   UNL     1       0.892  10.691  19.728  0.00  0.00    +0.000 A 
ATOM      7  C   UNL     1       0.797   9.570  20.541  0.00  0.00    +0.000 A 
ATOM      8  C   UNL     1       1.313   8.319  20.134  0.00  0.00    +0.000 A 
ATOM      9  S   UNL     1       1.057   7.002  21.293  0.00  0.00    +0.000 S 
ATOM     10  C   UNL     1       1.770   5.602  20.470  0.00  0.00    +0.000 A 
ATOM     11  C   UNL     1       1.679   4.385  21.178  0.00  0.00    +0.000 A 
ATOM     12  C   UNL     1       2.239   3.213  20.676  0.00  0.00    +0.000 A 
ATOM     13  C   UNL     1       2.887   3.259  19.460  0.00  0.00    +0.000 A 
ATOM     14 CL   UNL     1       3.623   1.844  18.812  0.00  0.00    +0.000 Cl
ATOM     15  C   UNL     1       2.958   4.451  18.740  0.00  0.00    +0.000 A 
ATOM     16  C   UNL     1       2.412   5.672  19.224  0.00  0.00    +0.000 A 
ENDBRANCH   1   2
BRANCH   1  17
ATOM     17  C   UNL     1       4.738   7.407  17.509  0.00  0.00    +0.000 C 
BRANCH  17  18
ATOM     18  C   UNL     1       5.831   6.828  16.605  0.00  0.00    +0.000 C 
BRANCH  18  20
ATOM     19  C   UNL     1       7.813   6.915  18.099  0.00  0.00    +0.000 C 
ATOM     20  N   UNL     1       6.917   5.965  17.283  0.00  0.00    +0.000 N 
ATOM     21  C   UNL     1       6.374   5.005  18.345  0.00  0.00    +0.000 C 
BRANCH  20  22
ATOM     22  C   UNL     1       7.751   5.170  16.228  0.00  0.00    +0.000 C 
BRANCH  22  23
ATOM     23  C   UNL     1       7.000   4.679  15.004  0.00  0.00    +0.000 A 
ATOM     24  C   UNL     1       5.756   4.041  15.144  0.00  0.00    +0.000 A 
ATOM     25  C   UNL     1       5.119   3.445  14.052  0.00  0.00    +0.000 A 
ATOM     26  C   UNL     1       5.682   3.557  12.780  0.00  0.00    +0.000 A 
ATOM     27  C   UNL     1       6.866   4.278  12.596  0.00  0.00    +0.000 A 
ATOM     28  C   UNL     1       7.522   4.831  13.707  0.00  0.00    +0.000 A 
BRANCH  26  29
ATOM     29  N   UNL     1       5.024   2.898  11.642  0.00  0.00    +0.000 N 
ATOM     30  O   UNL     1       5.470   1.805  11.278  0.00  0.00    +0.000 OA
ATOM     31  O   UNL     1       4.078   3.496  11.109  0.00  0.00    +0.000 OA
ENDBRANCH  26  29
ENDBRANCH  22  23
ENDBRANCH  20  22
ENDBRANCH  18  20
ENDBRANCH  17  18
ENDBRANCH   1  17
TORSDOF 7
ENDMDL
MODEL 9
REMARK VINA RESULT:      -7.0      2.285      2.876
REMARK  Name = 
REMARK  9 active torsions:
REMARK  status: ('A' for Active; 'I' for Inactive)
REMARK    1  A    between atoms: C_1  and  N_2
REMARK    2  A    between atoms: N_2  and  C_3
REMARK    3  A    between atoms: N_2  and  C_4
REMARK    4  A    between atoms: N_2  and  C_22
REMARK    5  A    between atoms: C_4  and  C_5
REMARK    6  A    between atoms: C_5  and  C_6
REMARK    7  A    between atoms: C_6  and  N_7
REMARK    8  A    between atoms: C_22  and  C_23
REMARK    9  A    between atoms: C_26  and  N_27
REMARK                            x       y       z     vdW  Elec       q    Type
REMARK                         _______ _______ _______ _____ _____    ______ ____
ROOT
ATOM      1  C   UNL     1       2.950   6.799  19.299  0.00  0.00    +0.000 C 
ENDROOT
BRANCH   1   2
ATOM      2  N   UNL     1       3.405   5.583  18.611  0.00  0.00    +0.000 N 
ATOM      3  C   UNL     1       2.586   4.410  18.679  0.00  0.00    +0.000 A 
ATOM      4  C   UNL     1       1.270   4.406  19.215  0.00  0.00    +0.000 A 
ATOM      5  C   UNL     1       0.480   3.248  19.298  0.00  0.00    +0.000 A 
ATOM      6  C   UNL     1       0.968   2.041  18.840  0.00  0.00    +0.000 A 
ATOM      7  C   UNL     1       2.238   2.005  18.280  0.00  0.00    +0.000 A 
ATOM      8  C   UNL     1       3.036   3.167  18.188  0.00  0.00    +0.000 A 
ATOM      9  S   UNL     1       4.608   2.924  17.405  0.00  0.00    +0.000 S 
ATOM     10  C   UNL     1       5.314   4.551  17.416  0.00  0.00    +0.000 A 
ATOM     11  C   UNL     1       6.588   4.650  16.816  0.00  0.00    +0.000 A 
ATOM     12  C   UNL     1       7.285   5.856  16.795  0.00  0.00    +0.000 A 
ATOM     13  C   UNL     1       6.702   6.965  17.372  0.00  0.00    +0.000 A 
ATOM     14 CL   UNL     1       7.537   8.470  17.400  0.00  0.00    +0.000 Cl
ATOM     15  C   UNL     1       5.433   6.882  17.943  0.00  0.00    +0.000 A 
ATOM     16  C   UNL     1       4.696   5.667  17.997  0.00  0.00    +0.000 A 
ENDBRANCH   1   2
BRANCH   1  17
ATOM     17  C   UNL     1       2.080   7.674  18.396  0.00  0.00    +0.000 C 
BRANCH  17  18
ATOM     18  C   UNL     1       2.228   9.183  18.611  0.00  0.00    +0.000 C 
BRANCH  18  20
ATOM     19  C   UNL     1       0.329   9.323  20.206  0.00  0.00    +0.000 C 
ATOM     20  N   UNL     1       0.946   9.972  18.952  0.00  0.00    +0.000 N 
ATOM     21  C   UNL     1       1.204  11.413  19.400  0.00  0.00    +0.000 C 
BRANCH  20  22
ATOM     22  C   UNL     1      -0.062   9.961  17.758  0.00  0.00    +0.000 C 
BRANCH  22  23
ATOM     23  C   UNL     1      -1.472  10.436  18.061  0.00  0.00    +0.000 A 
ATOM     24  C   UNL     1      -2.580   9.717  17.581  0.00  0.00    +0.000 A 
ATOM     25  C   UNL     1      -3.880  10.214  17.713  0.00  0.00    +0.000 A 
ATOM     26  C   UNL     1      -4.096  11.404  18.409  0.00  0.00    +0.000 A 
ATOM     27  C   UNL     1      -3.021  12.085  18.988  0.00  0.00    +0.000 A 
ATOM     28  C   UNL     1      -1.715  11.602  18.808  0.00  0.00    +0.000 A 
BRANCH  26  29
ATOM     29  N   UNL     1      -5.462  11.938  18.514  0.00  0.00    +0.000 N 
ATOM     30  O   UNL     1      -6.373  11.284  17.997  0.00  0.00    +0.000 OA
ATOM     31  O   UNL     1      -5.604  13.022  19.098  0.00  0.00    +0.000 OA
ENDBRANCH  26  29
ENDBRANCH  22  23
ENDBRANCH  20  22
ENDBRANCH  18  20
ENDBRANCH  17  18
ENDBRANCH   1  17
TORSDOF 7
ENDMDL
