MODEL 1
REMARK VINA RESULT:      -7.1      0.000      0.000
REMARK  Name = 
REMARK  6 active torsions:
REMARK  status: ('A' for Active; 'I' for Inactive)
REMARK    1  A    between atoms: C_1  and  C_2
REMARK    2  A    between atoms: C_2  and  O_3
REMARK    3  A    between atoms: O_3  and  C_4
REMARK    4  A    between atoms: C_4  and  C_6
REMARK    5  A    between atoms: C_9  and  N_10
REMARK    6  A    between atoms: C_13  and  N_14
REMARK                            x       y       z     vdW  Elec       q    Type
REMARK                         _______ _______ _______ _____ _____    ______ ____
ROOT
ATOM      1  C   UNL     1       4.758   5.604  17.111  0.00  0.00    +0.000 A 
ATOM      2  C   UNL     1       4.735   4.391  17.771  0.00  0.00    +0.000 A 
ATOM      3  C   UNL     1       3.818   4.353  18.881  0.00  0.00    +0.000 A 
ATOM      4  C   UNL     1       3.476   3.347  19.830  0.00  0.00    +0.000 A 
ATOM      5  C   UNL     1       2.505   3.524  20.836  0.00  0.00    +0.000 A 
ATOM      6  C   UNL     1       1.909   4.781  20.926  0.00  0.00    +0.000 A 
ATOM      7  C   UNL     1       2.195   5.799  20.009  0.00  0.00    +0.000 A 
ATOM      8  C   UNL     1       3.153   5.576  19.004  0.00  0.00    +0.000 A 
ATOM      9  S   UNL     1       3.667   6.706  17.817  0.00  0.00    +0.000 S 
ENDROOT
BRANCH   4  10
ATOM     10  N   UNL     1       4.146   2.068  19.703  0.00  0.00    +0.000 N 
ATOM     11  O   UNL     1       5.061   1.812  20.496  0.00  0.00    +0.000 OA
ATOM     12  O   UNL     1       3.751   1.310  18.802  0.00  0.00    +0.000 OA
ENDBRANCH   4  10
BRANCH   5  13
ATOM     13  N   UNL     1       2.296   2.612  21.884  0.00  0.00    +0.000 N 
ATOM     14  H   UNL     1       3.025   1.902  21.982  0.00  0.00    +0.000 HD
ATOM     15  H   UNL     1       1.370   2.191  21.900  0.00  0.00    +0.000 HD
ENDBRANCH   5  13
BRANCH   1  16
ATOM     16  C   UNL     1       5.504   6.001  15.934  0.00  0.00    +0.000 C 
ATOM     17  O   UNL     1       5.216   6.900  15.157  0.00  0.00    +0.000 OA
BRANCH  16  18
ATOM     18  O   UNL     1       6.542   5.132  15.754  0.00  0.00    +0.000 OA
BRANCH  18  20
ATOM     19  C   UNL     1       6.018   3.856  13.808  0.00  0.00    +0.000 C 
ATOM     20  C   UNL     1       6.929   4.922  14.391  0.00  0.00    +0.000 C 
ENDBRANCH  18  20
ENDBRANCH  16  18
ENDBRANCH   1  16
TORSDOF 5
ENDMDL
MODEL 2
REMARK VINA RESULT:      -7.1      1.143      1.902
REMARK  Name = 
REMARK  6 active torsions:
REMARK  status: ('A' for Active; 'I' for Inactive)
REMARK    1  A    between atoms: C_1  and  C_2
REMARK    2  A    between atoms: C_2  and  O_3
REMARK    3  A    between atoms: O_3  and  C_4
REMARK    4  A    between atoms: C_4  and  C_6
REMARK    5  A    between atoms: C_9  and  N_10
REMARK    6  A    between atoms: C_13  and  N_14
REMARK                            x       y       z     vdW  Elec       q    Type
REMARK                         _______ _______ _______ _____ _____    ______ ____
ROOT
ATOM      1  C   UNL     1       4.719   5.618  17.164  0.00  0.00    +0.000 A 
ATOM      2  C   UNL     1       4.705   4.399  17.813  0.00  0.00    +0.000 A 
ATOM      3  C   UNL     1       3.783   4.341  18.919  0.00  0.00    +0.000 A 
ATOM      4  C   UNL     1       3.447   3.322  19.856  0.00  0.00    +0.000 A 
ATOM      5  C   UNL     1       2.470   3.481  20.860  0.00  0.00    +0.000 A 
ATOM      6  C   UNL     1       1.863   4.731  20.960  0.00  0.00    +0.000 A 
ATOM      7  C   UNL     1       2.144   5.761  20.054  0.00  0.00    +0.000 A 
ATOM      8  C   UNL     1       3.108   5.556  19.051  0.00  0.00    +0.000 A 
ATOM      9  S   UNL     1       3.615   6.703  17.877  0.00  0.00    +0.000 S 
ENDROOT
BRANCH   4  10
ATOM     10  N   UNL     1       4.129   2.051  19.720  0.00  0.00    +0.000 N 
ATOM     11  O   UNL     1       3.761   1.290  18.815  0.00  0.00    +0.000 OA
ATOM     12  O   UNL     1       5.045   1.812  20.524  0.00  0.00    +0.000 OA
ENDBRANCH   4  10
BRANCH   5  13
ATOM     13  N   UNL     1       2.266   2.557  21.898  0.00  0.00    +0.000 N 
ATOM     14  H   UNL     1       1.295   2.263  22.021  0.00  0.00    +0.000 HD
ATOM     15  H   UNL     1       2.684   2.819  22.787  0.00  0.00    +0.000 HD
ENDBRANCH   5  13
BRANCH   1  16
ATOM     16  C   UNL     1       5.467   6.033  15.994  0.00  0.00    +0.000 C 
ATOM     17  O   UNL     1       5.491   5.472  14.909  0.00  0.00    +0.000 OA
BRANCH  16  18
ATOM     18  O   UNL     1       6.245   7.106  16.324  0.00  0.00    +0.000 OA
BRANCH  18  20
ATOM     19  C   UNL     1       7.880   8.146  17.714  0.00  0.00    +0.000 C 
ATOM     20  C   UNL     1       7.323   6.821  17.223  0.00  0.00    +0.000 C 
ENDBRANCH  18  20
ENDBRANCH  16  18
ENDBRANCH   1  16
TORSDOF 5
ENDMDL
MODEL 3
REMARK VINA RESULT:      -6.9      1.358      1.831
REMARK  Name = 
REMARK  6 active torsions:
REMARK  status: ('A' for Active; 'I' for Inactive)
REMARK    1  A    between atoms: C_1  and  C_2
REMARK    2  A    between atoms: C_2  and  O_3
REMARK    3  A    between atoms: O_3  and  C_4
REMARK    4  A    between atoms: C_4  and  C_6
REMARK    5  A    between atoms: C_9  and  N_10
REMARK    6  A    between atoms: C_13  and  N_14
REMARK                            x       y       z     vdW  Elec       q    Type
REMARK                         _______ _______ _______ _____ _____    ______ ____
ROOT
ATOM      1  C   UNL     1       5.843   4.885  15.941  0.00  0.00    +0.000 A 
ATOM      2  C   UNL     1       5.419   3.985  16.899  0.00  0.00    +0.000 A 
ATOM      3  C   UNL     1       4.486   4.543  17.845  0.00  0.00    +0.000 A 
ATOM      4  C   UNL     1       3.809   4.007  18.979  0.00  0.00    +0.000 A 
ATOM      5  C   UNL     1       2.896   4.745  19.760  0.00  0.00    +0.000 A 
ATOM      6  C   UNL     1       2.713   6.085  19.422  0.00  0.00    +0.000 A 
ATOM      7  C   UNL     1       3.339   6.656  18.308  0.00  0.00    +0.000 A 
ATOM      8  C   UNL     1       4.226   5.881  17.539  0.00  0.00    +0.000 A 
ATOM      9  S   UNL     1       5.114   6.409  16.167  0.00  0.00    +0.000 S 
ENDROOT
BRANCH   4  10
ATOM     10  N   UNL     1       4.058   2.616  19.297  0.00  0.00    +0.000 N 
ATOM     11  O   UNL     1       4.899   2.362  20.170  0.00  0.00    +0.000 OA
ATOM     12  O   UNL     1       3.404   1.767  18.670  0.00  0.00    +0.000 OA
ENDBRANCH   4  10
BRANCH   5  13
ATOM     13  N   UNL     1       2.371   4.288  20.979  0.00  0.00    +0.000 N 
ATOM     14  H   UNL     1       3.068   4.120  21.707  0.00  0.00    +0.000 HD
ATOM     15  H   UNL     1       1.732   3.502  20.897  0.00  0.00    +0.000 HD
ENDBRANCH   5  13
BRANCH   1  16
ATOM     16  C   UNL     1       6.727   4.683  14.810  0.00  0.00    +0.000 C 
ATOM     17  O   UNL     1       7.676   5.384  14.494  0.00  0.00    +0.000 OA
BRANCH  16  18
ATOM     18  O   UNL     1       6.265   3.632  14.071  0.00  0.00    +0.000 OA
BRANCH  18  20
ATOM     19  C   UNL     1       5.273   3.171  11.952  0.00  0.00    +0.000 C 
ATOM     20  C   UNL     1       6.492   3.736  12.660  0.00  0.00    +0.000 C 
ENDBRANCH  18  20
ENDBRANCH  16  18
ENDBRANCH   1  16
TORSDOF 5
ENDMDL
MODEL 4
REMARK VINA RESULT:      -6.9      1.160      1.383
REMARK  Name = 
REMARK  6 active torsions:
REMARK  status: ('A' for Active; 'I' for Inactive)
REMARK    1  A    between atoms: C_1  and  C_2
REMARK    2  A    between atoms: C_2  and  O_3
REMARK    3  A    between atoms: O_3  and  C_4
REMARK    4  A    between atoms: C_4  and  C_6
REMARK    5  A    between atoms: C_9  and  N_10
REMARK    6  A    between atoms: C_13  and  N_14
REMARK                            x       y       z     vdW  Elec       q    Type
REMARK                         _______ _______ _______ _____ _____    ______ ____
ROOT
ATOM      1  C   UNL     1       5.905   5.438  17.275  0.00  0.00    +0.000 A 
ATOM      2  C   UNL     1       5.572   4.248  17.891  0.00  0.00    +0.000 A 
ATOM      3  C   UNL     1       4.255   4.245  18.474  0.00  0.00    +0.000 A 
ATOM      4  C   UNL     1       3.511   3.270  19.199  0.00  0.00    +0.000 A 
ATOM      5  C   UNL     1       2.196   3.480  19.660  0.00  0.00    +0.000 A 
ATOM      6  C   UNL     1       1.641   4.739  19.439  0.00  0.00    +0.000 A 
ATOM      7  C   UNL     1       2.322   5.728  18.718  0.00  0.00    +0.000 A 
ATOM      8  C   UNL     1       3.624   5.472  18.253  0.00  0.00    +0.000 A 
ATOM      9  S   UNL     1       4.630   6.563  17.388  0.00  0.00    +0.000 S 
ENDROOT
BRANCH   4  10
ATOM     10  N   UNL     1       4.149   1.988  19.421  0.00  0.00    +0.000 N 
ATOM     11  O   UNL     1       3.883   1.065  18.640  0.00  0.00    +0.000 OA
ATOM     12  O   UNL     1       4.925   1.902  20.387  0.00  0.00    +0.000 OA
ENDBRANCH   4  10
BRANCH   5  13
ATOM     13  N   UNL     1       1.528   2.602  20.530  0.00  0.00    +0.000 N 
ATOM     14  H   UNL     1       0.855   1.982  20.075  0.00  0.00    +0.000 HD
ATOM     15  H   UNL     1       1.121   3.046  21.349  0.00  0.00    +0.000 HD
ENDBRANCH   5  13
BRANCH   1  16
ATOM     16  C   UNL     1       7.104   5.797  16.545  0.00  0.00    +0.000 C 
ATOM     17  O   UNL     1       7.669   6.881  16.561  0.00  0.00    +0.000 OA
BRANCH  16  18
ATOM     18  O   UNL     1       7.455   4.758  15.732  0.00  0.00    +0.000 OA
BRANCH  18  20
ATOM     19  C   UNL     1       6.010   3.901  14.039  0.00  0.00    +0.000 C 
ATOM     20  C   UNL     1       7.095   4.916  14.354  0.00  0.00    +0.000 C 
ENDBRANCH  18  20
ENDBRANCH  16  18
ENDBRANCH   1  16
TORSDOF 5
ENDMDL
MODEL 5
REMARK VINA RESULT:      -6.9      1.019      1.479
REMARK  Name = 
REMARK  6 active torsions:
REMARK  status: ('A' for Active; 'I' for Inactive)
REMARK    1  A    between atoms: C_1  and  C_2
REMARK    2  A    between atoms: C_2  and  O_3
REMARK    3  A    between atoms: O_3  and  C_4
REMARK    4  A    between atoms: C_4  and  C_6
REMARK    5  A    between atoms: C_9  and  N_10
REMARK    6  A    between atoms: C_13  and  N_14
REMARK                            x       y       z     vdW  Elec       q    Type
REMARK                         _______ _______ _______ _____ _____    ______ ____
ROOT
ATOM      1  C   UNL     1       5.503   5.106  16.429  0.00  0.00    +0.000 A 
ATOM      2  C   UNL     1       5.199   4.055  17.272  0.00  0.00    +0.000 A 
ATOM      3  C   UNL     1       4.261   4.398  18.310  0.00  0.00    +0.000 A 
ATOM      4  C   UNL     1       3.681   3.662  19.383  0.00  0.00    +0.000 A 
ATOM      5  C   UNL     1       2.741   4.206  20.282  0.00  0.00    +0.000 A 
ATOM      6  C   UNL     1       2.428   5.555  20.129  0.00  0.00    +0.000 A 
ATOM      7  C   UNL     1       2.956   6.321  19.082  0.00  0.00    +0.000 A 
ATOM      8  C   UNL     1       3.873   5.735  18.192  0.00  0.00    +0.000 A 
ATOM      9  S   UNL     1       4.654   6.515  16.875  0.00  0.00    +0.000 S 
ENDROOT
BRANCH   4  10
ATOM     10  N   UNL     1       4.063   2.269  19.507  0.00  0.00    +0.000 N 
ATOM     11  O   UNL     1       3.528   1.451  18.746  0.00  0.00    +0.000 OA
ATOM     12  O   UNL     1       4.907   1.990  20.374  0.00  0.00    +0.000 OA
ENDBRANCH   4  10
BRANCH   5  13
ATOM     13  N   UNL     1       2.308   3.549  21.445  0.00  0.00    +0.000 N 
ATOM     14  H   UNL     1       1.304   3.621  21.626  0.00  0.00    +0.000 HD
ATOM     15  H   UNL     1       2.847   3.767  22.279  0.00  0.00    +0.000 HD
ENDBRANCH   5  13
BRANCH   1  16
ATOM     16  C   UNL     1       6.354   5.132  15.255  0.00  0.00    +0.000 C 
ATOM     17  O   UNL     1       7.496   5.562  15.194  0.00  0.00    +0.000 OA
BRANCH  16  18
ATOM     18  O   UNL     1       5.636   4.698  14.178  0.00  0.00    +0.000 OA
BRANCH  18  20
ATOM     19  C   UNL     1       5.372   3.384  12.205  0.00  0.00    +0.000 C 
ATOM     20  C   UNL     1       6.281   3.698  13.381  0.00  0.00    +0.000 C 
ENDBRANCH  18  20
ENDBRANCH  16  18
ENDBRANCH   1  16
TORSDOF 5
ENDMDL
MODEL 6
REMARK VINA RESULT:      -6.7      2.131      2.804
REMARK  Name = 
REMARK  6 active torsions:
REMARK  status: ('A' for Active; 'I' for Inactive)
REMARK    1  A    between atoms: C_1  and  C_2
REMARK    2  A    between atoms: C_2  and  O_3
REMARK    3  A    between atoms: O_3  and  C_4
REMARK    4  A    between atoms: C_4  and  C_6
REMARK    5  A    between atoms: C_9  and  N_10
REMARK    6  A    between atoms: C_13  and  N_14
REMARK                            x       y       z     vdW  Elec       q    Type
REMARK                         _______ _______ _______ _____ _____    ______ ____
ROOT
ATOM      1  C   UNL     1       5.899   4.682  17.758  0.00  0.00    +0.000 A 
ATOM      2  C   UNL     1       5.420   3.951  18.827  0.00  0.00    +0.000 A 
ATOM      3  C   UNL     1       3.986   3.820  18.843  0.00  0.00    +0.000 A 
ATOM      4  C   UNL     1       3.075   3.180  19.733  0.00  0.00    +0.000 A 
ATOM      5  C   UNL     1       1.679   3.154  19.531  0.00  0.00    +0.000 A 
ATOM      6  C   UNL     1       1.186   3.853  18.431  0.00  0.00    +0.000 A 
ATOM      7  C   UNL     1       2.038   4.484  17.516  0.00  0.00    +0.000 A 
ATOM      8  C   UNL     1       3.427   4.468  17.739  0.00  0.00    +0.000 A 
ATOM      9  S   UNL     1       4.624   5.212  16.759  0.00  0.00    +0.000 S 
ENDROOT
BRANCH   4  10
ATOM     10  N   UNL     1       3.643   2.490  20.873  0.00  0.00    +0.000 N 
ATOM     11  O   UNL     1       3.031   2.544  21.948  0.00  0.00    +0.000 OA
ATOM     12  O   UNL     1       4.713   1.886  20.692  0.00  0.00    +0.000 OA
ENDBRANCH   4  10
BRANCH   5  13
ATOM     13  N   UNL     1       0.765   2.692  20.491  0.00  0.00    +0.000 N 
ATOM     14  H   UNL     1       0.048   3.370  20.758  0.00  0.00    +0.000 HD
ATOM     15  H   UNL     1       1.190   2.267  21.311  0.00  0.00    +0.000 HD
ENDBRANCH   5  13
BRANCH   1  16
ATOM     16  C   UNL     1       7.266   4.981  17.381  0.00  0.00    +0.000 C 
ATOM     17  O   UNL     1       8.203   4.196  17.361  0.00  0.00    +0.000 OA
BRANCH  16  18
ATOM     18  O   UNL     1       7.380   6.322  17.154  0.00  0.00    +0.000 OA
BRANCH  18  20
ATOM     19  C   UNL     1       7.998   8.532  17.806  0.00  0.00    +0.000 C 
ATOM     20  C   UNL     1       7.900   7.083  18.251  0.00  0.00    +0.000 C 
ENDBRANCH  18  20
ENDBRANCH  16  18
ENDBRANCH   1  16
TORSDOF 5
ENDMDL
MODEL 7
REMARK VINA RESULT:      -6.7      1.599      1.925
REMARK  Name = 
REMARK  6 active torsions:
REMARK  status: ('A' for Active; 'I' for Inactive)
REMARK    1  A    between atoms: C_1  and  C_2
REMARK    2  A    between atoms: C_2  and  O_3
REMARK    3  A    between atoms: O_3  and  C_4
REMARK    4  A    between atoms: C_4  and  C_6
REMARK    5  A    between atoms: C_9  and  N_10
REMARK    6  A    between atoms: C_13  and  N_14
REMARK                            x       y       z     vdW  Elec       q    Type
REMARK                         _______ _______ _______ _____ _____    ______ ____
ROOT
ATOM      1  C   UNL     1       5.307   4.684  16.501  0.00  0.00    +0.000 A 
ATOM      2  C   UNL     1       4.379   3.773  16.968  0.00  0.00    +0.000 A 
ATOM      3  C   UNL     1       3.532   4.292  18.011  0.00  0.00    +0.000 A 
ATOM      4  C   UNL     1       2.472   3.727  18.777  0.00  0.00    +0.000 A 
ATOM      5  C   UNL     1       1.745   4.447  19.748  0.00  0.00    +0.000 A 
ATOM      6  C   UNL     1       2.148   5.757  19.997  0.00  0.00    +0.000 A 
ATOM      7  C   UNL     1       3.172   6.366  19.262  0.00  0.00    +0.000 A 
ATOM      8  C   UNL     1       3.858   5.622  18.284  0.00  0.00    +0.000 A 
ATOM      9  S   UNL     1       5.160   6.176  17.310  0.00  0.00    +0.000 S 
ENDROOT
BRANCH   4  10
ATOM     10  N   UNL     1       2.113   2.353  18.492  0.00  0.00    +0.000 N 
ATOM     11  O   UNL     1       2.991   1.488  18.609  0.00  0.00    +0.000 OA
ATOM     12  O   UNL     1       0.939   2.134  18.150  0.00  0.00    +0.000 OA
ENDBRANCH   4  10
BRANCH   5  13
ATOM     13  N   UNL     1       0.831   3.852  20.633  0.00  0.00    +0.000 N 
ATOM     14  H   UNL     1       0.008   3.444  20.184  0.00  0.00    +0.000 HD
ATOM     15  H   UNL     1       0.566   4.434  21.423  0.00  0.00    +0.000 HD
ENDBRANCH   5  13
BRANCH   1  16
ATOM     16  C   UNL     1       6.282   4.547  15.438  0.00  0.00    +0.000 C 
ATOM     17  O   UNL     1       7.490   4.710  15.532  0.00  0.00    +0.000 OA
BRANCH  16  18
ATOM     18  O   UNL     1       5.626   4.312  14.264  0.00  0.00    +0.000 OA
BRANCH  18  20
ATOM     19  C   UNL     1       5.581   3.191  12.159  0.00  0.00    +0.000 C 
ATOM     20  C   UNL     1       6.461   3.902  13.173  0.00  0.00    +0.000 C 
ENDBRANCH  18  20
ENDBRANCH  16  18
ENDBRANCH   1  16
TORSDOF 5
ENDMDL
MODEL 8
REMARK VINA RESULT:      -6.6      1.602      2.169
REMARK  Name = 
REMARK  6 active torsions:
REMARK  status: ('A' for Active; 'I' for Inactive)
REMARK    1  A    between atoms: C_1  and  C_2
REMARK    2  A    between atoms: C_2  and  O_3
REMARK    3  A    between atoms: O_3  and  C_4
REMARK    4  A    between atoms: C_4  and  C_6
REMARK    5  A    between atoms: C_9  and  N_10
REMARK    6  A    between atoms: C_13  and  N_14
REMARK                            x       y       z     vdW  Elec       q    Type
REMARK                         _______ _______ _______ _____ _____    ______ ____
ROOT
ATOM      1  C   UNL     1       5.366   4.973  15.878  0.00  0.00    +0.000 A 
ATOM      2  C   UNL     1       4.599   4.057  16.571  0.00  0.00    +0.000 A 
ATOM      3  C   UNL     1       3.768   4.649  17.588  0.00  0.00    +0.000 A 
ATOM      4  C   UNL     1       2.846   4.109  18.531  0.00  0.00    +0.000 A 
ATOM      5  C   UNL     1       2.105   4.898  19.433  0.00  0.00    +0.000 A 
ATOM      6  C   UNL     1       2.353   6.269  19.426  0.00  0.00    +0.000 A 
ATOM      7  C   UNL     1       3.235   6.854  18.510  0.00  0.00    +0.000 A 
ATOM      8  C   UNL     1       3.939   6.035  17.609  0.00  0.00    +0.000 A 
ATOM      9  S   UNL     1       5.086   6.557  16.441  0.00  0.00    +0.000 S 
ENDROOT
BRANCH   4  10
ATOM     10  N   UNL     1       2.648   2.674  18.509  0.00  0.00    +0.000 N 
ATOM     11  O   UNL     1       1.757   2.223  17.777  0.00  0.00    +0.000 OA
ATOM     12  O   UNL     1       3.392   1.989  19.230  0.00  0.00    +0.000 OA
ENDBRANCH   4  10
BRANCH   5  13
ATOM     13  N   UNL     1       1.340   4.365  20.484  0.00  0.00    +0.000 N 
ATOM     14  H   UNL     1       0.824   3.515  20.247  0.00  0.00    +0.000 HD
ATOM     15  H   UNL     1       0.739   5.038  20.954  0.00  0.00    +0.000 HD
ENDBRANCH   5  13
BRANCH   1  16
ATOM     16  C   UNL     1       6.272   4.766  14.766  0.00  0.00    +0.000 C 
ATOM     17  O   UNL     1       7.402   5.219  14.654  0.00  0.00    +0.000 OA
BRANCH  16  18
ATOM     18  O   UNL     1       5.623   4.065  13.791  0.00  0.00    +0.000 OA
BRANCH  18  20
ATOM     19  C   UNL     1       5.603   2.757  11.796  0.00  0.00    +0.000 C 
ATOM     20  C   UNL     1       6.444   3.652  12.691  0.00  0.00    +0.000 C 
ENDBRANCH  18  20
ENDBRANCH  16  18
ENDBRANCH   1  16
TORSDOF 5
ENDMDL
MODEL 9
REMARK VINA RESULT:      -6.6      1.607      2.359
REMARK  Name = 
REMARK  6 active torsions:
REMARK  status: ('A' for Active; 'I' for Inactive)
REMARK    1  A    between atoms: C_1  and  C_2
REMARK    2  A    between atoms: C_2  and  O_3
REMARK    3  A    between atoms: O_3  and  C_4
REMARK    4  A    between atoms: C_4  and  C_6
REMARK    5  A    between atoms: C_9  and  N_10
REMARK    6  A    between atoms: C_13  and  N_14
REMARK                            x       y       z     vdW  Elec       q    Type
REMARK                         _______ _______ _______ _____ _____    ______ ____
ROOT
ATOM      1  C   UNL     1       5.853   5.335  17.088  0.00  0.00    +0.000 A 
ATOM      2  C   UNL     1       5.525   4.178  17.768  0.00  0.00    +0.000 A 
ATOM      3  C   UNL     1       4.258   4.244  18.449  0.00  0.00    +0.000 A 
ATOM      4  C   UNL     1       3.537   3.322  19.261  0.00  0.00    +0.000 A 
ATOM      5  C   UNL     1       2.268   3.597  19.812  0.00  0.00    +0.000 A 
ATOM      6  C   UNL     1       1.744   4.869  19.589  0.00  0.00    +0.000 A 
ATOM      7  C   UNL     1       2.403   5.807  18.785  0.00  0.00    +0.000 A 
ATOM      8  C   UNL     1       3.656   5.486  18.233  0.00  0.00    +0.000 A 
ATOM      9  S   UNL     1       4.631   6.510  17.258  0.00  0.00    +0.000 S 
ENDROOT
BRANCH   4  10
ATOM     10  N   UNL     1       4.143   2.024  19.479  0.00  0.00    +0.000 N 
ATOM     11  O   UNL     1       3.841   1.106  18.704  0.00  0.00    +0.000 OA
ATOM     12  O   UNL     1       4.930   1.921  20.433  0.00  0.00    +0.000 OA
ENDBRANCH   4  10
BRANCH   5  13
ATOM     13  N   UNL     1       1.638   2.774  20.759  0.00  0.00    +0.000 N 
ATOM     14  H   UNL     1       0.830   3.196  21.221  0.00  0.00    +0.000 HD
ATOM     15  H   UNL     1       2.267   2.351  21.437  0.00  0.00    +0.000 HD
ENDBRANCH   5  13
BRANCH   1  16
ATOM     16  C   UNL     1       7.005   5.624  16.258  0.00  0.00    +0.000 C 
ATOM     17  O   UNL     1       7.583   4.841  15.518  0.00  0.00    +0.000 OA
BRANCH  16  18
ATOM     18  O   UNL     1       7.426   6.897  16.513  0.00  0.00    +0.000 OA
BRANCH  18  20
ATOM     19  C   UNL     1       8.156   8.621  17.991  0.00  0.00    +0.000 C 
ATOM     20  C   UNL     1       7.836   7.141  17.864  0.00  0.00    +0.000 C 
ENDBRANCH  18  20
ENDBRANCH  16  18
ENDBRANCH   1  16
TORSDOF 5
ENDMDL
