MODEL 1
REMARK VINA RESULT:      -7.8      0.000      0.000
REMARK  Name = 
REMARK  5 active torsions:
REMARK  status: ('A' for Active; 'I' for Inactive)
REMARK    1  A    between atoms: C_2  and  C_3
REMARK    2  A    between atoms: C_3  and  C_4
REMARK    3  A    between atoms: C_7  and  O_8
REMARK    4  A    between atoms: O_8  and  C_9
REMARK    5  A    between atoms: C_18  and  C_19
REMARK                            x       y       z     vdW  Elec       q    Type
REMARK                         _______ _______ _______ _____ _____    ______ ____
ROOT
ATOM      1  O   UNL     1       6.814   4.857  15.319  0.00  0.00    +0.000 OA
ATOM      2  C   UNL     1       7.073   5.422  16.388  0.00  0.00    +0.000 C 
ATOM      3  N   UNL     1       7.384   6.749  16.349  0.00  0.00    +0.000 N 
ATOM      4  C   UNL     1       7.858   7.536  17.375  0.00  0.00    +0.000 A 
ATOM      5  C   UNL     1       7.942   8.951  17.327  0.00  0.00    +0.000 A 
ATOM      6  C   UNL     1       8.492   9.311  18.532  0.00  0.00    +0.000 A 
ATOM      7  N   UNL     1       8.729   8.148  19.197  0.00  0.00    +0.000 N 
ATOM      8  N   UNL     1       8.347   7.063  18.518  0.00  0.00    +0.000 NA
ATOM      9  H   UNL     1       7.269   7.183  15.447  0.00  0.00    +0.000 HD
ATOM     10  H   UNL     1       9.143   8.027  20.114  0.00  0.00    +0.000 HD
ENDROOT
BRANCH   6  11
ATOM     11  C   UNL     1       8.791  10.707  19.018  0.00  0.00    +0.000 C 
ATOM     12  C   UNL     1       9.899  10.898  20.034  0.00  0.00    +0.000 C 
ATOM     13  C   UNL     1      10.121  11.317  18.620  0.00  0.00    +0.000 C 
ENDBRANCH   6  11
BRANCH   2  14
ATOM     14  C   UNL     1       6.922   4.678  17.710  0.00  0.00    +0.000 C 
BRANCH  14  15
ATOM     15  C   UNL     1       5.476   4.485  18.125  0.00  0.00    +0.000 A 
ATOM     16  C   UNL     1       4.987   5.049  19.314  0.00  0.00    +0.000 A 
ATOM     17  C   UNL     1       3.647   4.892  19.672  0.00  0.00    +0.000 A 
ATOM     18  C   UNL     1       2.762   4.203  18.841  0.00  0.00    +0.000 A 
ATOM     19  C   UNL     1       3.247   3.611  17.677  0.00  0.00    +0.000 A 
ATOM     20  C   UNL     1       4.589   3.771  17.312  0.00  0.00    +0.000 A 
BRANCH  18  21
ATOM     21  O   UNL     1       1.486   4.121  19.309  0.00  0.00    +0.000 OA
BRANCH  21  22
ATOM     22  C   UNL     1       1.039   2.916  19.914  0.00  0.00    +0.000 C 
ATOM     23  F   UNL     1       0.549   3.058  21.163  0.00  0.00    +0.000 F 
ATOM     24  F   UNL     1       0.081   2.363  19.136  0.00  0.00    +0.000 F 
ATOM     25  F   UNL     1       2.079   2.053  19.973  0.00  0.00    +0.000 F 
ENDBRANCH  21  22
ENDBRANCH  18  21
ENDBRANCH  14  15
ENDBRANCH   2  14
TORSDOF 5
ENDMDL
MODEL 2
REMARK VINA RESULT:      -7.8      2.775      5.267
REMARK  Name = 
REMARK  5 active torsions:
REMARK  status: ('A' for Active; 'I' for Inactive)
REMARK    1  A    between atoms: C_2  and  C_3
REMARK    2  A    between atoms: C_3  and  C_4
REMARK    3  A    between atoms: C_7  and  O_8
REMARK    4  A    between atoms: O_8  and  C_9
REMARK    5  A    between atoms: C_18  and  C_19
REMARK                            x       y       z     vdW  Elec       q    Type
REMARK                         _______ _______ _______ _____ _____    ______ ____
ROOT
ATOM      1  O   UNL     1       7.756   7.248  17.895  0.00  0.00    +0.000 OA
ATOM      2  C   UNL     1       7.433   6.186  17.349  0.00  0.00    +0.000 C 
ATOM      3  N   UNL     1       7.420   6.148  15.986  0.00  0.00    +0.000 N 
ATOM      4  C   UNL     1       6.946   5.142  15.174  0.00  0.00    +0.000 A 
ATOM      5  C   UNL     1       7.171   5.068  13.776  0.00  0.00    +0.000 A 
ATOM      6  C   UNL     1       6.503   3.939  13.372  0.00  0.00    +0.000 A 
ATOM      7  N   UNL     1       5.910   3.436  14.489  0.00  0.00    +0.000 N 
ATOM      8  N   UNL     1       6.171   4.145  15.591  0.00  0.00    +0.000 NA
ATOM      9  H   UNL     1       7.785   6.973  15.538  0.00  0.00    +0.000 HD
ATOM     10  H   UNL     1       5.322   2.615  14.567  0.00  0.00    +0.000 HD
ENDROOT
BRANCH   6  11
ATOM     11  C   UNL     1       6.421   3.376  11.975  0.00  0.00    +0.000 C 
ATOM     12  C   UNL     1       5.925   1.957  11.795  0.00  0.00    +0.000 C 
ATOM     13  C   UNL     1       5.041   3.096  11.413  0.00  0.00    +0.000 C 
ENDBRANCH   6  11
BRANCH   2  14
ATOM     14  C   UNL     1       7.184   4.936  18.183  0.00  0.00    +0.000 C 
BRANCH  14  15
ATOM     15  C   UNL     1       5.720   4.717  18.511  0.00  0.00    +0.000 A 
ATOM     16  C   UNL     1       4.779   5.742  18.323  0.00  0.00    +0.000 A 
ATOM     17  C   UNL     1       3.428   5.523  18.597  0.00  0.00    +0.000 A 
ATOM     18  C   UNL     1       2.983   4.273  19.031  0.00  0.00    +0.000 A 
ATOM     19  C   UNL     1       3.914   3.261  19.252  0.00  0.00    +0.000 A 
ATOM     20  C   UNL     1       5.269   3.476  18.974  0.00  0.00    +0.000 A 
BRANCH  18  21
ATOM     21  O   UNL     1       1.644   4.194  19.264  0.00  0.00    +0.000 OA
BRANCH  21  22
ATOM     22  C   UNL     1       1.160   4.276  20.597  0.00  0.00    +0.000 C 
ATOM     23  F   UNL     1       0.026   4.992  20.744  0.00  0.00    +0.000 F 
ATOM     24  F   UNL     1       0.945   3.027  21.065  0.00  0.00    +0.000 F 
ATOM     25  F   UNL     1       2.114   4.851  21.366  0.00  0.00    +0.000 F 
ENDBRANCH  21  22
ENDBRANCH  18  21
ENDBRANCH  14  15
ENDBRANCH   2  14
TORSDOF 5
ENDMDL
MODEL 3
REMARK VINA RESULT:      -7.7      5.103      6.800
REMARK  Name = 
REMARK  5 active torsions:
REMARK  status: ('A' for Active; 'I' for Inactive)
REMARK    1  A    between atoms: C_2  and  C_3
REMARK    2  A    between atoms: C_3  and  C_4
REMARK    3  A    between atoms: C_7  and  O_8
REMARK    4  A    between atoms: O_8  and  C_9
REMARK    5  A    between atoms: C_18  and  C_19
REMARK                            x       y       z     vdW  Elec       q    Type
REMARK                         _______ _______ _______ _____ _____    ______ ____
ROOT
ATOM      1  O   UNL     1       0.862   4.153  20.088  0.00  0.00    +0.000 OA
ATOM      2  C   UNL     1       1.956   4.555  19.674  0.00  0.00    +0.000 C 
ATOM      3  N   UNL     1       2.459   3.984  18.543  0.00  0.00    +0.000 N 
ATOM      4  C   UNL     1       3.712   4.152  17.996  0.00  0.00    +0.000 A 
ATOM      5  C   UNL     1       4.088   3.711  16.703  0.00  0.00    +0.000 A 
ATOM      6  C   UNL     1       5.412   4.053  16.586  0.00  0.00    +0.000 A 
ATOM      7  N   UNL     1       5.756   4.626  17.772  0.00  0.00    +0.000 N 
ATOM      8  N   UNL     1       4.741   4.701  18.637  0.00  0.00    +0.000 NA
ATOM      9  H   UNL     1       1.832   3.347  18.077  0.00  0.00    +0.000 HD
ATOM     10  H   UNL     1       6.660   4.987  18.051  0.00  0.00    +0.000 HD
ENDROOT
BRANCH   6  11
ATOM     11  C   UNL     1       6.313   3.828  15.397  0.00  0.00    +0.000 C 
ATOM     12  C   UNL     1       5.736   4.009  14.008  0.00  0.00    +0.000 C 
ATOM     13  C   UNL     1       6.672   5.035  14.552  0.00  0.00    +0.000 C 
ENDBRANCH   6  11
BRANCH   2  14
ATOM     14  C   UNL     1       2.647   5.736  20.344  0.00  0.00    +0.000 C 
BRANCH  14  15
ATOM     15  C   UNL     1       2.100   7.079  19.899  0.00  0.00    +0.000 A 
ATOM     16  C   UNL     1       1.361   7.884  20.781  0.00  0.00    +0.000 A 
ATOM     17  C   UNL     1       0.889   9.132  20.373  0.00  0.00    +0.000 A 
ATOM     18  C   UNL     1       1.170   9.619  19.095  0.00  0.00    +0.000 A 
ATOM     19  C   UNL     1       1.874   8.813  18.203  0.00  0.00    +0.000 A 
ATOM     20  C   UNL     1       2.353   7.562  18.611  0.00  0.00    +0.000 A 
BRANCH  18  21
ATOM     21  O   UNL     1       0.649  10.847  18.824  0.00  0.00    +0.000 OA
BRANCH  21  22
ATOM     22  C   UNL     1      -0.726  10.965  18.491  0.00  0.00    +0.000 C 
ATOM     23  F   UNL     1      -1.573  10.851  19.534  0.00  0.00    +0.000 F 
ATOM     24  F   UNL     1      -0.933  12.161  17.897  0.00  0.00    +0.000 F 
ATOM     25  F   UNL     1      -1.037   9.996  17.598  0.00  0.00    +0.000 F 
ENDBRANCH  21  22
ENDBRANCH  18  21
ENDBRANCH  14  15
ENDBRANCH   2  14
TORSDOF 5
ENDMDL
MODEL 4
REMARK VINA RESULT:      -7.7      1.678      2.359
REMARK  Name = 
REMARK  5 active torsions:
REMARK  status: ('A' for Active; 'I' for Inactive)
REMARK    1  A    between atoms: C_2  and  C_3
REMARK    2  A    between atoms: C_3  and  C_4
REMARK    3  A    between atoms: C_7  and  O_8
REMARK    4  A    between atoms: O_8  and  C_9
REMARK    5  A    between atoms: C_18  and  C_19
REMARK                            x       y       z     vdW  Elec       q    Type
REMARK                         _______ _______ _______ _____ _____    ______ ____
ROOT
ATOM      1  O   UNL     1       7.801   5.168  19.347  0.00  0.00    +0.000 OA
ATOM      2  C   UNL     1       7.777   6.196  18.659  0.00  0.00    +0.000 C 
ATOM      3  N   UNL     1       8.476   7.278  19.105  0.00  0.00    +0.000 N 
ATOM      4  C   UNL     1       8.463   8.559  18.599  0.00  0.00    +0.000 A 
ATOM      5  C   UNL     1       9.381   9.575  18.965  0.00  0.00    +0.000 A 
ATOM      6  C   UNL     1       8.986  10.680  18.253  0.00  0.00    +0.000 A 
ATOM      7  N   UNL     1       7.883  10.299  17.554  0.00  0.00    +0.000 N 
ATOM      8  N   UNL     1       7.553   9.018  17.744  0.00  0.00    +0.000 NA
ATOM      9  H   UNL     1       9.046   7.107  19.917  0.00  0.00    +0.000 HD
ATOM     10  H   UNL     1       7.314  10.859  16.930  0.00  0.00    +0.000 HD
ENDROOT
BRANCH   6  11
ATOM     11  C   UNL     1       9.627  12.045  18.254  0.00  0.00    +0.000 C 
ATOM     12  C   UNL     1      10.920  12.237  19.020  0.00  0.00    +0.000 C 
ATOM     13  C   UNL     1      10.950  12.197  17.530  0.00  0.00    +0.000 C 
ENDBRANCH   6  11
BRANCH   2  14
ATOM     14  C   UNL     1       7.090   6.196  17.299  0.00  0.00    +0.000 C 
BRANCH  14  15
ATOM     15  C   UNL     1       5.709   5.571  17.326  0.00  0.00    +0.000 A 
ATOM     16  C   UNL     1       5.499   4.268  16.845  0.00  0.00    +0.000 A 
ATOM     17  C   UNL     1       4.230   3.689  16.903  0.00  0.00    +0.000 A 
ATOM     18  C   UNL     1       3.156   4.377  17.470  0.00  0.00    +0.000 A 
ATOM     19  C   UNL     1       3.349   5.682  17.918  0.00  0.00    +0.000 A 
ATOM     20  C   UNL     1       4.621   6.264  17.866  0.00  0.00    +0.000 A 
BRANCH  18  21
ATOM     21  O   UNL     1       1.976   3.700  17.461  0.00  0.00    +0.000 OA
BRANCH  21  22
ATOM     22  C   UNL     1       1.686   2.787  18.510  0.00  0.00    +0.000 C 
ATOM     23  F   UNL     1       2.442   1.670  18.511  0.00  0.00    +0.000 F 
ATOM     24  F   UNL     1       1.843   3.415  19.696  0.00  0.00    +0.000 F 
ATOM     25  F   UNL     1       0.391   2.409  18.406  0.00  0.00    +0.000 F 
ENDBRANCH  21  22
ENDBRANCH  18  21
ENDBRANCH  14  15
ENDBRANCH   2  14
TORSDOF 5
ENDMDL
MODEL 5
REMARK VINA RESULT:      -7.6      5.095      6.756
REMARK  Name = 
REMARK  5 active torsions:
REMARK  status: ('A' for Active; 'I' for Inactive)
REMARK    1  A    between atoms: C_2  and  C_3
REMARK    2  A    between atoms: C_3  and  C_4
REMARK    3  A    between atoms: C_7  and  O_8
REMARK    4  A    between atoms: O_8  and  C_9
REMARK    5  A    between atoms: C_18  and  C_19
REMARK                            x       y       z     vdW  Elec       q    Type
REMARK                         _______ _______ _______ _____ _____    ______ ____
ROOT
ATOM      1  O   UNL     1       0.802   3.824  19.821  0.00  0.00    +0.000 OA
ATOM      2  C   UNL     1       1.927   4.227  19.504  0.00  0.00    +0.000 C 
ATOM      3  N   UNL     1       2.465   3.765  18.339  0.00  0.00    +0.000 N 
ATOM      4  C   UNL     1       3.747   3.945  17.871  0.00  0.00    +0.000 A 
ATOM      5  C   UNL     1       4.171   3.635  16.553  0.00  0.00    +0.000 A 
ATOM      6  C   UNL     1       5.510   3.937  16.534  0.00  0.00    +0.000 A 
ATOM      7  N   UNL     1       5.815   4.361  17.791  0.00  0.00    +0.000 N 
ATOM      8  N   UNL     1       4.762   4.379  18.613  0.00  0.00    +0.000 NA
ATOM      9  H   UNL     1       1.840   3.209  17.777  0.00  0.00    +0.000 HD
ATOM     10  H   UNL     1       6.716   4.654  18.148  0.00  0.00    +0.000 HD
ENDROOT
BRANCH   6  11
ATOM     11  C   UNL     1       6.458   3.810  15.369  0.00  0.00    +0.000 C 
ATOM     12  C   UNL     1       5.889   3.844  13.965  0.00  0.00    +0.000 C 
ATOM     13  C   UNL     1       6.640   5.025  14.479  0.00  0.00    +0.000 C 
ENDBRANCH   6  11
BRANCH   2  14
ATOM     14  C   UNL     1       2.624   5.299  20.332  0.00  0.00    +0.000 C 
BRANCH  14  15
ATOM     15  C   UNL     1       2.173   6.706  19.990  0.00  0.00    +0.000 A 
ATOM     16  C   UNL     1       2.444   7.262  18.729  0.00  0.00    +0.000 A 
ATOM     17  C   UNL     1       1.998   8.546  18.411  0.00  0.00    +0.000 A 
ATOM     18  C   UNL     1       1.247   9.287  19.325  0.00  0.00    +0.000 A 
ATOM     19  C   UNL     1       1.002   8.756  20.589  0.00  0.00    +0.000 A 
ATOM     20  C   UNL     1       1.444   7.467  20.910  0.00  0.00    +0.000 A 
BRANCH  18  21
ATOM     21  O   UNL     1       0.877  10.523  18.890  0.00  0.00    +0.000 OA
BRANCH  21  22
ATOM     22  C   UNL     1      -0.458  10.742  18.457  0.00  0.00    +0.000 C 
ATOM     23  F   UNL     1      -0.723  12.002  18.055  0.00  0.00    +0.000 F 
ATOM     24  F   UNL     1      -0.734   9.897  17.439  0.00  0.00    +0.000 F 
ATOM     25  F   UNL     1      -1.295  10.450  19.479  0.00  0.00    +0.000 F 
ENDBRANCH  21  22
ENDBRANCH  18  21
ENDBRANCH  14  15
ENDBRANCH   2  14
TORSDOF 5
ENDMDL
MODEL 6
REMARK VINA RESULT:      -7.6      2.801      5.324
REMARK  Name = 
REMARK  5 active torsions:
REMARK  status: ('A' for Active; 'I' for Inactive)
REMARK    1  A    between atoms: C_2  and  C_3
REMARK    2  A    between atoms: C_3  and  C_4
REMARK    3  A    between atoms: C_7  and  O_8
REMARK    4  A    between atoms: O_8  and  C_9
REMARK    5  A    between atoms: C_18  and  C_19
REMARK                            x       y       z     vdW  Elec       q    Type
REMARK                         _______ _______ _______ _____ _____    ______ ____
ROOT
ATOM      1  O   UNL     1       7.577   6.959  17.636  0.00  0.00    +0.000 OA
ATOM      2  C   UNL     1       7.301   5.904  17.054  0.00  0.00    +0.000 C 
ATOM      3  N   UNL     1       7.336   5.899  15.691  0.00  0.00    +0.000 N 
ATOM      4  C   UNL     1       6.916   4.902  14.839  0.00  0.00    +0.000 A 
ATOM      5  C   UNL     1       7.192   4.867  13.449  0.00  0.00    +0.000 A 
ATOM      6  C   UNL     1       6.566   3.733  12.995  0.00  0.00    +0.000 A 
ATOM      7  N   UNL     1       5.948   3.188  14.077  0.00  0.00    +0.000 N 
ATOM      8  N   UNL     1       6.152   3.876  15.204  0.00  0.00    +0.000 NA
ATOM      9  H   UNL     1       7.695   6.743  15.275  0.00  0.00    +0.000 HD
ATOM     10  H   UNL     1       5.379   2.351  14.115  0.00  0.00    +0.000 HD
ENDROOT
BRANCH   6  11
ATOM     11  C   UNL     1       6.547   3.203  11.583  0.00  0.00    +0.000 C 
ATOM     12  C   UNL     1       7.204   1.866  11.303  0.00  0.00    +0.000 C 
ATOM     13  C   UNL     1       5.716   1.964  11.311  0.00  0.00    +0.000 C 
ENDBRANCH   6  11
BRANCH   2  14
ATOM     14  C   UNL     1       7.055   4.627  17.849  0.00  0.00    +0.000 C 
BRANCH  14  15
ATOM     15  C   UNL     1       5.611   4.464  18.287  0.00  0.00    +0.000 A 
ATOM     16  C   UNL     1       5.083   5.242  19.329  0.00  0.00    +0.000 A 
ATOM     17  C   UNL     1       3.746   5.108  19.705  0.00  0.00    +0.000 A 
ATOM     18  C   UNL     1       2.900   4.225  19.030  0.00  0.00    +0.000 A 
ATOM     19  C   UNL     1       3.425   3.425  18.018  0.00  0.00    +0.000 A 
ATOM     20  C   UNL     1       4.765   3.561  17.636  0.00  0.00    +0.000 A 
BRANCH  18  21
ATOM     21  O   UNL     1       1.622   4.189  19.497  0.00  0.00    +0.000 OA
BRANCH  21  22
ATOM     22  C   UNL     1       1.143   3.014  20.135  0.00  0.00    +0.000 C 
ATOM     23  F   UNL     1       0.807   3.170  21.431  0.00  0.00    +0.000 F 
ATOM     24  F   UNL     1       0.063   2.558  19.461  0.00  0.00    +0.000 F 
ATOM     25  F   UNL     1       2.106   2.065  20.069  0.00  0.00    +0.000 F 
ENDBRANCH  21  22
ENDBRANCH  18  21
ENDBRANCH  14  15
ENDBRANCH   2  14
TORSDOF 5
ENDMDL
MODEL 7
REMARK VINA RESULT:      -7.6      1.651      2.127
REMARK  Name = 
REMARK  5 active torsions:
REMARK  status: ('A' for Active; 'I' for Inactive)
REMARK    1  A    between atoms: C_2  and  C_3
REMARK    2  A    between atoms: C_3  and  C_4
REMARK    3  A    between atoms: C_7  and  O_8
REMARK    4  A    between atoms: O_8  and  C_9
REMARK    5  A    between atoms: C_18  and  C_19
REMARK                            x       y       z     vdW  Elec       q    Type
REMARK                         _______ _______ _______ _____ _____    ______ ____
ROOT
ATOM      1  O   UNL     1       7.742   5.129  19.353  0.00  0.00    +0.000 OA
ATOM      2  C   UNL     1       7.710   6.153  18.661  0.00  0.00    +0.000 C 
ATOM      3  N   UNL     1       8.435   7.229  19.080  0.00  0.00    +0.000 N 
ATOM      4  C   UNL     1       8.423   8.507  18.568  0.00  0.00    +0.000 A 
ATOM      5  C   UNL     1       9.365   9.513  18.900  0.00  0.00    +0.000 A 
ATOM      6  C   UNL     1       8.961  10.620  18.195  0.00  0.00    +0.000 A 
ATOM      7  N   UNL     1       7.832  10.249  17.533  0.00  0.00    +0.000 N 
ATOM      8  N   UNL     1       7.492   8.974  17.739  0.00  0.00    +0.000 NA
ATOM      9  H   UNL     1       9.029   7.054  19.875  0.00  0.00    +0.000 HD
ATOM     10  H   UNL     1       7.251  10.815  16.925  0.00  0.00    +0.000 HD
ENDROOT
BRANCH   6  11
ATOM     11  C   UNL     1       9.619  11.977  18.170  0.00  0.00    +0.000 C 
ATOM     12  C   UNL     1      10.810  12.220  19.073  0.00  0.00    +0.000 C 
ATOM     13  C   UNL     1      11.024  12.063  17.606  0.00  0.00    +0.000 C 
ENDBRANCH   6  11
BRANCH   2  14
ATOM     14  C   UNL     1       6.981   6.156  17.323  0.00  0.00    +0.000 C 
BRANCH  14  15
ATOM     15  C   UNL     1       5.617   5.496  17.383  0.00  0.00    +0.000 A 
ATOM     16  C   UNL     1       4.503   6.190  17.882  0.00  0.00    +0.000 A 
ATOM     17  C   UNL     1       3.245   5.585  17.905  0.00  0.00    +0.000 A 
ATOM     18  C   UNL     1       3.064   4.295  17.403  0.00  0.00    +0.000 A 
ATOM     19  C   UNL     1       4.170   3.588  16.938  0.00  0.00    +0.000 A 
ATOM     20  C   UNL     1       5.432   4.193  16.909  0.00  0.00    +0.000 A 
BRANCH  18  21
ATOM     21  O   UNL     1       1.790   3.824  17.487  0.00  0.00    +0.000 OA
BRANCH  21  22
ATOM     22  C   UNL     1       1.349   3.210  18.690  0.00  0.00    +0.000 C 
ATOM     23  F   UNL     1       0.414   2.252  18.526  0.00  0.00    +0.000 F 
ATOM     24  F   UNL     1       2.414   2.670  19.323  0.00  0.00    +0.000 F 
ATOM     25  F   UNL     1       0.826   4.165  19.493  0.00  0.00    +0.000 F 
ENDBRANCH  21  22
ENDBRANCH  18  21
ENDBRANCH  14  15
ENDBRANCH   2  14
TORSDOF 5
ENDMDL
MODEL 8
REMARK VINA RESULT:      -7.6      0.307      1.318
REMARK  Name = 
REMARK  5 active torsions:
REMARK  status: ('A' for Active; 'I' for Inactive)
REMARK    1  A    between atoms: C_2  and  C_3
REMARK    2  A    between atoms: C_3  and  C_4
REMARK    3  A    between atoms: C_7  and  O_8
REMARK    4  A    between atoms: O_8  and  C_9
REMARK    5  A    between atoms: C_18  and  C_19
REMARK                            x       y       z     vdW  Elec       q    Type
REMARK                         _______ _______ _______ _____ _____    ______ ____
ROOT
ATOM      1  O   UNL     1       6.671   4.921  15.100  0.00  0.00    +0.000 OA
ATOM      2  C   UNL     1       6.953   5.412  16.200  0.00  0.00    +0.000 C 
ATOM      3  N   UNL     1       7.290   6.733  16.242  0.00  0.00    +0.000 N 
ATOM      4  C   UNL     1       7.791   7.443  17.309  0.00  0.00    +0.000 A 
ATOM      5  C   UNL     1       7.902   8.856  17.351  0.00  0.00    +0.000 A 
ATOM      6  C   UNL     1       8.472   9.128  18.570  0.00  0.00    +0.000 A 
ATOM      7  N   UNL     1       8.695   7.921  19.156  0.00  0.00    +0.000 N 
ATOM      8  N   UNL     1       8.284   6.889  18.414  0.00  0.00    +0.000 NA
ATOM      9  H   UNL     1       7.173   7.226  15.371  0.00  0.00    +0.000 HD
ATOM     10  H   UNL     1       9.116   7.733  20.058  0.00  0.00    +0.000 HD
ENDROOT
BRANCH   6  11
ATOM     11  C   UNL     1       8.805  10.484  19.140  0.00  0.00    +0.000 C 
ATOM     12  C   UNL     1      10.232  10.982  19.038  0.00  0.00    +0.000 C 
ATOM     13  C   UNL     1       9.182  11.581  18.163  0.00  0.00    +0.000 C 
ENDBRANCH   6  11
BRANCH   2  14
ATOM     14  C   UNL     1       6.802   4.588  17.472  0.00  0.00    +0.000 C 
BRANCH  14  15
ATOM     15  C   UNL     1       5.369   4.500  17.962  0.00  0.00    +0.000 A 
ATOM     16  C   UNL     1       4.402   3.790  17.233  0.00  0.00    +0.000 A 
ATOM     17  C   UNL     1       3.093   3.688  17.707  0.00  0.00    +0.000 A 
ATOM     18  C   UNL     1       2.730   4.260  18.927  0.00  0.00    +0.000 A 
ATOM     19  C   UNL     1       3.674   4.995  19.639  0.00  0.00    +0.000 A 
ATOM     20  C   UNL     1       4.989   5.095  19.169  0.00  0.00    +0.000 A 
BRANCH  18  21
ATOM     21  O   UNL     1       1.423   4.089  19.271  0.00  0.00    +0.000 OA
BRANCH  21  22
ATOM     22  C   UNL     1       1.030   2.911  19.960  0.00  0.00    +0.000 C 
ATOM     23  F   UNL     1       2.020   2.018  20.165  0.00  0.00    +0.000 F 
ATOM     24  F   UNL     1       0.507   3.257  21.158  0.00  0.00    +0.000 F 
ATOM     25  F   UNL     1       0.061   2.296  19.243  0.00  0.00    +0.000 F 
ENDBRANCH  21  22
ENDBRANCH  18  21
ENDBRANCH  14  15
ENDBRANCH   2  14
TORSDOF 5
ENDMDL
MODEL 9
REMARK VINA RESULT:      -7.6      2.853      5.367
REMARK  Name = 
REMARK  5 active torsions:
REMARK  status: ('A' for Active; 'I' for Inactive)
REMARK    1  A    between atoms: C_2  and  C_3
REMARK    2  A    between atoms: C_3  and  C_4
REMARK    3  A    between atoms: C_7  and  O_8
REMARK    4  A    between atoms: O_8  and  C_9
REMARK    5  A    between atoms: C_18  and  C_19
REMARK                            x       y       z     vdW  Elec       q    Type
REMARK                         _______ _______ _______ _____ _____    ______ ____
ROOT
ATOM      1  O   UNL     1       7.549   7.205  17.874  0.00  0.00    +0.000 OA
ATOM      2  C   UNL     1       7.322   6.127  17.311  0.00  0.00    +0.000 C 
ATOM      3  N   UNL     1       7.216   6.127  15.952  0.00  0.00    +0.000 N 
ATOM      4  C   UNL     1       6.812   5.094  15.136  0.00  0.00    +0.000 A 
ATOM      5  C   UNL     1       6.944   5.088  13.725  0.00  0.00    +0.000 A 
ATOM      6  C   UNL     1       6.392   3.897  13.325  0.00  0.00    +0.000 A 
ATOM      7  N   UNL     1       5.948   3.291  14.459  0.00  0.00    +0.000 N 
ATOM      8  N   UNL     1       6.198   3.995  15.567  0.00  0.00    +0.000 NA
ATOM      9  H   UNL     1       7.442   7.004  15.511  0.00  0.00    +0.000 HD
ATOM     10  H   UNL     1       5.473   2.401  14.546  0.00  0.00    +0.000 HD
ENDROOT
BRANCH   6  11
ATOM     11  C   UNL     1       6.280   3.369  11.916  0.00  0.00    +0.000 C 
ATOM     12  C   UNL     1       5.815   1.942  11.713  0.00  0.00    +0.000 C 
ATOM     13  C   UNL     1       4.891   3.066  11.390  0.00  0.00    +0.000 C 
ENDBRANCH   6  11
BRANCH   2  14
ATOM     14  C   UNL     1       7.290   4.832  18.113  0.00  0.00    +0.000 C 
BRANCH  14  15
ATOM     15  C   UNL     1       5.936   4.548  18.737  0.00  0.00    +0.000 A 
ATOM     16  C   UNL     1       5.495   3.229  18.930  0.00  0.00    +0.000 A 
ATOM     17  C   UNL     1       4.262   2.976  19.533  0.00  0.00    +0.000 A 
ATOM     18  C   UNL     1       3.461   4.026  19.986  0.00  0.00    +0.000 A 
ATOM     19  C   UNL     1       3.876   5.338  19.768  0.00  0.00    +0.000 A 
ATOM     20  C   UNL     1       5.115   5.594  19.167  0.00  0.00    +0.000 A 
BRANCH  18  21
ATOM     21  O   UNL     1       2.285   3.643  20.553  0.00  0.00    +0.000 OA
BRANCH  21  22
ATOM     22  C   UNL     1       1.061   4.133  20.024  0.00  0.00    +0.000 C 
ATOM     23  F   UNL     1       0.624   5.281  20.580  0.00  0.00    +0.000 F 
ATOM     24  F   UNL     1       1.203   4.325  18.693  0.00  0.00    +0.000 F 
ATOM     25  F   UNL     1       0.105   3.193  20.210  0.00  0.00    +0.000 F 
ENDBRANCH  21  22
ENDBRANCH  18  21
ENDBRANCH  14  15
ENDBRANCH   2  14
TORSDOF 5
ENDMDL
