MODEL 1
REMARK VINA RESULT:      -7.6      0.000      0.000
REMARK  Name = 
REMARK  8 active torsions:
REMARK  status: ('A' for Active; 'I' for Inactive)
REMARK    1  A    between atoms: C_1  and  C_2
REMARK    2  A    between atoms: C_2  and  C_3
REMARK    3  A    between atoms: C_2  and  C_4
REMARK    4  A    between atoms: C_4  and  N_5
REMARK    5  A    between atoms: C_9  and  C_10
REMARK    6  A    between atoms: C_10  and  O_11
REMARK    7  A    between atoms: O_11  and  C_12
REMARK    8  A    between atoms: C_12  and  C_14
REMARK                            x       y       z     vdW  Elec       q    Type
REMARK                         _______ _______ _______ _____ _____    ______ ____
ROOT
ATOM      1  C   UNL     1       4.723   3.524  18.665  0.00  0.00    +0.000 C 
ATOM      2  O   UNL     1       5.803   3.657  19.207  0.00  0.00    +0.000 OA
ENDROOT
BRANCH   1   3
ATOM      3  C   UNL     1       3.486   3.734  19.460  0.00  0.00    +0.000 A 
ATOM      4  C   UNL     1       3.098   2.601  20.203  0.00  0.00    +0.000 A 
ATOM      5  C   UNL     1       2.139   2.697  21.204  0.00  0.00    +0.000 A 
ATOM      6  C   UNL     1       1.164   3.667  21.153  0.00  0.00    +0.000 A 
ATOM      7  C   UNL     1       1.580   4.859  20.551  0.00  0.00    +0.000 A 
ATOM      8  C   UNL     1       1.030   6.154  20.662  0.00  0.00    +0.000 A 
ATOM      9  C   UNL     1       2.062   7.018  20.332  0.00  0.00    +0.000 A 
ATOM     10  N   UNL     1       3.103   6.269  19.814  0.00  0.00    +0.000 N 
ATOM     11  C   UNL     1       2.797   4.914  19.840  0.00  0.00    +0.000 A 
ATOM     12  H   UNL     1       4.013   6.661  19.621  0.00  0.00    +0.000 HD
ENDBRANCH   1   3
BRANCH   1  13
ATOM     13  O   UNL     1       4.574   2.970  17.417  0.00  0.00    +0.000 OA
BRANCH  13  14
ATOM     14  C   UNL     1       4.379   4.021  16.429  0.00  0.00    +0.000 C 
BRANCH  14  19
ATOM     15  N   UNL     1       6.420   5.481  15.979  0.00  0.00    +0.000 N 
ATOM     16  N   UNL     1       7.397   5.625  15.050  0.00  0.00    +0.000 NA
ATOM     17  C   UNL     1       7.124   4.622  14.221  0.00  0.00    +0.000 A 
ATOM     18  N   UNL     1       6.076   3.826  14.596  0.00  0.00    +0.000 NA
ATOM     19  C   UNL     1       5.645   4.372  15.721  0.00  0.00    +0.000 A 
BRANCH  15  20
ATOM     20  C   UNL     1       6.319   6.442  17.061  0.00  0.00    +0.000 C 
BRANCH  20  22
ATOM     21  C   UNL     1       7.729   8.474  17.703  0.00  0.00    +0.000 C 
ATOM     22  C   UNL     1       7.671   6.948  17.615  0.00  0.00    +0.000 C 
ATOM     23  C   UNL     1       7.914   6.343  18.999  0.00  0.00    +0.000 C 
ENDBRANCH  20  22
ENDBRANCH  15  20
ENDBRANCH  14  19
ENDBRANCH  13  14
ENDBRANCH   1  13
TORSDOF 6
ENDMDL
MODEL 2
REMARK VINA RESULT:      -7.4      1.981      3.484
REMARK  Name = 
REMARK  8 active torsions:
REMARK  status: ('A' for Active; 'I' for Inactive)
REMARK    1  A    between atoms: C_1  and  C_2
REMARK    2  A    between atoms: C_2  and  C_3
REMARK    3  A    between atoms: C_2  and  C_4
REMARK    4  A    between atoms: C_4  and  N_5
REMARK    5  A    between atoms: C_9  and  C_10
REMARK    6  A    between atoms: C_10  and  O_11
REMARK    7  A    between atoms: O_11  and  C_12
REMARK    8  A    between atoms: C_12  and  C_14
REMARK                            x       y       z     vdW  Elec       q    Type
REMARK                         _______ _______ _______ _____ _____    ______ ____
ROOT
ATOM      1  C   UNL     1       3.210   6.123  18.015  0.00  0.00    +0.000 C 
ATOM      2  O   UNL     1       3.176   7.049  18.803  0.00  0.00    +0.000 OA
ENDROOT
BRANCH   1   3
ATOM      3  C   UNL     1       2.609   4.821  18.404  0.00  0.00    +0.000 A 
ATOM      4  C   UNL     1       2.599   3.875  17.360  0.00  0.00    +0.000 A 
ATOM      5  C   UNL     1       2.333   2.535  17.614  0.00  0.00    +0.000 A 
ATOM      6  C   UNL     1       1.555   2.162  18.685  0.00  0.00    +0.000 A 
ATOM      7  C   UNL     1       1.669   3.011  19.791  0.00  0.00    +0.000 A 
ATOM      8  C   UNL     1       1.358   2.759  21.145  0.00  0.00    +0.000 A 
ATOM      9  C   UNL     1       2.113   3.669  21.868  0.00  0.00    +0.000 A 
ATOM     10  N   UNL     1       2.658   4.579  20.980  0.00  0.00    +0.000 N 
ATOM     11  C   UNL     1       2.317   4.258  19.673  0.00  0.00    +0.000 A 
ATOM     12  H   UNL     1       3.348   5.262  21.255  0.00  0.00    +0.000 HD
ENDBRANCH   1   3
BRANCH   1  13
ATOM     13  O   UNL     1       3.972   6.139  16.872  0.00  0.00    +0.000 OA
BRANCH  13  14
ATOM     14  C   UNL     1       5.176   6.927  17.091  0.00  0.00    +0.000 C 
BRANCH  14  19
ATOM     15  N   UNL     1       7.047   5.301  16.497  0.00  0.00    +0.000 N 
ATOM     16  N   UNL     1       7.947   4.498  17.116  0.00  0.00    +0.000 NA
ATOM     17  C   UNL     1       7.712   4.773  18.396  0.00  0.00    +0.000 A 
ATOM     18  N   UNL     1       6.764   5.734  18.619  0.00  0.00    +0.000 NA
ATOM     19  C   UNL     1       6.359   6.074  17.406  0.00  0.00    +0.000 A 
BRANCH  15  20
ATOM     20  C   UNL     1       6.932   5.258  15.051  0.00  0.00    +0.000 C 
BRANCH  20  22
ATOM     21  C   UNL     1       6.152   3.735  13.153  0.00  0.00    +0.000 C 
ATOM     22  C   UNL     1       5.806   4.347  14.512  0.00  0.00    +0.000 C 
ATOM     23  C   UNL     1       5.525   3.231  15.522  0.00  0.00    +0.000 C 
ENDBRANCH  20  22
ENDBRANCH  15  20
ENDBRANCH  14  19
ENDBRANCH  13  14
ENDBRANCH   1  13
TORSDOF 6
ENDMDL
MODEL 3
REMARK VINA RESULT:      -7.3      1.215      1.661
REMARK  Name = 
REMARK  8 active torsions:
REMARK  status: ('A' for Active; 'I' for Inactive)
REMARK    1  A    between atoms: C_1  and  C_2
REMARK    2  A    between atoms: C_2  and  C_3
REMARK    3  A    between atoms: C_2  and  C_4
REMARK    4  A    between atoms: C_4  and  N_5
REMARK    5  A    between atoms: C_9  and  C_10
REMARK    6  A    between atoms: C_10  and  O_11
REMARK    7  A    between atoms: O_11  and  C_12
REMARK    8  A    between atoms: C_12  and  C_14
REMARK                            x       y       z     vdW  Elec       q    Type
REMARK                         _______ _______ _______ _____ _____    ______ ____
ROOT
ATOM      1  C   UNL     1       2.675   2.957  17.423  0.00  0.00    +0.000 C 
ATOM      2  O   UNL     1       2.059   1.991  17.015  0.00  0.00    +0.000 OA
ENDROOT
BRANCH   1   3
ATOM      3  C   UNL     1       2.367   3.491  18.775  0.00  0.00    +0.000 A 
ATOM      4  C   UNL     1       2.479   2.527  19.797  0.00  0.00    +0.000 A 
ATOM      5  C   UNL     1       2.500   2.903  21.134  0.00  0.00    +0.000 A 
ATOM      6  C   UNL     1       1.879   4.058  21.550  0.00  0.00    +0.000 A 
ATOM      7  C   UNL     1       1.892   5.083  20.598  0.00  0.00    +0.000 A 
ATOM      8  C   UNL     1       1.722   6.473  20.781  0.00  0.00    +0.000 A 
ATOM      9  C   UNL     1       2.326   7.062  19.682  0.00  0.00    +0.000 A 
ATOM     10  N   UNL     1       2.625   6.067  18.769  0.00  0.00    +0.000 N 
ATOM     11  C   UNL     1       2.272   4.818  19.267  0.00  0.00    +0.000 A 
ATOM     12  H   UNL     1       3.182   6.232  17.944  0.00  0.00    +0.000 HD
ENDBRANCH   1   3
BRANCH   1  13
ATOM     13  O   UNL     1       3.481   3.726  16.620  0.00  0.00    +0.000 OA
BRANCH  13  14
ATOM     14  C   UNL     1       4.878   3.511  16.971  0.00  0.00    +0.000 C 
BRANCH  14  19
ATOM     15  N   UNL     1       7.025   4.604  16.137  0.00  0.00    +0.000 N 
ATOM     16  N   UNL     1       7.544   5.108  14.991  0.00  0.00    +0.000 NA
ATOM     17  C   UNL     1       6.573   4.846  14.121  0.00  0.00    +0.000 A 
ATOM     18  N   UNL     1       5.503   4.163  14.633  0.00  0.00    +0.000 NA
ATOM     19  C   UNL     1       5.806   4.002  15.911  0.00  0.00    +0.000 A 
BRANCH  15  20
ATOM     20  C   UNL     1       7.766   4.744  17.377  0.00  0.00    +0.000 C 
BRANCH  20  22
ATOM     21  C   UNL     1       7.864   5.768  19.715  0.00  0.00    +0.000 C 
ATOM     22  C   UNL     1       7.276   5.877  18.307  0.00  0.00    +0.000 C 
ATOM     23  C   UNL     1       7.646   7.232  17.699  0.00  0.00    +0.000 C 
ENDBRANCH  20  22
ENDBRANCH  15  20
ENDBRANCH  14  19
ENDBRANCH  13  14
ENDBRANCH   1  13
TORSDOF 6
ENDMDL
MODEL 4
REMARK VINA RESULT:      -7.2      1.524      2.489
REMARK  Name = 
REMARK  8 active torsions:
REMARK  status: ('A' for Active; 'I' for Inactive)
REMARK    1  A    between atoms: C_1  and  C_2
REMARK    2  A    between atoms: C_2  and  C_3
REMARK    3  A    between atoms: C_2  and  C_4
REMARK    4  A    between atoms: C_4  and  N_5
REMARK    5  A    between atoms: C_9  and  C_10
REMARK    6  A    between atoms: C_10  and  O_11
REMARK    7  A    between atoms: O_11  and  C_12
REMARK    8  A    between atoms: C_12  and  C_14
REMARK                            x       y       z     vdW  Elec       q    Type
REMARK                         _______ _______ _______ _____ _____    ______ ____
ROOT
ATOM      1  C   UNL     1       3.572   5.298  17.240  0.00  0.00    +0.000 C 
ATOM      2  O   UNL     1       4.207   6.284  16.922  0.00  0.00    +0.000 OA
ENDROOT
BRANCH   1   3
ATOM      3  C   UNL     1       2.914   5.261  18.571  0.00  0.00    +0.000 A 
ATOM      4  C   UNL     1       2.728   6.537  19.140  0.00  0.00    +0.000 A 
ATOM      5  C   UNL     1       1.893   6.715  20.237  0.00  0.00    +0.000 A 
ATOM      6  C   UNL     1       1.676   5.691  21.129  0.00  0.00    +0.000 A 
ATOM      7  C   UNL     1       1.706   4.418  20.551  0.00  0.00    +0.000 A 
ATOM      8  C   UNL     1       1.162   3.207  21.030  0.00  0.00    +0.000 A 
ATOM      9  C   UNL     1       0.999   2.411  19.907  0.00  0.00    +0.000 A 
ATOM     10  N   UNL     1       1.640   3.024  18.846  0.00  0.00    +0.000 N 
ATOM     11  C   UNL     1       2.186   4.241  19.236  0.00  0.00    +0.000 A 
ATOM     12  H   UNL     1       1.554   2.699  17.895  0.00  0.00    +0.000 HD
ENDBRANCH   1   3
BRANCH   1  13
ATOM     13  O   UNL     1       3.612   4.121  16.533  0.00  0.00    +0.000 OA
BRANCH  13  14
ATOM     14  C   UNL     1       4.910   3.484  16.705  0.00  0.00    +0.000 C 
BRANCH  14  19
ATOM     15  N   UNL     1       7.112   4.576  16.031  0.00  0.00    +0.000 N 
ATOM     16  N   UNL     1       7.714   5.079  14.925  0.00  0.00    +0.000 NA
ATOM     17  C   UNL     1       6.808   4.817  13.987  0.00  0.00    +0.000 A 
ATOM     18  N   UNL     1       5.704   4.135  14.420  0.00  0.00    +0.000 NA
ATOM     19  C   UNL     1       5.913   3.974  15.716  0.00  0.00    +0.000 A 
BRANCH  15  20
ATOM     20  C   UNL     1       7.761   4.716  17.321  0.00  0.00    +0.000 C 
BRANCH  20  22
ATOM     21  C   UNL     1       7.653   5.718  19.669  0.00  0.00    +0.000 C 
ATOM     22  C   UNL     1       7.206   5.851  18.212  0.00  0.00    +0.000 C 
ATOM     23  C   UNL     1       7.660   7.203  17.657  0.00  0.00    +0.000 C 
ENDBRANCH  20  22
ENDBRANCH  15  20
ENDBRANCH  14  19
ENDBRANCH  13  14
ENDBRANCH   1  13
TORSDOF 6
ENDMDL
MODEL 5
REMARK VINA RESULT:      -7.1      1.986      3.810
REMARK  Name = 
REMARK  8 active torsions:
REMARK  status: ('A' for Active; 'I' for Inactive)
REMARK    1  A    between atoms: C_1  and  C_2
REMARK    2  A    between atoms: C_2  and  C_3
REMARK    3  A    between atoms: C_2  and  C_4
REMARK    4  A    between atoms: C_4  and  N_5
REMARK    5  A    between atoms: C_9  and  C_10
REMARK    6  A    between atoms: C_10  and  O_11
REMARK    7  A    between atoms: O_11  and  C_12
REMARK    8  A    between atoms: C_12  and  C_14
REMARK                            x       y       z     vdW  Elec       q    Type
REMARK                         _______ _______ _______ _____ _____    ______ ____
ROOT
ATOM      1  C   UNL     1       3.019   6.427  18.408  0.00  0.00    +0.000 C 
ATOM      2  O   UNL     1       2.834   7.473  18.999  0.00  0.00    +0.000 OA
ENDROOT
BRANCH   1   3
ATOM      3  C   UNL     1       2.824   5.144  19.132  0.00  0.00    +0.000 A 
ATOM      4  C   UNL     1       1.897   5.233  20.189  0.00  0.00    +0.000 A 
ATOM      5  C   UNL     1       1.388   4.089  20.791  0.00  0.00    +0.000 A 
ATOM      6  C   UNL     1       2.114   2.921  20.810  0.00  0.00    +0.000 A 
ATOM      7  C   UNL     1       2.931   2.743  19.688  0.00  0.00    +0.000 A 
ATOM      8  C   UNL     1       3.493   1.555  19.172  0.00  0.00    +0.000 A 
ATOM      9  C   UNL     1       3.745   1.820  17.835  0.00  0.00    +0.000 A 
ATOM     10  N   UNL     1       3.570   3.176  17.625  0.00  0.00    +0.000 N 
ATOM     11  C   UNL     1       3.157   3.808  18.791  0.00  0.00    +0.000 A 
ATOM     12  H   UNL     1       3.573   3.590  16.704  0.00  0.00    +0.000 HD
ENDBRANCH   1   3
BRANCH   1  13
ATOM     13  O   UNL     1       3.618   6.359  17.174  0.00  0.00    +0.000 OA
BRANCH  13  14
ATOM     14  C   UNL     1       4.888   7.069  17.200  0.00  0.00    +0.000 C 
BRANCH  14  19
ATOM     15  N   UNL     1       6.350   5.225  16.219  0.00  0.00    +0.000 N 
ATOM     16  N   UNL     1       7.355   4.398  16.599  0.00  0.00    +0.000 NA
ATOM     17  C   UNL     1       7.581   4.809  17.843  0.00  0.00    +0.000 A 
ATOM     18  N   UNL     1       6.822   5.872  18.251  0.00  0.00    +0.000 NA
ATOM     19  C   UNL     1       6.054   6.138  17.207  0.00  0.00    +0.000 A 
BRANCH  15  20
ATOM     20  C   UNL     1       5.752   5.064  14.907  0.00  0.00    +0.000 C 
BRANCH  20  22
ATOM     21  C   UNL     1       5.736   3.524  12.868  0.00  0.00    +0.000 C 
ATOM     22  C   UNL     1       6.599   4.256  13.897  0.00  0.00    +0.000 C 
ATOM     23  C   UNL     1       7.571   5.195  13.179  0.00  0.00    +0.000 C 
ENDBRANCH  20  22
ENDBRANCH  15  20
ENDBRANCH  14  19
ENDBRANCH  13  14
ENDBRANCH   1  13
TORSDOF 6
ENDMDL
MODEL 6
REMARK VINA RESULT:      -7.1      2.256      4.147
REMARK  Name = 
REMARK  8 active torsions:
REMARK  status: ('A' for Active; 'I' for Inactive)
REMARK    1  A    between atoms: C_1  and  C_2
REMARK    2  A    between atoms: C_2  and  C_3
REMARK    3  A    between atoms: C_2  and  C_4
REMARK    4  A    between atoms: C_4  and  N_5
REMARK    5  A    between atoms: C_9  and  C_10
REMARK    6  A    between atoms: C_10  and  O_11
REMARK    7  A    between atoms: O_11  and  C_12
REMARK    8  A    between atoms: C_12  and  C_14
REMARK                            x       y       z     vdW  Elec       q    Type
REMARK                         _______ _______ _______ _____ _____    ______ ____
ROOT
ATOM      1  C   UNL     1       5.077   4.401  17.917  0.00  0.00    +0.000 C 
ATOM      2  O   UNL     1       6.029   4.265  18.662  0.00  0.00    +0.000 OA
ENDROOT
BRANCH   1   3
ATOM      3  C   UNL     1       3.708   4.169  18.445  0.00  0.00    +0.000 A 
ATOM      4  C   UNL     1       2.696   4.369  17.485  0.00  0.00    +0.000 A 
ATOM      5  C   UNL     1       1.396   3.937  17.716  0.00  0.00    +0.000 A 
ATOM      6  C   UNL     1       0.908   3.829  18.998  0.00  0.00    +0.000 A 
ATOM      7  C   UNL     1       1.876   3.480  19.946  0.00  0.00    +0.000 A 
ATOM      8  C   UNL     1       1.705   2.912  21.227  0.00  0.00    +0.000 A 
ATOM      9  C   UNL     1       2.913   2.297  21.517  0.00  0.00    +0.000 A 
ATOM     10  N   UNL     1       3.836   2.687  20.564  0.00  0.00    +0.000 N 
ATOM     11  C   UNL     1       3.246   3.514  19.616  0.00  0.00    +0.000 A 
ATOM     12  H   UNL     1       4.752   2.272  20.490  0.00  0.00    +0.000 HD
ENDBRANCH   1   3
BRANCH   1  13
ATOM     13  O   UNL     1       5.204   4.538  16.557  0.00  0.00    +0.000 OA
BRANCH  13  14
ATOM     14  C   UNL     1       6.520   4.080  16.133  0.00  0.00    +0.000 C 
BRANCH  14  19
ATOM     15  N   UNL     1       6.549   4.264  13.591  0.00  0.00    +0.000 N 
ATOM     16  N   UNL     1       7.244   4.897  12.614  0.00  0.00    +0.000 NA
ATOM     17  C   UNL     1       8.086   5.641  13.326  0.00  0.00    +0.000 A 
ATOM     18  N   UNL     1       7.929   5.559  14.683  0.00  0.00    +0.000 NA
ATOM     19  C   UNL     1       6.941   4.693  14.840  0.00  0.00    +0.000 A 
BRANCH  15  20
ATOM     20  C   UNL     1       5.543   3.284  13.229  0.00  0.00    +0.000 C 
BRANCH  20  22
ATOM     21  C   UNL     1       5.804   1.538  11.382  0.00  0.00    +0.000 C 
ATOM     22  C   UNL     1       5.436   2.985  11.716  0.00  0.00    +0.000 C 
ATOM     23  C   UNL     1       4.013   3.278  11.237  0.00  0.00    +0.000 C 
ENDBRANCH  20  22
ENDBRANCH  15  20
ENDBRANCH  14  19
ENDBRANCH  13  14
ENDBRANCH   1  13
TORSDOF 6
ENDMDL
MODEL 7
REMARK VINA RESULT:      -7.1      2.184      4.170
REMARK  Name = 
REMARK  8 active torsions:
REMARK  status: ('A' for Active; 'I' for Inactive)
REMARK    1  A    between atoms: C_1  and  C_2
REMARK    2  A    between atoms: C_2  and  C_3
REMARK    3  A    between atoms: C_2  and  C_4
REMARK    4  A    between atoms: C_4  and  N_5
REMARK    5  A    between atoms: C_9  and  C_10
REMARK    6  A    between atoms: C_10  and  O_11
REMARK    7  A    between atoms: O_11  and  C_12
REMARK    8  A    between atoms: C_12  and  C_14
REMARK                            x       y       z     vdW  Elec       q    Type
REMARK                         _______ _______ _______ _____ _____    ______ ____
ROOT
ATOM      1  C   UNL     1       5.373   4.856  18.394  0.00  0.00    +0.000 C 
ATOM      2  O   UNL     1       6.292   4.179  18.813  0.00  0.00    +0.000 OA
ENDROOT
BRANCH   1   3
ATOM      3  C   UNL     1       4.081   4.852  19.127  0.00  0.00    +0.000 A 
ATOM      4  C   UNL     1       3.598   6.144  19.419  0.00  0.00    +0.000 A 
ATOM      5  C   UNL     1       2.291   6.338  19.847  0.00  0.00    +0.000 A 
ATOM      6  C   UNL     1       1.616   5.346  20.521  0.00  0.00    +0.000 A 
ATOM      7  C   UNL     1       1.976   4.051  20.134  0.00  0.00    +0.000 A 
ATOM      8  C   UNL     1       1.266   2.842  20.294  0.00  0.00    +0.000 A 
ATOM      9  C   UNL     1       1.767   1.992  19.322  0.00  0.00    +0.000 A 
ATOM     10  N   UNL     1       2.889   2.583  18.769  0.00  0.00    +0.000 N 
ATOM     11  C   UNL     1       3.113   3.835  19.327  0.00  0.00    +0.000 A 
ATOM     12  H   UNL     1       3.354   2.213  17.954  0.00  0.00    +0.000 HD
ENDBRANCH   1   3
BRANCH   1  13
ATOM     13  O   UNL     1       5.384   5.451  17.156  0.00  0.00    +0.000 OA
BRANCH  13  14
ATOM     14  C   UNL     1       5.336   4.433  16.117  0.00  0.00    +0.000 C 
BRANCH  14  19
ATOM     15  N   UNL     1       6.106   4.233  13.695  0.00  0.00    +0.000 N 
ATOM     16  N   UNL     1       7.161   4.584  12.919  0.00  0.00    +0.000 NA
ATOM     17  C   UNL     1       7.909   5.266  13.781  0.00  0.00    +0.000 A 
ATOM     18  N   UNL     1       7.369   5.413  15.030  0.00  0.00    +0.000 NA
ATOM     19  C   UNL     1       6.218   4.766  14.960  0.00  0.00    +0.000 A 
BRANCH  15  20
ATOM     20  C   UNL     1       5.056   3.402  13.136  0.00  0.00    +0.000 C 
BRANCH  20  22
ATOM     21  C   UNL     1       5.769   1.716  11.354  0.00  0.00    +0.000 C 
ATOM     22  C   UNL     1       5.191   3.106  11.625  0.00  0.00    +0.000 C 
ATOM     23  C   UNL     1       3.821   3.233  10.956  0.00  0.00    +0.000 C 
ENDBRANCH  20  22
ENDBRANCH  15  20
ENDBRANCH  14  19
ENDBRANCH  13  14
ENDBRANCH   1  13
TORSDOF 6
ENDMDL
MODEL 8
REMARK VINA RESULT:      -7.1      1.290      1.815
REMARK  Name = 
REMARK  8 active torsions:
REMARK  status: ('A' for Active; 'I' for Inactive)
REMARK    1  A    between atoms: C_1  and  C_2
REMARK    2  A    between atoms: C_2  and  C_3
REMARK    3  A    between atoms: C_2  and  C_4
REMARK    4  A    between atoms: C_4  and  N_5
REMARK    5  A    between atoms: C_9  and  C_10
REMARK    6  A    between atoms: C_10  and  O_11
REMARK    7  A    between atoms: O_11  and  C_12
REMARK    8  A    between atoms: C_12  and  C_14
REMARK                            x       y       z     vdW  Elec       q    Type
REMARK                         _______ _______ _______ _____ _____    ______ ____
ROOT
ATOM      1  C   UNL     1       2.923   3.461  17.600  0.00  0.00    +0.000 C 
ATOM      2  O   UNL     1       2.266   3.301  16.589  0.00  0.00    +0.000 OA
ENDROOT
BRANCH   1   3
ATOM      3  C   UNL     1       2.497   4.493  18.581  0.00  0.00    +0.000 A 
ATOM      4  C   UNL     1       2.354   3.994  19.891  0.00  0.00    +0.000 A 
ATOM      5  C   UNL     1       2.235   4.856  20.974  0.00  0.00    +0.000 A 
ATOM      6  C   UNL     1       1.702   6.115  20.816  0.00  0.00    +0.000 A 
ATOM      7  C   UNL     1       1.965   6.690  19.568  0.00  0.00    +0.000 A 
ATOM      8  C   UNL     1       1.935   8.049  19.188  0.00  0.00    +0.000 A 
ATOM      9  C   UNL     1       2.748   8.132  18.069  0.00  0.00    +0.000 A 
ATOM     10  N   UNL     1       3.052   6.847  17.659  0.00  0.00    +0.000 N 
ATOM     11  C   UNL     1       2.491   5.910  18.518  0.00  0.00    +0.000 A 
ATOM     12  H   UNL     1       3.733   6.650  16.941  0.00  0.00    +0.000 HD
ENDBRANCH   1   3
BRANCH   1  13
ATOM     13  O   UNL     1       4.164   2.903  17.784  0.00  0.00    +0.000 OA
BRANCH  13  14
ATOM     14  C   UNL     1       5.164   3.951  17.919  0.00  0.00    +0.000 C 
BRANCH  14  19
ATOM     15  N   UNL     1       6.232   5.533  16.229  0.00  0.00    +0.000 N 
ATOM     16  N   UNL     1       6.609   5.545  14.927  0.00  0.00    +0.000 NA
ATOM     17  C   UNL     1       6.336   4.296  14.560  0.00  0.00    +0.000 A 
ATOM     18  N   UNL     1       5.865   3.487  15.558  0.00  0.00    +0.000 NA
ATOM     19  C   UNL     1       5.816   4.279  16.617  0.00  0.00    +0.000 A 
BRANCH  15  20
ATOM     20  C   UNL     1       6.312   6.757  17.004  0.00  0.00    +0.000 C 
BRANCH  20  22
ATOM     21  C   UNL     1       7.920   8.583  17.786  0.00  0.00    +0.000 C 
ATOM     22  C   UNL     1       7.714   7.083  17.568  0.00  0.00    +0.000 C 
ATOM     23  C   UNL     1       7.918   6.339  18.890  0.00  0.00    +0.000 C 
ENDBRANCH  20  22
ENDBRANCH  15  20
ENDBRANCH  14  19
ENDBRANCH  13  14
ENDBRANCH   1  13
TORSDOF 6
ENDMDL
MODEL 9
REMARK VINA RESULT:      -7.0      2.234      5.486
REMARK  Name = 
REMARK  8 active torsions:
REMARK  status: ('A' for Active; 'I' for Inactive)
REMARK    1  A    between atoms: C_1  and  C_2
REMARK    2  A    between atoms: C_2  and  C_3
REMARK    3  A    between atoms: C_2  and  C_4
REMARK    4  A    between atoms: C_4  and  N_5
REMARK    5  A    between atoms: C_9  and  C_10
REMARK    6  A    between atoms: C_10  and  O_11
REMARK    7  A    between atoms: O_11  and  C_12
REMARK    8  A    between atoms: C_12  and  C_14
REMARK                            x       y       z     vdW  Elec       q    Type
REMARK                         _______ _______ _______ _____ _____    ______ ____
ROOT
ATOM      1  C   UNL     1       3.718   2.687  17.505  0.00  0.00    +0.000 C 
ATOM      2  O   UNL     1       3.895   1.874  18.391  0.00  0.00    +0.000 OA
ENDROOT
BRANCH   1   3
ATOM      3  C   UNL     1       4.836   3.585  17.115  0.00  0.00    +0.000 A 
ATOM      4  C   UNL     1       4.803   3.964  15.758  0.00  0.00    +0.000 A 
ATOM      5  C   UNL     1       5.595   5.004  15.287  0.00  0.00    +0.000 A 
ATOM      6  C   UNL     1       6.784   5.318  15.905  0.00  0.00    +0.000 A 
ATOM      7  C   UNL     1       6.783   5.090  17.285  0.00  0.00    +0.000 A 
ATOM      8  C   UNL     1       7.626   5.632  18.279  0.00  0.00    +0.000 A 
ATOM      9  C   UNL     1       6.913   5.521  19.462  0.00  0.00    +0.000 A 
ATOM     10  N   UNL     1       5.802   4.731  19.224  0.00  0.00    +0.000 N 
ATOM     11  C   UNL     1       5.741   4.355  17.888  0.00  0.00    +0.000 A 
ATOM     12  H   UNL     1       5.064   4.611  19.901  0.00  0.00    +0.000 HD
ENDBRANCH   1   3
BRANCH   1  13
ATOM     13  O   UNL     1       2.478   2.981  16.994  0.00  0.00    +0.000 OA
BRANCH  13  14
ATOM     14  C   UNL     1       2.072   4.315  17.413  0.00  0.00    +0.000 C 
BRANCH  14  19
ATOM     15  N   UNL     1       2.085   5.291  19.767  0.00  0.00    +0.000 N 
ATOM     16  N   UNL     1       1.698   4.954  21.022  0.00  0.00    +0.000 NA
ATOM     17  C   UNL     1       1.113   3.778  20.814  0.00  0.00    +0.000 A 
ATOM     18  N   UNL     1       1.059   3.381  19.505  0.00  0.00    +0.000 NA
ATOM     19  C   UNL     1       1.666   4.355  18.847  0.00  0.00    +0.000 A 
BRANCH  15  20
ATOM     20  C   UNL     1       2.836   6.515  19.558  0.00  0.00    +0.000 C 
BRANCH  20  22
ATOM     21  C   UNL     1       1.864   8.622  18.488  0.00  0.00    +0.000 C 
ATOM     22  C   UNL     1       2.517   7.260  18.242  0.00  0.00    +0.000 C 
ATOM     23  C   UNL     1       3.805   7.446  17.436  0.00  0.00    +0.000 C 
ENDBRANCH  20  22
ENDBRANCH  15  20
ENDBRANCH  14  19
ENDBRANCH  13  14
ENDBRANCH   1  13
TORSDOF 6
ENDMDL
