MODEL 1
REMARK VINA RESULT:      -8.3      0.000      0.000
REMARK  Name = 
REMARK  7 active torsions:
REMARK  status: ('A' for Active; 'I' for Inactive)
REMARK    1  A    between atoms: C_1  and  C_2
REMARK    2  A    between atoms: C_2  and  C_3
REMARK    3  A    between atoms: C_3  and  C_4
REMARK    4  A    between atoms: C_4  and  N_5
REMARK    5  A    between atoms: C_8  and  C_9
REMARK    6  A    between atoms: C_12  and  C_13
REMARK    7  A    between atoms: C_29  and  O_30
REMARK                            x       y       z     vdW  Elec       q    Type
REMARK                         _______ _______ _______ _____ _____    ______ ____
ROOT
ATOM      1  N   UNL     1       1.947   5.917  21.070  0.00  0.00    +0.000 NA
ATOM      2  C   UNL     1       2.037   6.495  19.921  0.00  0.00    +0.000 C 
ATOM      3  C   UNL     1       2.598   5.843  18.678  0.00  0.00    +0.000 C 
ATOM      4  C   UNL     1       3.679   6.764  18.097  0.00  0.00    +0.000 C 
ATOM      5  C   UNL     1       3.037   8.084  17.661  0.00  0.00    +0.000 C 
ATOM      6  C   UNL     1       2.129   8.675  18.715  0.00  0.00    +0.000 A 
ATOM      7  N   UNL     1       1.806   9.984  18.533  0.00  0.00    +0.000 NA
ATOM      8  C   UNL     1       0.960  10.580  19.391  0.00  0.00    +0.000 A 
ATOM      9  C   UNL     1       0.640  11.917  19.194  0.00  0.00    +0.000 A 
ATOM     10  C   UNL     1      -0.234  12.605  20.041  0.00  0.00    +0.000 A 
ATOM     11  C   UNL     1      -0.811  11.935  21.112  0.00  0.00    +0.000 A 
ATOM     12 CL   UNL     1      -1.880  12.764  22.172  0.00  0.00    +0.000 Cl
ATOM     13  C   UNL     1      -0.525  10.592  21.326  0.00  0.00    +0.000 A 
ATOM     14  C   UNL     1       0.368   9.897  20.474  0.00  0.00    +0.000 A 
ATOM     15  C   UNL     1       0.695   8.538  20.623  0.00  0.00    +0.000 A 
ATOM     16  C   UNL     1       1.601   7.914  19.760  0.00  0.00    +0.000 A 
ENDROOT
BRANCH   4  17
ATOM     17  C   UNL     1       4.425   6.039  16.989  0.00  0.00    +0.000 A 
ATOM     18  C   UNL     1       5.058   6.742  15.954  0.00  0.00    +0.000 A 
ATOM     19  C   UNL     1       5.585   6.067  14.851  0.00  0.00    +0.000 A 
ATOM     20  C   UNL     1       5.502   4.672  14.763  0.00  0.00    +0.000 A 
ATOM     21  C   UNL     1       4.926   3.962  15.826  0.00  0.00    +0.000 A 
ATOM     22  C   UNL     1       4.393   4.639  16.927  0.00  0.00    +0.000 A 
BRANCH  20  23
ATOM     23  C   UNL     1       5.984   3.941  13.534  0.00  0.00    +0.000 C 
ATOM     24  F   UNL     1       5.023   3.783  12.581  0.00  0.00    +0.000 F 
ATOM     25  F   UNL     1       7.021   4.572  12.918  0.00  0.00    +0.000 F 
ATOM     26  F   UNL     1       6.428   2.684  13.820  0.00  0.00    +0.000 F 
ENDBRANCH  20  23
ENDBRANCH   4  17
BRANCH  15  27
ATOM     27  O   UNL     1       0.042   7.793  21.575  0.00  0.00    +0.000 OA
ATOM     28  H   UNL     1      -0.057   8.324  22.379  0.00  0.00    +0.000 HD
ENDBRANCH  15  27
BRANCH   1  29
ATOM     29  C   UNL     1       2.315   4.517  21.228  0.00  0.00    +0.000 C 
BRANCH  29  30
ATOM     30  C   UNL     1       1.115   3.665  20.818  0.00  0.00    +0.000 C 
BRANCH  30  32
ATOM     31  C   UNL     1       1.010   2.439  18.619  0.00  0.00    +0.000 C 
ATOM     32  C   UNL     1       1.559   2.429  20.037  0.00  0.00    +0.000 C 
ENDBRANCH  30  32
ENDBRANCH  29  30
ENDBRANCH   1  29
TORSDOF 6
ENDMDL
MODEL 2
REMARK VINA RESULT:      -8.0      1.284      1.886
REMARK  Name = 
REMARK  7 active torsions:
REMARK  status: ('A' for Active; 'I' for Inactive)
REMARK    1  A    between atoms: C_1  and  C_2
REMARK    2  A    between atoms: C_2  and  C_3
REMARK    3  A    between atoms: C_3  and  C_4
REMARK    4  A    between atoms: C_4  and  N_5
REMARK    5  A    between atoms: C_8  and  C_9
REMARK    6  A    between atoms: C_12  and  C_13
REMARK    7  A    between atoms: C_29  and  O_30
REMARK                            x       y       z     vdW  Elec       q    Type
REMARK                         _______ _______ _______ _____ _____    ______ ____
ROOT
ATOM      1  N   UNL     1       3.330   4.756  20.237  0.00  0.00    +0.000 NA
ATOM      2  C   UNL     1       3.251   5.365  19.104  0.00  0.00    +0.000 C 
ATOM      3  C   UNL     1       3.702   4.779  17.785  0.00  0.00    +0.000 C 
ATOM      4  C   UNL     1       4.651   5.779  17.111  0.00  0.00    +0.000 C 
ATOM      5  C   UNL     1       3.885   7.067  16.793  0.00  0.00    +0.000 C 
ATOM      6  C   UNL     1       3.073   7.575  17.962  0.00  0.00    +0.000 A 
ATOM      7  N   UNL     1       2.655   8.865  17.859  0.00  0.00    +0.000 NA
ATOM      8  C   UNL     1       1.881   9.386  18.826  0.00  0.00    +0.000 A 
ATOM      9  C   UNL     1       1.462  10.706  18.708  0.00  0.00    +0.000 A 
ATOM     10  C   UNL     1       0.653  11.318  19.671  0.00  0.00    +0.000 A 
ATOM     11  C   UNL     1       0.245  10.588  20.780  0.00  0.00    +0.000 A 
ATOM     12 CL   UNL     1      -0.740  11.323  21.981  0.00  0.00    +0.000 Cl
ATOM     13  C   UNL     1       0.633   9.261  20.919  0.00  0.00    +0.000 A 
ATOM     14  C   UNL     1       1.460   8.643  19.948  0.00  0.00    +0.000 A 
ATOM     15  C   UNL     1       1.882   7.303  20.018  0.00  0.00    +0.000 A 
ATOM     16  C   UNL     1       2.717   6.758  19.038  0.00  0.00    +0.000 A 
ENDROOT
BRANCH   4  17
ATOM     17  C   UNL     1       5.305   5.129  15.904  0.00  0.00    +0.000 A 
ATOM     18  C   UNL     1       6.594   5.491  15.488  0.00  0.00    +0.000 A 
ATOM     19  C   UNL     1       7.113   5.020  14.280  0.00  0.00    +0.000 A 
ATOM     20  C   UNL     1       6.359   4.168  13.465  0.00  0.00    +0.000 A 
ATOM     21  C   UNL     1       5.094   3.754  13.907  0.00  0.00    +0.000 A 
ATOM     22  C   UNL     1       4.573   4.230  15.114  0.00  0.00    +0.000 A 
BRANCH  20  23
ATOM     23  C   UNL     1       6.872   3.729  12.115  0.00  0.00    +0.000 C 
ATOM     24  F   UNL     1       7.846   2.779  12.185  0.00  0.00    +0.000 F 
ATOM     25  F   UNL     1       5.895   3.204  11.325  0.00  0.00    +0.000 F 
ATOM     26  F   UNL     1       7.413   4.759  11.406  0.00  0.00    +0.000 F 
ENDBRANCH  20  23
ENDBRANCH   4  17
BRANCH  15  27
ATOM     27  O   UNL     1       1.390   6.497  21.014  0.00  0.00    +0.000 OA
ATOM     28  H   UNL     1       1.336   5.587  20.687  0.00  0.00    +0.000 HD
ENDBRANCH  15  27
BRANCH   1  29
ATOM     29  C   UNL     1       3.796   3.378  20.308  0.00  0.00    +0.000 C 
BRANCH  29  30
ATOM     30  C   UNL     1       2.752   2.565  21.072  0.00  0.00    +0.000 C 
BRANCH  30  32
ATOM     31  C   UNL     1       1.023   2.380  19.249  0.00  0.00    +0.000 C 
ATOM     32  C   UNL     1       1.337   2.933  20.629  0.00  0.00    +0.000 C 
ENDBRANCH  30  32
ENDBRANCH  29  30
ENDBRANCH   1  29
TORSDOF 6
ENDMDL
MODEL 3
REMARK VINA RESULT:      -7.9      6.578     10.499
REMARK  Name = 
REMARK  7 active torsions:
REMARK  status: ('A' for Active; 'I' for Inactive)
REMARK    1  A    between atoms: C_1  and  C_2
REMARK    2  A    between atoms: C_2  and  C_3
REMARK    3  A    between atoms: C_3  and  C_4
REMARK    4  A    between atoms: C_4  and  N_5
REMARK    5  A    between atoms: C_8  and  C_9
REMARK    6  A    between atoms: C_12  and  C_13
REMARK    7  A    between atoms: C_29  and  O_30
REMARK                            x       y       z     vdW  Elec       q    Type
REMARK                         _______ _______ _______ _____ _____    ______ ____
ROOT
ATOM      1  N   UNL     1       1.945  11.446  18.336  0.00  0.00    +0.000 NA
ATOM      2  C   UNL     1       1.202  10.820  19.184  0.00  0.00    +0.000 C 
ATOM      3  C   UNL     1       0.086  11.461  19.978  0.00  0.00    +0.000 C 
ATOM      4  C   UNL     1       0.304  11.140  21.462  0.00  0.00    +0.000 C 
ATOM      5  C   UNL     1       0.195   9.626  21.673  0.00  0.00    +0.000 C 
ATOM      6  C   UNL     1       1.005   8.832  20.674  0.00  0.00    +0.000 A 
ATOM      7  N   UNL     1       1.221   7.531  21.010  0.00  0.00    +0.000 NA
ATOM      8  C   UNL     1       1.886   6.733  20.157  0.00  0.00    +0.000 A 
ATOM      9  C   UNL     1       2.100   5.407  20.512  0.00  0.00    +0.000 A 
ATOM     10  C   UNL     1       2.780   4.514  19.677  0.00  0.00    +0.000 A 
ATOM     11  C   UNL     1       3.252   4.957  18.449  0.00  0.00    +0.000 A 
ATOM     12 CL   UNL     1       4.099   3.880  17.412  0.00  0.00    +0.000 Cl
ATOM     13  C   UNL     1       3.038   6.273  18.056  0.00  0.00    +0.000 A 
ATOM     14  C   UNL     1       2.358   7.180  18.905  0.00  0.00    +0.000 A 
ATOM     15  C   UNL     1       2.096   8.521  18.570  0.00  0.00    +0.000 A 
ATOM     16  C   UNL     1       1.438   9.373  19.462  0.00  0.00    +0.000 A 
ENDROOT
BRANCH   4  17
ATOM     17  C   UNL     1      -0.657  11.957  22.308  0.00  0.00    +0.000 A 
ATOM     18  C   UNL     1      -1.751  11.361  22.952  0.00  0.00    +0.000 A 
ATOM     19  C   UNL     1      -2.725  12.144  23.576  0.00  0.00    +0.000 A 
ATOM     20  C   UNL     1      -2.622  13.540  23.581  0.00  0.00    +0.000 A 
ATOM     21  C   UNL     1      -1.497  14.136  22.993  0.00  0.00    +0.000 A 
ATOM     22  C   UNL     1      -0.525  13.352  22.363  0.00  0.00    +0.000 A 
BRANCH  20  23
ATOM     23  C   UNL     1      -3.714  14.399  24.170  0.00  0.00    +0.000 C 
ATOM     24  F   UNL     1      -4.026  15.483  23.407  0.00  0.00    +0.000 F 
ATOM     25  F   UNL     1      -4.880  13.719  24.349  0.00  0.00    +0.000 F 
ATOM     26  F   UNL     1      -3.379  14.895  25.395  0.00  0.00    +0.000 F 
ENDBRANCH  20  23
ENDBRANCH   4  17
BRANCH  15  27
ATOM     27  O   UNL     1       2.411   8.969  17.311  0.00  0.00    +0.000 OA
ATOM     28  H   UNL     1       2.075   9.872  17.203  0.00  0.00    +0.000 HD
ENDBRANCH  15  27
BRANCH   1  29
ATOM     29  C   UNL     1       1.689  12.843  18.013  0.00  0.00    +0.000 C 
BRANCH  29  30
ATOM     30  C   UNL     1       2.856  13.672  18.548  0.00  0.00    +0.000 C 
BRANCH  30  32
ATOM     31  C   UNL     1       2.994  13.821  21.060  0.00  0.00    +0.000 C 
ATOM     32  C   UNL     1       2.447  14.458  19.793  0.00  0.00    +0.000 C 
ENDBRANCH  30  32
ENDBRANCH  29  30
ENDBRANCH   1  29
TORSDOF 6
ENDMDL
MODEL 4
REMARK VINA RESULT:      -7.9      3.744      6.039
REMARK  Name = 
REMARK  7 active torsions:
REMARK  status: ('A' for Active; 'I' for Inactive)
REMARK    1  A    between atoms: C_1  and  C_2
REMARK    2  A    between atoms: C_2  and  C_3
REMARK    3  A    between atoms: C_3  and  C_4
REMARK    4  A    between atoms: C_4  and  N_5
REMARK    5  A    between atoms: C_8  and  C_9
REMARK    6  A    between atoms: C_12  and  C_13
REMARK    7  A    between atoms: C_29  and  O_30
REMARK                            x       y       z     vdW  Elec       q    Type
REMARK                         _______ _______ _______ _____ _____    ______ ____
ROOT
ATOM      1  N   UNL     1      -2.972  10.903  18.562  0.00  0.00    +0.000 NA
ATOM      2  C   UNL     1      -1.803  11.094  19.071  0.00  0.00    +0.000 C 
ATOM      3  C   UNL     1      -0.538  10.426  18.581  0.00  0.00    +0.000 C 
ATOM      4  C   UNL     1       0.156   9.768  19.780  0.00  0.00    +0.000 C 
ATOM      5  C   UNL     1       0.577  10.851  20.778  0.00  0.00    +0.000 C 
ATOM      6  C   UNL     1      -0.529  11.834  21.083  0.00  0.00    +0.000 A 
ATOM      7  N   UNL     1      -0.336  12.598  22.192  0.00  0.00    +0.000 NA
ATOM      8  C   UNL     1      -1.242  13.537  22.512  0.00  0.00    +0.000 A 
ATOM      9  C   UNL     1      -1.032  14.308  23.648  0.00  0.00    +0.000 A 
ATOM     10  C   UNL     1      -1.927  15.308  24.045  0.00  0.00    +0.000 A 
ATOM     11  C   UNL     1      -3.060  15.548  23.279  0.00  0.00    +0.000 A 
ATOM     12 CL   UNL     1      -4.179  16.763  23.753  0.00  0.00    +0.000 Cl
ATOM     13  C   UNL     1      -3.290  14.805  22.127  0.00  0.00    +0.000 A 
ATOM     14  C   UNL     1      -2.389  13.787  21.730  0.00  0.00    +0.000 A 
ATOM     15  C   UNL     1      -2.551  13.004  20.573  0.00  0.00    +0.000 A 
ATOM     16  C   UNL     1      -1.636  11.999  20.247  0.00  0.00    +0.000 A 
ENDROOT
BRANCH   4  17
ATOM     17  C   UNL     1       1.299   8.893  19.292  0.00  0.00    +0.000 A 
ATOM     18  C   UNL     1       1.875   9.083  18.028  0.00  0.00    +0.000 A 
ATOM     19  C   UNL     1       2.797   8.167  17.519  0.00  0.00    +0.000 A 
ATOM     20  C   UNL     1       3.174   7.045  18.266  0.00  0.00    +0.000 A 
ATOM     21  C   UNL     1       2.647   6.885  19.556  0.00  0.00    +0.000 A 
ATOM     22  C   UNL     1       1.719   7.800  20.063  0.00  0.00    +0.000 A 
BRANCH  20  23
ATOM     23  C   UNL     1       4.097   6.000  17.689  0.00  0.00    +0.000 C 
ATOM     24  F   UNL     1       4.709   6.390  16.536  0.00  0.00    +0.000 F 
ATOM     25  F   UNL     1       5.098   5.651  18.543  0.00  0.00    +0.000 F 
ATOM     26  F   UNL     1       3.445   4.842  17.385  0.00  0.00    +0.000 F 
ENDBRANCH  20  23
ENDBRANCH   4  17
BRANCH  15  27
ATOM     27  O   UNL     1      -3.574  13.298  19.705  0.00  0.00    +0.000 OA
ATOM     28  H   UNL     1      -3.478  14.213  19.401  0.00  0.00    +0.000 HD
ENDBRANCH  15  27
BRANCH   1  29
ATOM     29  C   UNL     1      -3.140  10.068  17.381  0.00  0.00    +0.000 C 
BRANCH  29  30
ATOM     30  C   UNL     1      -3.343  10.988  16.178  0.00  0.00    +0.000 C 
BRANCH  30  32
ATOM     31  C   UNL     1      -3.958   9.999  13.943  0.00  0.00    +0.000 C 
ATOM     32  C   UNL     1      -2.824  10.339  14.896  0.00  0.00    +0.000 C 
ENDBRANCH  30  32
ENDBRANCH  29  30
ENDBRANCH   1  29
TORSDOF 6
ENDMDL
MODEL 5
REMARK VINA RESULT:      -7.7      4.060      6.602
REMARK  Name = 
REMARK  7 active torsions:
REMARK  status: ('A' for Active; 'I' for Inactive)
REMARK    1  A    between atoms: C_1  and  C_2
REMARK    2  A    between atoms: C_2  and  C_3
REMARK    3  A    between atoms: C_3  and  C_4
REMARK    4  A    between atoms: C_4  and  N_5
REMARK    5  A    between atoms: C_8  and  C_9
REMARK    6  A    between atoms: C_12  and  C_13
REMARK    7  A    between atoms: C_29  and  O_30
REMARK                            x       y       z     vdW  Elec       q    Type
REMARK                         _______ _______ _______ _____ _____    ______ ____
ROOT
ATOM      1  N   UNL     1      -3.205  12.125  18.621  0.00  0.00    +0.000 NA
ATOM      2  C   UNL     1      -2.118  12.092  19.314  0.00  0.00    +0.000 C 
ATOM      3  C   UNL     1      -0.853  11.381  18.886  0.00  0.00    +0.000 C 
ATOM      4  C   UNL     1      -0.414  10.452  20.026  0.00  0.00    +0.000 C 
ATOM      5  C   UNL     1      -0.063  11.293  21.257  0.00  0.00    +0.000 C 
ATOM      6  C   UNL     1      -1.116  12.327  21.585  0.00  0.00    +0.000 A 
ATOM      7  N   UNL     1      -1.033  12.861  22.833  0.00  0.00    +0.000 NA
ATOM      8  C   UNL     1      -1.895  13.827  23.195  0.00  0.00    +0.000 A 
ATOM      9  C   UNL     1      -1.800  14.362  24.473  0.00  0.00    +0.000 A 
ATOM     10  C   UNL     1      -2.658  15.372  24.922  0.00  0.00    +0.000 A 
ATOM     11  C   UNL     1      -3.632  15.866  24.066  0.00  0.00    +0.000 A 
ATOM     12 CL   UNL     1      -4.704  17.099  24.599  0.00  0.00    +0.000 Cl
ATOM     13  C   UNL     1      -3.742  15.364  22.774  0.00  0.00    +0.000 A 
ATOM     14  C   UNL     1      -2.880  14.335  22.322  0.00  0.00    +0.000 A 
ATOM     15  C   UNL     1      -2.926  13.786  21.028  0.00  0.00    +0.000 A 
ATOM     16  C   UNL     1      -2.060  12.756  20.650  0.00  0.00    +0.000 A 
ENDROOT
BRANCH   4  17
ATOM     17  C   UNL     1       0.712   9.552  19.545  0.00  0.00    +0.000 A 
ATOM     18  C   UNL     1       1.233   9.664  18.248  0.00  0.00    +0.000 A 
ATOM     19  C   UNL     1       2.138   8.721  17.758  0.00  0.00    +0.000 A 
ATOM     20  C   UNL     1       2.553   7.649  18.559  0.00  0.00    +0.000 A 
ATOM     21  C   UNL     1       2.083   7.570  19.877  0.00  0.00    +0.000 A 
ATOM     22  C   UNL     1       1.172   8.512  20.365  0.00  0.00    +0.000 A 
BRANCH  20  23
ATOM     23  C   UNL     1       3.458   6.573  18.010  0.00  0.00    +0.000 C 
ATOM     24  F   UNL     1       4.226   6.988  16.963  0.00  0.00    +0.000 F 
ATOM     25  F   UNL     1       4.325   6.088  18.940  0.00  0.00    +0.000 F 
ATOM     26  F   UNL     1       2.762   5.496  17.550  0.00  0.00    +0.000 F 
ENDBRANCH  20  23
ENDBRANCH   4  17
BRANCH  15  27
ATOM     27  O   UNL     1      -3.772  14.338  20.097  0.00  0.00    +0.000 OA
ATOM     28  H   UNL     1      -4.395  13.661  19.796  0.00  0.00    +0.000 HD
ENDBRANCH  15  27
BRANCH   1  29
ATOM     29  C   UNL     1      -3.257  11.530  17.293  0.00  0.00    +0.000 C 
BRANCH  29  30
ATOM     30  C   UNL     1      -3.401  10.018  17.458  0.00  0.00    +0.000 C 
BRANCH  30  32
ATOM     31  C   UNL     1      -2.928  10.006  14.983  0.00  0.00    +0.000 C 
ATOM     32  C   UNL     1      -2.738   9.273  16.301  0.00  0.00    +0.000 C 
ENDBRANCH  30  32
ENDBRANCH  29  30
ENDBRANCH   1  29
TORSDOF 6
ENDMDL
MODEL 6
REMARK VINA RESULT:      -7.7      4.222      6.970
REMARK  Name = 
REMARK  7 active torsions:
REMARK  status: ('A' for Active; 'I' for Inactive)
REMARK    1  A    between atoms: C_1  and  C_2
REMARK    2  A    between atoms: C_2  and  C_3
REMARK    3  A    between atoms: C_3  and  C_4
REMARK    4  A    between atoms: C_4  and  N_5
REMARK    5  A    between atoms: C_8  and  C_9
REMARK    6  A    between atoms: C_12  and  C_13
REMARK    7  A    between atoms: C_29  and  O_30
REMARK                            x       y       z     vdW  Elec       q    Type
REMARK                         _______ _______ _______ _____ _____    ______ ____
ROOT
ATOM      1  N   UNL     1      -3.437  11.973  18.993  0.00  0.00    +0.000 NA
ATOM      2  C   UNL     1      -2.291  12.010  19.582  0.00  0.00    +0.000 C 
ATOM      3  C   UNL     1      -1.051  11.303  19.084  0.00  0.00    +0.000 C 
ATOM      4  C   UNL     1      -0.483  10.459  20.232  0.00  0.00    +0.000 C 
ATOM      5  C   UNL     1      -0.046  11.384  21.372  0.00  0.00    +0.000 C 
ATOM      6  C   UNL     1      -1.094  12.412  21.732  0.00  0.00    +0.000 A 
ATOM      7  N   UNL     1      -0.914  13.025  22.933  0.00  0.00    +0.000 NA
ATOM      8  C   UNL     1      -1.766  13.992  23.313  0.00  0.00    +0.000 A 
ATOM      9  C   UNL     1      -1.571  14.609  24.542  0.00  0.00    +0.000 A 
ATOM     10  C   UNL     1      -2.413  15.626  25.006  0.00  0.00    +0.000 A 
ATOM     11  C   UNL     1      -3.476  16.041  24.216  0.00  0.00    +0.000 A 
ATOM     12 CL   UNL     1      -4.530  17.280  24.770  0.00  0.00    +0.000 Cl
ATOM     13  C   UNL     1      -3.688  15.456  22.973  0.00  0.00    +0.000 A 
ATOM     14  C   UNL     1      -2.841  14.421  22.507  0.00  0.00    +0.000 A 
ATOM     15  C   UNL     1      -2.989  13.790  21.258  0.00  0.00    +0.000 A 
ATOM     16  C   UNL     1      -2.132  12.758  20.865  0.00  0.00    +0.000 A 
ENDROOT
BRANCH   4  17
ATOM     17  C   UNL     1       0.621   9.557  19.705  0.00  0.00    +0.000 A 
ATOM     18  C   UNL     1       1.055   9.636  18.374  0.00  0.00    +0.000 A 
ATOM     19  C   UNL     1       1.938   8.688  17.853  0.00  0.00    +0.000 A 
ATOM     20  C   UNL     1       2.416   7.644  18.655  0.00  0.00    +0.000 A 
ATOM     21  C   UNL     1       2.034   7.598  20.003  0.00  0.00    +0.000 A 
ATOM     22  C   UNL     1       1.145   8.545  20.522  0.00  0.00    +0.000 A 
BRANCH  20  23
ATOM     23  C   UNL     1       3.297   6.562  18.079  0.00  0.00    +0.000 C 
ATOM     24  F   UNL     1       4.069   6.984  17.039  0.00  0.00    +0.000 F 
ATOM     25  F   UNL     1       4.157   6.039  18.995  0.00  0.00    +0.000 F 
ATOM     26  F   UNL     1       2.576   5.510  17.598  0.00  0.00    +0.000 F 
ENDBRANCH  20  23
ENDBRANCH   4  17
BRANCH  15  27
ATOM     27  O   UNL     1      -3.931  14.262  20.378  0.00  0.00    +0.000 OA
ATOM     28  H   UNL     1      -3.599  15.072  19.963  0.00  0.00    +0.000 HD
ENDBRANCH  15  27
BRANCH   1  29
ATOM     29  C   UNL     1      -3.593  11.295  17.714  0.00  0.00    +0.000 C 
BRANCH  29  30
ATOM     30  C   UNL     1      -5.088  11.122  17.450  0.00  0.00    +0.000 C 
BRANCH  30  32
ATOM     31  C   UNL     1      -6.804  10.186  19.039  0.00  0.00    +0.000 C 
ATOM     32  C   UNL     1      -5.902  11.367  18.719  0.00  0.00    +0.000 C 
ENDBRANCH  30  32
ENDBRANCH  29  30
ENDBRANCH   1  29
TORSDOF 6
ENDMDL
MODEL 7
REMARK VINA RESULT:      -7.6      6.633     10.656
REMARK  Name = 
REMARK  7 active torsions:
REMARK  status: ('A' for Active; 'I' for Inactive)
REMARK    1  A    between atoms: C_1  and  C_2
REMARK    2  A    between atoms: C_2  and  C_3
REMARK    3  A    between atoms: C_3  and  C_4
REMARK    4  A    between atoms: C_4  and  N_5
REMARK    5  A    between atoms: C_8  and  C_9
REMARK    6  A    between atoms: C_12  and  C_13
REMARK    7  A    between atoms: C_29  and  O_30
REMARK                            x       y       z     vdW  Elec       q    Type
REMARK                         _______ _______ _______ _____ _____    ______ ____
ROOT
ATOM      1  N   UNL     1       1.886  11.688  18.434  0.00  0.00    +0.000 NA
ATOM      2  C   UNL     1       1.134  11.043  19.259  0.00  0.00    +0.000 C 
ATOM      3  C   UNL     1       0.010  11.665  20.058  0.00  0.00    +0.000 C 
ATOM      4  C   UNL     1       0.214  11.307  21.536  0.00  0.00    +0.000 C 
ATOM      5  C   UNL     1       0.101   9.790  21.708  0.00  0.00    +0.000 C 
ATOM      6  C   UNL     1       0.919   9.018  20.699  0.00  0.00    +0.000 A 
ATOM      7  N   UNL     1       1.131   7.710  21.004  0.00  0.00    +0.000 NA
ATOM      8  C   UNL     1       1.803   6.932  20.139  0.00  0.00    +0.000 A 
ATOM      9  C   UNL     1       2.013   5.597  20.464  0.00  0.00    +0.000 A 
ATOM     10  C   UNL     1       2.700   4.724  19.614  0.00  0.00    +0.000 A 
ATOM     11  C   UNL     1       3.184   5.196  18.401  0.00  0.00    +0.000 A 
ATOM     12 CL   UNL     1       4.040   4.144  17.347  0.00  0.00    +0.000 Cl
ATOM     13  C   UNL     1       2.975   6.522  18.039  0.00  0.00    +0.000 A 
ATOM     14  C   UNL     1       2.288   7.409  18.903  0.00  0.00    +0.000 A 
ATOM     15  C   UNL     1       2.031   8.758  18.598  0.00  0.00    +0.000 A 
ATOM     16  C   UNL     1       1.366   9.588  19.505  0.00  0.00    +0.000 A 
ENDROOT
BRANCH   4  17
ATOM     17  C   UNL     1      -0.755  12.105  22.392  0.00  0.00    +0.000 A 
ATOM     18  C   UNL     1      -1.936  11.532  22.886  0.00  0.00    +0.000 A 
ATOM     19  C   UNL     1      -2.901  12.319  23.517  0.00  0.00    +0.000 A 
ATOM     20  C   UNL     1      -2.704  13.696  23.680  0.00  0.00    +0.000 A 
ATOM     21  C   UNL     1      -1.497  14.261  23.244  0.00  0.00    +0.000 A 
ATOM     22  C   UNL     1      -0.533  13.473  22.606  0.00  0.00    +0.000 A 
BRANCH  20  23
ATOM     23  C   UNL     1      -3.779  14.570  24.277  0.00  0.00    +0.000 C 
ATOM     24  F   UNL     1      -4.955  13.917  24.493  0.00  0.00    +0.000 F 
ATOM     25  F   UNL     1      -3.421  15.102  25.477  0.00  0.00    +0.000 F 
ATOM     26  F   UNL     1      -4.089  15.629  23.476  0.00  0.00    +0.000 F 
ENDBRANCH  20  23
ENDBRANCH   4  17
BRANCH  15  27
ATOM     27  O   UNL     1       2.359   9.236  17.354  0.00  0.00    +0.000 OA
ATOM     28  H   UNL     1       3.307   9.435  17.331  0.00  0.00    +0.000 HD
ENDBRANCH  15  27
BRANCH   1  29
ATOM     29  C   UNL     1       1.635  13.093  18.144  0.00  0.00    +0.000 C 
BRANCH  29  30
ATOM     30  C   UNL     1       2.594  13.928  18.989  0.00  0.00    +0.000 C 
BRANCH  30  32
ATOM     31  C   UNL     1       3.550  15.673  17.443  0.00  0.00    +0.000 C 
ATOM     32  C   UNL     1       3.809  14.365  18.172  0.00  0.00    +0.000 C 
ENDBRANCH  30  32
ENDBRANCH  29  30
ENDBRANCH   1  29
TORSDOF 6
ENDMDL
MODEL 8
REMARK VINA RESULT:      -7.6      6.733     10.615
REMARK  Name = 
REMARK  7 active torsions:
REMARK  status: ('A' for Active; 'I' for Inactive)
REMARK    1  A    between atoms: C_1  and  C_2
REMARK    2  A    between atoms: C_2  and  C_3
REMARK    3  A    between atoms: C_3  and  C_4
REMARK    4  A    between atoms: C_4  and  N_5
REMARK    5  A    between atoms: C_8  and  C_9
REMARK    6  A    between atoms: C_12  and  C_13
REMARK    7  A    between atoms: C_29  and  O_30
REMARK                            x       y       z     vdW  Elec       q    Type
REMARK                         _______ _______ _______ _____ _____    ______ ____
ROOT
ATOM      1  N   UNL     1       2.059  11.713  18.291  0.00  0.00    +0.000 NA
ATOM      2  C   UNL     1       1.245  11.159  19.123  0.00  0.00    +0.000 C 
ATOM      3  C   UNL     1       0.131  11.887  19.843  0.00  0.00    +0.000 C 
ATOM      4  C   UNL     1       0.264  11.606  21.345  0.00  0.00    +0.000 C 
ATOM      5  C   UNL     1       0.060  10.109  21.599  0.00  0.00    +0.000 C 
ATOM      6  C   UNL     1       0.868   9.237  20.665  0.00  0.00    +0.000 A 
ATOM      7  N   UNL     1       0.995   7.939  21.052  0.00  0.00    +0.000 NA
ATOM      8  C   UNL     1       1.652   7.076  20.257  0.00  0.00    +0.000 A 
ATOM      9  C   UNL     1       1.775   5.754  20.665  0.00  0.00    +0.000 A 
ATOM     10  C   UNL     1       2.440   4.796  19.892  0.00  0.00    +0.000 A 
ATOM     11  C   UNL     1       2.991   5.170  18.673  0.00  0.00    +0.000 A 
ATOM     12 CL   UNL     1       3.822   4.013  17.712  0.00  0.00    +0.000 Cl
ATOM     13  C   UNL     1       2.870   6.482  18.229  0.00  0.00    +0.000 A 
ATOM     14  C   UNL     1       2.204   7.453  19.015  0.00  0.00    +0.000 A 
ATOM     15  C   UNL     1       2.034   8.794  18.626  0.00  0.00    +0.000 A 
ATOM     16  C   UNL     1       1.386   9.711  19.458  0.00  0.00    +0.000 A 
ENDROOT
BRANCH   4  17
ATOM     17  C   UNL     1      -0.687  12.504  22.118  0.00  0.00    +0.000 A 
ATOM     18  C   UNL     1      -0.363  13.838  22.402  0.00  0.00    +0.000 A 
ATOM     19  C   UNL     1      -1.159  14.598  23.261  0.00  0.00    +0.000 A 
ATOM     20  C   UNL     1      -2.304  14.045  23.849  0.00  0.00    +0.000 A 
ATOM     21  C   UNL     1      -2.665  12.732  23.518  0.00  0.00    +0.000 A 
ATOM     22  C   UNL     1      -1.864  11.969  22.662  0.00  0.00    +0.000 A 
BRANCH  20  23
ATOM     23  C   UNL     1      -3.118  14.827  24.850  0.00  0.00    +0.000 C 
ATOM     24  F   UNL     1      -2.751  16.135  24.950  0.00  0.00    +0.000 F 
ATOM     25  F   UNL     1      -4.448  14.833  24.559  0.00  0.00    +0.000 F 
ATOM     26  F   UNL     1      -3.014  14.319  26.111  0.00  0.00    +0.000 F 
ENDBRANCH  20  23
ENDBRANCH   4  17
BRANCH  15  27
ATOM     27  O   UNL     1       2.431   9.181  17.369  0.00  0.00    +0.000 OA
ATOM     28  H   UNL     1       3.273   9.655  17.435  0.00  0.00    +0.000 HD
ENDBRANCH  15  27
BRANCH   1  29
ATOM     29  C   UNL     1       1.897  13.110  17.913  0.00  0.00    +0.000 C 
BRANCH  29  30
ATOM     30  C   UNL     1       3.021  13.911  18.570  0.00  0.00    +0.000 C 
BRANCH  30  32
ATOM     31  C   UNL     1       3.163  14.013  21.083  0.00  0.00    +0.000 C 
ATOM     32  C   UNL     1       2.530  14.609  19.836  0.00  0.00    +0.000 C 
ENDBRANCH  30  32
ENDBRANCH  29  30
ENDBRANCH   1  29
TORSDOF 6
ENDMDL
MODEL 9
REMARK VINA RESULT:      -7.5      6.405     10.348
REMARK  Name = 
REMARK  7 active torsions:
REMARK  status: ('A' for Active; 'I' for Inactive)
REMARK    1  A    between atoms: C_1  and  C_2
REMARK    2  A    between atoms: C_2  and  C_3
REMARK    3  A    between atoms: C_3  and  C_4
REMARK    4  A    between atoms: C_4  and  N_5
REMARK    5  A    between atoms: C_8  and  C_9
REMARK    6  A    between atoms: C_12  and  C_13
REMARK    7  A    between atoms: C_29  and  O_30
REMARK                            x       y       z     vdW  Elec       q    Type
REMARK                         _______ _______ _______ _____ _____    ______ ____
ROOT
ATOM      1  N   UNL     1       2.012  11.176  18.214  0.00  0.00    +0.000 NA
ATOM      2  C   UNL     1       1.196  10.517  18.963  0.00  0.00    +0.000 C 
ATOM      3  C   UNL     1      -0.058  11.097  19.578  0.00  0.00    +0.000 C 
ATOM      4  C   UNL     1      -0.032  10.812  21.085  0.00  0.00    +0.000 C 
ATOM      5  C   UNL     1      -0.078   9.299  21.315  0.00  0.00    +0.000 C 
ATOM      6  C   UNL     1       0.912   8.542  20.459  0.00  0.00    +0.000 A 
ATOM      7  N   UNL     1       1.158   7.263  20.852  0.00  0.00    +0.000 NA
ATOM      8  C   UNL     1       1.984   6.496  20.120  0.00  0.00    +0.000 A 
ATOM      9  C   UNL     1       2.226   5.193  20.534  0.00  0.00    +0.000 A 
ATOM     10  C   UNL     1       3.071   4.332  19.824  0.00  0.00    +0.000 A 
ATOM     11  C   UNL     1       3.684   4.786  18.663  0.00  0.00    +0.000 A 
ATOM     12 CL   UNL     1       4.733   3.750  17.781  0.00  0.00    +0.000 Cl
ATOM     13  C   UNL     1       3.447   6.080  18.213  0.00  0.00    +0.000 A 
ATOM     14  C   UNL     1       2.600   6.954  18.937  0.00  0.00    +0.000 A 
ATOM     15  C   UNL     1       2.307   8.270  18.536  0.00  0.00    +0.000 A 
ATOM     16  C   UNL     1       1.479   9.092  19.307  0.00  0.00    +0.000 A 
ENDROOT
BRANCH   4  17
ATOM     17  C   UNL     1      -1.152  11.580  21.769  0.00  0.00    +0.000 A 
ATOM     18  C   UNL     1      -1.521  11.307  23.093  0.00  0.00    +0.000 A 
ATOM     19  C   UNL     1      -2.662  11.889  23.651  0.00  0.00    +0.000 A 
ATOM     20  C   UNL     1      -3.454  12.766  22.899  0.00  0.00    +0.000 A 
ATOM     21  C   UNL     1      -3.053  13.089  21.595  0.00  0.00    +0.000 A 
ATOM     22  C   UNL     1      -1.914  12.501  21.036  0.00  0.00    +0.000 A 
BRANCH  20  23
ATOM     23  C   UNL     1      -4.738  13.327  23.459  0.00  0.00    +0.000 C 
ATOM     24  F   UNL     1      -5.194  12.658  24.555  0.00  0.00    +0.000 F 
ATOM     25  F   UNL     1      -4.623  14.630  23.839  0.00  0.00    +0.000 F 
ATOM     26  F   UNL     1      -5.758  13.290  22.555  0.00  0.00    +0.000 F 
ENDBRANCH  20  23
ENDBRANCH   4  17
BRANCH  15  27
ATOM     27  O   UNL     1       2.769   8.719  17.323  0.00  0.00    +0.000 OA
ATOM     28  H   UNL     1       3.671   9.054  17.433  0.00  0.00    +0.000 HD
ENDBRANCH  15  27
BRANCH   1  29
ATOM     29  C   UNL     1       1.720  12.549  17.825  0.00  0.00    +0.000 C 
BRANCH  29  30
ATOM     30  C   UNL     1       2.577  13.476  18.686  0.00  0.00    +0.000 C 
BRANCH  30  32
ATOM     31  C   UNL     1       0.410  14.731  18.961  0.00  0.00    +0.000 C 
ATOM     32  C   UNL     1       1.710  14.310  19.627  0.00  0.00    +0.000 C 
ENDBRANCH  30  32
ENDBRANCH  29  30
ENDBRANCH   1  29
TORSDOF 6
ENDMDL
