MODEL 1
REMARK VINA RESULT:      -5.2      0.000      0.000
REMARK  Name = 
REMARK  13 active torsions:
REMARK  status: ('A' for Active; 'I' for Inactive)
REMARK    1  A    between atoms: C_1  and  C_2
REMARK    2  A    between atoms: C_2  and  CA_3
REMARK    3  A    between atoms: CA_3  and  C_4
REMARK    4  A    between atoms: CA_3  and  N_6
REMARK    5  A    between atoms: C_4  and  O_5
REMARK    6  A    between atoms: N_6  and  C_7
REMARK    7  A    between atoms: C_7  and  C_8
REMARK    8  A    between atoms: C_8  and  N_9
REMARK    9  A    between atoms: N_9  and  CA_10
REMARK   10  A    between atoms: CA_10  and  C_11
REMARK   11  A    between atoms: CA_10  and  C_13
REMARK   12  A    between atoms: C_11  and  C_12
REMARK   13  A    between atoms: C_13  and  O_14
REMARK                            x       y       z     vdW  Elec       q    Type
REMARK                         _______ _______ _______ _____ _____    ______ ____
ROOT
ATOM      1  C   UNL     1       5.225   5.000  19.168  0.00  0.00    +0.000 C 
ENDROOT
BRANCH   1   2
ATOM      2  N   UNL     1       6.198   4.007  18.608  0.00  0.00    +0.000 NA
ATOM      3  H   UNL     1       6.556   3.440  19.398  0.00  0.00    +0.000 HD
BRANCH   2   4
ATOM      4  CA  UNL     1       7.337   4.650  17.923  0.00  0.00    +0.000 C 
BRANCH   4   6
ATOM      5  C   UNL     1       7.551   7.227  17.428  0.00  0.00    +0.000 C 
ATOM      6  C   UNL     1       7.574   6.104  18.469  0.00  0.00    +0.000 C 
ENDBRANCH   4   6
BRANCH   4   7
ATOM      7  C   UNL     1       7.073   4.740  16.411  0.00  0.00    +0.000 C 
BRANCH   7   8
ATOM      8  O   UNL     1       6.281   3.666  15.967  0.00  0.00    +0.000 OA
ATOM      9  H   UNL     1       6.673   2.842  16.357  0.00  0.00    +0.000 HD
ENDBRANCH   7   8
ENDBRANCH   4   7
ENDBRANCH   2   4
ENDBRANCH   1   2
BRANCH   1  10
ATOM     10  C   UNL     1       3.975   5.033  18.316  0.00  0.00    +0.000 C 
BRANCH  10  11
ATOM     11  N   UNL     1       2.785   4.816  19.131  0.00  0.00    +0.000 NA
ATOM     12  H   UNL     1       2.342   5.727  19.426  0.00  0.00    +0.000 HD
BRANCH  11  13
ATOM     13  CA  UNL     1       1.792   3.925  18.516  0.00  0.00    +0.000 C 
BRANCH  13  14
ATOM     14  C   UNL     1       1.020   3.087  19.569  0.00  0.00    +0.000 C 
ATOM     15  C   UNL     1       1.438   3.400  21.008  0.00  0.00    +0.000 C 
ENDBRANCH  13  14
BRANCH  13  16
ATOM     16  C   UNL     1       2.504   3.019  17.503  0.00  0.00    +0.000 C 
BRANCH  16  17
ATOM     17  O   UNL     1       2.327   1.669  17.830  0.00  0.00    +0.000 OA
ATOM     18  H   UNL     1       1.349   1.516  17.882  0.00  0.00    +0.000 HD
ENDBRANCH  16  17
ENDBRANCH  13  16
ENDBRANCH  11  13
ENDBRANCH  10  11
ENDBRANCH   1  10
TORSDOF 11
ENDMDL
MODEL 2
REMARK VINA RESULT:      -5.2      1.769      2.339
REMARK  Name = 
REMARK  13 active torsions:
REMARK  status: ('A' for Active; 'I' for Inactive)
REMARK    1  A    between atoms: C_1  and  C_2
REMARK    2  A    between atoms: C_2  and  CA_3
REMARK    3  A    between atoms: CA_3  and  C_4
REMARK    4  A    between atoms: CA_3  and  N_6
REMARK    5  A    between atoms: C_4  and  O_5
REMARK    6  A    between atoms: N_6  and  C_7
REMARK    7  A    between atoms: C_7  and  C_8
REMARK    8  A    between atoms: C_8  and  N_9
REMARK    9  A    between atoms: N_9  and  CA_10
REMARK   10  A    between atoms: CA_10  and  C_11
REMARK   11  A    between atoms: CA_10  and  C_13
REMARK   12  A    between atoms: C_11  and  C_12
REMARK   13  A    between atoms: C_13  and  O_14
REMARK                            x       y       z     vdW  Elec       q    Type
REMARK                         _______ _______ _______ _____ _____    ______ ____
ROOT
ATOM      1  C   UNL     1       3.049   5.410  17.854  0.00  0.00    +0.000 C 
ENDROOT
BRANCH   1   2
ATOM      2  N   UNL     1       4.081   4.639  17.087  0.00  0.00    +0.000 NA
ATOM      3  H   UNL     1       4.346   3.817  17.660  0.00  0.00    +0.000 HD
BRANCH   2   4
ATOM      4  CA  UNL     1       5.291   5.435  16.800  0.00  0.00    +0.000 C 
BRANCH   4   6
ATOM      5  C   UNL     1       6.948   4.727  14.881  0.00  0.00    +0.000 C 
ATOM      6  C   UNL     1       5.632   5.408  15.267  0.00  0.00    +0.000 C 
ENDBRANCH   4   6
BRANCH   4   7
ATOM      7  C   UNL     1       6.497   4.876  17.572  0.00  0.00    +0.000 C 
BRANCH   7   8
ATOM      8  O   UNL     1       6.116   3.817  18.416  0.00  0.00    +0.000 OA
ATOM      9  H   UNL     1       5.214   4.040  18.763  0.00  0.00    +0.000 HD
ENDBRANCH   7   8
ENDBRANCH   4   7
ENDBRANCH   2   4
ENDBRANCH   1   2
BRANCH   1  10
ATOM     10  C   UNL     1       1.727   4.676  17.820  0.00  0.00    +0.000 C 
BRANCH  10  11
ATOM     11  N   UNL     1       1.919   3.278  17.454  0.00  0.00    +0.000 NA
ATOM     12  H   UNL     1       2.857   3.118  16.999  0.00  0.00    +0.000 HD
BRANCH  11  13
ATOM     13  CA  UNL     1       1.704   2.334  18.559  0.00  0.00    +0.000 C 
BRANCH  13  14
ATOM     14  C   UNL     1       0.854   2.949  19.703  0.00  0.00    +0.000 C 
ATOM     15  C   UNL     1       1.468   2.734  21.089  0.00  0.00    +0.000 C 
ENDBRANCH  13  14
BRANCH  13  16
ATOM     16  C   UNL     1       3.069   1.864  19.078  0.00  0.00    +0.000 C 
BRANCH  16  17
ATOM     17  O   UNL     1       3.988   1.747  18.028  0.00  0.00    +0.000 OA
ATOM     18  H   UNL     1       3.466   1.794  17.187  0.00  0.00    +0.000 HD
ENDBRANCH  16  17
ENDBRANCH  13  16
ENDBRANCH  11  13
ENDBRANCH  10  11
ENDBRANCH   1  10
TORSDOF 11
ENDMDL
MODEL 3
REMARK VINA RESULT:      -5.1      1.632      5.821
REMARK  Name = 
REMARK  13 active torsions:
REMARK  status: ('A' for Active; 'I' for Inactive)
REMARK    1  A    between atoms: C_1  and  C_2
REMARK    2  A    between atoms: C_2  and  CA_3
REMARK    3  A    between atoms: CA_3  and  C_4
REMARK    4  A    between atoms: CA_3  and  N_6
REMARK    5  A    between atoms: C_4  and  O_5
REMARK    6  A    between atoms: N_6  and  C_7
REMARK    7  A    between atoms: C_7  and  C_8
REMARK    8  A    between atoms: C_8  and  N_9
REMARK    9  A    between atoms: N_9  and  CA_10
REMARK   10  A    between atoms: CA_10  and  C_11
REMARK   11  A    between atoms: CA_10  and  C_13
REMARK   12  A    between atoms: C_11  and  C_12
REMARK   13  A    between atoms: C_13  and  O_14
REMARK                            x       y       z     vdW  Elec       q    Type
REMARK                         _______ _______ _______ _____ _____    ______ ____
ROOT
ATOM      1  C   UNL     1       3.899   4.124  17.682  0.00  0.00    +0.000 C 
ENDROOT
BRANCH   1   2
ATOM      2  N   UNL     1       2.592   3.527  17.252  0.00  0.00    +0.000 NA
ATOM      3  H   UNL     1       1.847   4.210  17.479  0.00  0.00    +0.000 HD
BRANCH   2   4
ATOM      4  CA  UNL     1       2.299   2.250  17.932  0.00  0.00    +0.000 C 
BRANCH   4   6
ATOM      5  C   UNL     1       1.061   3.002  20.131  0.00  0.00    +0.000 C 
ATOM      6  C   UNL     1       0.961   2.344  18.751  0.00  0.00    +0.000 C 
ENDBRANCH   4   6
BRANCH   4   7
ATOM      7  C   UNL     1       3.433   1.886  18.902  0.00  0.00    +0.000 C 
BRANCH   7   8
ATOM      8  O   UNL     1       4.127   0.742  18.469  0.00  0.00    +0.000 OA
ATOM      9  H   UNL     1       5.085   0.993  18.414  0.00  0.00    +0.000 HD
ENDBRANCH   7   8
ENDBRANCH   4   7
ENDBRANCH   2   4
ENDBRANCH   1   2
BRANCH   1  10
ATOM     10  C   UNL     1       4.904   4.030  16.554  0.00  0.00    +0.000 C 
BRANCH  10  11
ATOM     11  N   UNL     1       6.262   3.929  17.076  0.00  0.00    +0.000 NA
ATOM     12  H   UNL     1       6.629   2.941  17.024  0.00  0.00    +0.000 HD
BRANCH  11  13
ATOM     13  CA  UNL     1       7.209   4.873  16.468  0.00  0.00    +0.000 C 
BRANCH  13  14
ATOM     14  C   UNL     1       7.242   6.236  17.210  0.00  0.00    +0.000 C 
ATOM     15  C   UNL     1       7.701   6.115  18.666  0.00  0.00    +0.000 C 
ENDBRANCH  13  14
BRANCH  13  16
ATOM     16  C   UNL     1       6.840   5.058  14.991  0.00  0.00    +0.000 C 
BRANCH  16  17
ATOM     17  O   UNL     1       7.940   5.516  14.255  0.00  0.00    +0.000 OA
ATOM     18  H   UNL     1       8.213   6.378  14.660  0.00  0.00    +0.000 HD
ENDBRANCH  16  17
ENDBRANCH  13  16
ENDBRANCH  11  13
ENDBRANCH  10  11
ENDBRANCH   1  10
TORSDOF 11
ENDMDL
MODEL 4
REMARK VINA RESULT:      -5.1      1.515      5.646
REMARK  Name = 
REMARK  13 active torsions:
REMARK  status: ('A' for Active; 'I' for Inactive)
REMARK    1  A    between atoms: C_1  and  C_2
REMARK    2  A    between atoms: C_2  and  CA_3
REMARK    3  A    between atoms: CA_3  and  C_4
REMARK    4  A    between atoms: CA_3  and  N_6
REMARK    5  A    between atoms: C_4  and  O_5
REMARK    6  A    between atoms: N_6  and  C_7
REMARK    7  A    between atoms: C_7  and  C_8
REMARK    8  A    between atoms: C_8  and  N_9
REMARK    9  A    between atoms: N_9  and  CA_10
REMARK   10  A    between atoms: CA_10  and  C_11
REMARK   11  A    between atoms: CA_10  and  C_13
REMARK   12  A    between atoms: C_11  and  C_12
REMARK   13  A    between atoms: C_13  and  O_14
REMARK                            x       y       z     vdW  Elec       q    Type
REMARK                         _______ _______ _______ _____ _____    ______ ____
ROOT
ATOM      1  C   UNL     1       3.218   5.104  17.761  0.00  0.00    +0.000 C 
ENDROOT
BRANCH   1   2
ATOM      2  N   UNL     1       3.098   4.687  19.196  0.00  0.00    +0.000 NA
ATOM      3  H   UNL     1       4.006   4.882  19.655  0.00  0.00    +0.000 HD
BRANCH   2   4
ATOM      4  CA  UNL     1       2.781   3.253  19.348  0.00  0.00    +0.000 C 
BRANCH   4   6
ATOM      5  C   UNL     1       1.574   2.737  21.630  0.00  0.00    +0.000 C 
ATOM      6  C   UNL     1       1.437   3.054  20.138  0.00  0.00    +0.000 C 
ENDBRANCH   4   6
BRANCH   4   7
ATOM      7  C   UNL     1       3.902   2.533  20.115  0.00  0.00    +0.000 C 
BRANCH   7   8
ATOM      8  O   UNL     1       5.084   2.476  19.355  0.00  0.00    +0.000 OA
ATOM      9  H   UNL     1       5.584   3.312  19.543  0.00  0.00    +0.000 HD
ENDBRANCH   7   8
ENDBRANCH   4   7
ENDBRANCH   2   4
ENDBRANCH   1   2
BRANCH   1  10
ATOM     10  C   UNL     1       4.560   5.764  17.527  0.00  0.00    +0.000 C 
BRANCH  10  11
ATOM     11  N   UNL     1       5.504   5.407  18.579  0.00  0.00    +0.000 NA
ATOM     12  H   UNL     1       5.455   4.380  18.817  0.00  0.00    +0.000 HD
BRANCH  11  13
ATOM     13  CA  UNL     1       6.888   5.817  18.306  0.00  0.00    +0.000 C 
BRANCH  13  14
ATOM     14  C   UNL     1       6.970   6.946  17.245  0.00  0.00    +0.000 C 
ATOM     15  C   UNL     1       7.833   8.128  17.693  0.00  0.00    +0.000 C 
ENDBRANCH  13  14
BRANCH  13  16
ATOM     16  C   UNL     1       7.688   4.585  17.865  0.00  0.00    +0.000 C 
BRANCH  16  17
ATOM     17  O   UNL     1       7.823   4.549  16.472  0.00  0.00    +0.000 OA
ATOM     18  H   UNL     1       6.969   4.196  16.114  0.00  0.00    +0.000 HD
ENDBRANCH  16  17
ENDBRANCH  13  16
ENDBRANCH  11  13
ENDBRANCH  10  11
ENDBRANCH   1  10
TORSDOF 11
ENDMDL
MODEL 5
REMARK VINA RESULT:      -5.1      1.867      2.237
REMARK  Name = 
REMARK  13 active torsions:
REMARK  status: ('A' for Active; 'I' for Inactive)
REMARK    1  A    between atoms: C_1  and  C_2
REMARK    2  A    between atoms: C_2  and  CA_3
REMARK    3  A    between atoms: CA_3  and  C_4
REMARK    4  A    between atoms: CA_3  and  N_6
REMARK    5  A    between atoms: C_4  and  O_5
REMARK    6  A    between atoms: N_6  and  C_7
REMARK    7  A    between atoms: C_7  and  C_8
REMARK    8  A    between atoms: C_8  and  N_9
REMARK    9  A    between atoms: N_9  and  CA_10
REMARK   10  A    between atoms: CA_10  and  C_11
REMARK   11  A    between atoms: CA_10  and  C_13
REMARK   12  A    between atoms: C_11  and  C_12
REMARK   13  A    between atoms: C_13  and  O_14
REMARK                            x       y       z     vdW  Elec       q    Type
REMARK                         _______ _______ _______ _____ _____    ______ ____
ROOT
ATOM      1  C   UNL     1       5.307   4.310  17.827  0.00  0.00    +0.000 C 
ENDROOT
BRANCH   1   2
ATOM      2  N   UNL     1       6.785   4.174  18.042  0.00  0.00    +0.000 NA
ATOM      3  H   UNL     1       6.956   4.199  19.063  0.00  0.00    +0.000 HD
BRANCH   2   4
ATOM      4  CA  UNL     1       7.555   5.257  17.398  0.00  0.00    +0.000 C 
BRANCH   4   6
ATOM      5  C   UNL     1       7.699   7.876  17.632  0.00  0.00    +0.000 C 
ATOM      6  C   UNL     1       7.646   6.515  18.334  0.00  0.00    +0.000 C 
ENDBRANCH   4   6
BRANCH   4   7
ATOM      7  C   UNL     1       6.886   5.683  16.082  0.00  0.00    +0.000 C 
BRANCH   7   8
ATOM      8  O   UNL     1       7.703   5.390  14.976  0.00  0.00    +0.000 OA
ATOM      9  H   UNL     1       7.142   5.506  14.167  0.00  0.00    +0.000 HD
ENDBRANCH   7   8
ENDBRANCH   4   7
ENDBRANCH   2   4
ENDBRANCH   1   2
BRANCH   1  10
ATOM     10  C   UNL     1       4.583   4.211  19.153  0.00  0.00    +0.000 C 
BRANCH  10  11
ATOM     11  N   UNL     1       4.627   2.848  19.668  0.00  0.00    +0.000 NA
ATOM     12  H   UNL     1       5.316   2.752  20.462  0.00  0.00    +0.000 HD
BRANCH  11  13
ATOM     13  CA  UNL     1       3.314   2.307  20.045  0.00  0.00    +0.000 C 
BRANCH  13  14
ATOM     14  C   UNL     1       2.460   1.917  18.809  0.00  0.00    +0.000 C 
ATOM     15  C   UNL     1       1.060   2.537  18.828  0.00  0.00    +0.000 C 
ENDBRANCH  13  14
BRANCH  13  16
ATOM     16  C   UNL     1       2.588   3.339  20.915  0.00  0.00    +0.000 C 
BRANCH  16  17
ATOM     17  O   UNL     1       2.422   2.864  22.221  0.00  0.00    +0.000 OA
ATOM     18  H   UNL     1       2.840   1.965  22.251  0.00  0.00    +0.000 HD
ENDBRANCH  16  17
ENDBRANCH  13  16
ENDBRANCH  11  13
ENDBRANCH  10  11
ENDBRANCH   1  10
TORSDOF 11
ENDMDL
MODEL 6
REMARK VINA RESULT:      -5.1      1.923      5.175
REMARK  Name = 
REMARK  13 active torsions:
REMARK  status: ('A' for Active; 'I' for Inactive)
REMARK    1  A    between atoms: C_1  and  C_2
REMARK    2  A    between atoms: C_2  and  CA_3
REMARK    3  A    between atoms: CA_3  and  C_4
REMARK    4  A    between atoms: CA_3  and  N_6
REMARK    5  A    between atoms: C_4  and  O_5
REMARK    6  A    between atoms: N_6  and  C_7
REMARK    7  A    between atoms: C_7  and  C_8
REMARK    8  A    between atoms: C_8  and  N_9
REMARK    9  A    between atoms: N_9  and  CA_10
REMARK   10  A    between atoms: CA_10  and  C_11
REMARK   11  A    between atoms: CA_10  and  C_13
REMARK   12  A    between atoms: C_11  and  C_12
REMARK   13  A    between atoms: C_13  and  O_14
REMARK                            x       y       z     vdW  Elec       q    Type
REMARK                         _______ _______ _______ _____ _____    ______ ____
ROOT
ATOM      1  C   UNL     1       3.580   6.019  18.824  0.00  0.00    +0.000 C 
ENDROOT
BRANCH   1   2
ATOM      2  N   UNL     1       4.087   4.712  19.357  0.00  0.00    +0.000 NA
ATOM      3  H   UNL     1       5.076   4.617  19.063  0.00  0.00    +0.000 HD
BRANCH   2   4
ATOM      4  CA  UNL     1       3.322   3.555  18.851  0.00  0.00    +0.000 C 
BRANCH   4   6
ATOM      5  C   UNL     1       0.889   2.550  18.786  0.00  0.00    +0.000 C 
ATOM      6  C   UNL     1       1.779   3.765  19.062  0.00  0.00    +0.000 C 
ENDBRANCH   4   6
BRANCH   4   7
ATOM      7  C   UNL     1       3.738   2.272  19.587  0.00  0.00    +0.000 C 
BRANCH   7   8
ATOM      8  O   UNL     1       5.126   2.244  19.817  0.00  0.00    +0.000 OA
ATOM      9  H   UNL     1       5.271   1.672  20.614  0.00  0.00    +0.000 HD
ENDBRANCH   7   8
ENDBRANCH   4   7
ENDBRANCH   2   4
ENDBRANCH   1   2
BRANCH   1  10
ATOM     10  C   UNL     1       4.072   6.222  17.408  0.00  0.00    +0.000 C 
BRANCH  10  11
ATOM     11  N   UNL     1       5.497   6.531  17.392  0.00  0.00    +0.000 NA
ATOM     12  H   UNL     1       5.893   6.597  18.368  0.00  0.00    +0.000 HD
BRANCH  11  13
ATOM     13  CA  UNL     1       6.297   5.621  16.561  0.00  0.00    +0.000 C 
BRANCH  13  14
ATOM     14  C   UNL     1       5.425   4.559  15.840  0.00  0.00    +0.000 C 
ATOM     15  C   UNL     1       6.075   4.014  14.566  0.00  0.00    +0.000 C 
ENDBRANCH  13  14
BRANCH  13  16
ATOM     16  C   UNL     1       7.361   4.956  17.443  0.00  0.00    +0.000 C 
BRANCH  16  17
ATOM     17  O   UNL     1       6.776   4.037  18.323  0.00  0.00    +0.000 OA
ATOM     18  H   UNL     1       7.253   3.178  18.193  0.00  0.00    +0.000 HD
ENDBRANCH  16  17
ENDBRANCH  13  16
ENDBRANCH  11  13
ENDBRANCH  10  11
ENDBRANCH   1  10
TORSDOF 11
ENDMDL
MODEL 7
REMARK VINA RESULT:      -5.0      2.070      5.636
REMARK  Name = 
REMARK  13 active torsions:
REMARK  status: ('A' for Active; 'I' for Inactive)
REMARK    1  A    between atoms: C_1  and  C_2
REMARK    2  A    between atoms: C_2  and  CA_3
REMARK    3  A    between atoms: CA_3  and  C_4
REMARK    4  A    between atoms: CA_3  and  N_6
REMARK    5  A    between atoms: C_4  and  O_5
REMARK    6  A    between atoms: N_6  and  C_7
REMARK    7  A    between atoms: C_7  and  C_8
REMARK    8  A    between atoms: C_8  and  N_9
REMARK    9  A    between atoms: N_9  and  CA_10
REMARK   10  A    between atoms: CA_10  and  C_11
REMARK   11  A    between atoms: CA_10  and  C_13
REMARK   12  A    between atoms: C_11  and  C_12
REMARK   13  A    between atoms: C_13  and  O_14
REMARK                            x       y       z     vdW  Elec       q    Type
REMARK                         _______ _______ _______ _____ _____    ______ ____
ROOT
ATOM      1  C   UNL     1       3.769   4.455  17.527  0.00  0.00    +0.000 C 
ENDROOT
BRANCH   1   2
ATOM      2  N   UNL     1       3.568   3.985  18.937  0.00  0.00    +0.000 NA
ATOM      3  H   UNL     1       4.505   3.862  19.362  0.00  0.00    +0.000 HD
BRANCH   2   4
ATOM      4  CA  UNL     1       2.834   2.706  19.012  0.00  0.00    +0.000 C 
BRANCH   4   6
ATOM      5  C   UNL     1       2.138   3.783  21.312  0.00  0.00    +0.000 C 
ATOM      6  C   UNL     1       1.951   2.639  20.309  0.00  0.00    +0.000 C 
ENDBRANCH   4   6
BRANCH   4   7
ATOM      7  C   UNL     1       3.817   1.524  19.037  0.00  0.00    +0.000 C 
BRANCH   7   8
ATOM      8  O   UNL     1       4.974   1.838  19.773  0.00  0.00    +0.000 OA
ATOM      9  H   UNL     1       5.307   0.987  20.158  0.00  0.00    +0.000 HD
ENDBRANCH   7   8
ENDBRANCH   4   7
ENDBRANCH   2   4
ENDBRANCH   1   2
BRANCH   1  10
ATOM     10  C   UNL     1       5.240   4.411  17.175  0.00  0.00    +0.000 C 
BRANCH  10  11
ATOM     11  N   UNL     1       6.062   4.384  18.380  0.00  0.00    +0.000 NA
ATOM     12  H   UNL     1       6.788   3.620  18.341  0.00  0.00    +0.000 HD
BRANCH  11  13
ATOM     13  CA  UNL     1       6.676   5.676  18.714  0.00  0.00    +0.000 C 
BRANCH  13  14
ATOM     14  C   UNL     1       6.705   6.647  17.504  0.00  0.00    +0.000 C 
ATOM     15  C   UNL     1       7.697   7.799  17.682  0.00  0.00    +0.000 C 
ENDBRANCH  13  14
BRANCH  13  16
ATOM     16  C   UNL     1       8.090   5.424  19.253  0.00  0.00    +0.000 C 
BRANCH  16  17
ATOM     17  O   UNL     1       8.111   5.491  20.651  0.00  0.00    +0.000 OA
ATOM     18  H   UNL     1       7.253   5.905  20.928  0.00  0.00    +0.000 HD
ENDBRANCH  16  17
ENDBRANCH  13  16
ENDBRANCH  11  13
ENDBRANCH  10  11
ENDBRANCH   1  10
TORSDOF 11
ENDMDL
MODEL 8
REMARK VINA RESULT:      -5.0      1.872      6.036
REMARK  Name = 
REMARK  13 active torsions:
REMARK  status: ('A' for Active; 'I' for Inactive)
REMARK    1  A    between atoms: C_1  and  C_2
REMARK    2  A    between atoms: C_2  and  CA_3
REMARK    3  A    between atoms: CA_3  and  C_4
REMARK    4  A    between atoms: CA_3  and  N_6
REMARK    5  A    between atoms: C_4  and  O_5
REMARK    6  A    between atoms: N_6  and  C_7
REMARK    7  A    between atoms: C_7  and  C_8
REMARK    8  A    between atoms: C_8  and  N_9
REMARK    9  A    between atoms: N_9  and  CA_10
REMARK   10  A    between atoms: CA_10  and  C_11
REMARK   11  A    between atoms: CA_10  and  C_13
REMARK   12  A    between atoms: C_11  and  C_12
REMARK   13  A    between atoms: C_13  and  O_14
REMARK                            x       y       z     vdW  Elec       q    Type
REMARK                         _______ _______ _______ _____ _____    ______ ____
ROOT
ATOM      1  C   UNL     1       3.920   3.369  18.205  0.00  0.00    +0.000 C 
ENDROOT
BRANCH   1   2
ATOM      2  N   UNL     1       2.801   4.367  18.195  0.00  0.00    +0.000 NA
ATOM      3  H   UNL     1       3.116   5.196  18.731  0.00  0.00    +0.000 HD
BRANCH   2   4
ATOM      4  CA  UNL     1       1.564   3.841  18.805  0.00  0.00    +0.000 C 
BRANCH   4   6
ATOM      5  C   UNL     1       1.718   3.143  21.339  0.00  0.00    +0.000 C 
ATOM      6  C   UNL     1       1.463   4.255  20.318  0.00  0.00    +0.000 C 
ENDBRANCH   4   6
BRANCH   4   7
ATOM      7  C   UNL     1       1.535   2.307  18.723  0.00  0.00    +0.000 C 
BRANCH   7   8
ATOM      8  O   UNL     1       0.260   1.840  18.355  0.00  0.00    +0.000 OA
ATOM      9  H   UNL     1      -0.331   2.635  18.303  0.00  0.00    +0.000 HD
ENDBRANCH   7   8
ENDBRANCH   4   7
ENDBRANCH   2   4
ENDBRANCH   1   2
BRANCH   1  10
ATOM     10  C   UNL     1       5.096   3.924  18.979  0.00  0.00    +0.000 C 
BRANCH  10  11
ATOM     11  N   UNL     1       6.146   4.377  18.074  0.00  0.00    +0.000 NA
ATOM     12  H   UNL     1       5.813   4.409  17.073  0.00  0.00    +0.000 HD
BRANCH  11  13
ATOM     13  CA  UNL     1       6.761   5.654  18.462  0.00  0.00    +0.000 C 
BRANCH  13  14
ATOM     14  C   UNL     1       6.965   6.603  17.250  0.00  0.00    +0.000 C 
ATOM     15  C   UNL     1       7.704   7.892  17.617  0.00  0.00    +0.000 C 
ENDBRANCH  13  14
BRANCH  13  16
ATOM     16  C   UNL     1       8.091   5.365  19.168  0.00  0.00    +0.000 C 
BRANCH  16  17
ATOM     17  O   UNL     1       7.965   5.520  20.554  0.00  0.00    +0.000 OA
ATOM     18  H   UNL     1       7.068   5.176  20.796  0.00  0.00    +0.000 HD
ENDBRANCH  16  17
ENDBRANCH  13  16
ENDBRANCH  11  13
ENDBRANCH  10  11
ENDBRANCH   1  10
TORSDOF 11
ENDMDL
MODEL 9
REMARK VINA RESULT:      -5.0      2.043      2.726
REMARK  Name = 
REMARK  13 active torsions:
REMARK  status: ('A' for Active; 'I' for Inactive)
REMARK    1  A    between atoms: C_1  and  C_2
REMARK    2  A    between atoms: C_2  and  CA_3
REMARK    3  A    between atoms: CA_3  and  C_4
REMARK    4  A    between atoms: CA_3  and  N_6
REMARK    5  A    between atoms: C_4  and  O_5
REMARK    6  A    between atoms: N_6  and  C_7
REMARK    7  A    between atoms: C_7  and  C_8
REMARK    8  A    between atoms: C_8  and  N_9
REMARK    9  A    between atoms: N_9  and  CA_10
REMARK   10  A    between atoms: CA_10  and  C_11
REMARK   11  A    between atoms: CA_10  and  C_13
REMARK   12  A    between atoms: C_11  and  C_12
REMARK   13  A    between atoms: C_13  and  O_14
REMARK                            x       y       z     vdW  Elec       q    Type
REMARK                         _______ _______ _______ _____ _____    ______ ____
ROOT
ATOM      1  C   UNL     1       4.562   5.477  17.555  0.00  0.00    +0.000 C 
ENDROOT
BRANCH   1   2
ATOM      2  N   UNL     1       5.225   5.968  16.303  0.00  0.00    +0.000 NA
ATOM      3  H   UNL     1       4.826   5.436  15.509  0.00  0.00    +0.000 HD
BRANCH   2   4
ATOM      4  CA  UNL     1       6.689   5.778  16.322  0.00  0.00    +0.000 C 
BRANCH   4   6
ATOM      5  C   UNL     1       6.017   4.118  14.392  0.00  0.00    +0.000 C 
ATOM      6  C   UNL     1       7.129   4.692  15.275  0.00  0.00    +0.000 C 
ENDBRANCH   4   6
BRANCH   4   7
ATOM      7  C   UNL     1       7.153   5.322  17.714  0.00  0.00    +0.000 C 
BRANCH   7   8
ATOM      8  O   UNL     1       7.648   4.006  17.680  0.00  0.00    +0.000 OA
ATOM      9  H   UNL     1       6.861   3.407  17.607  0.00  0.00    +0.000 HD
ENDBRANCH   7   8
ENDBRANCH   4   7
ENDBRANCH   2   4
ENDBRANCH   1   2
BRANCH   1  10
ATOM     10  C   UNL     1       3.711   4.266  17.245  0.00  0.00    +0.000 C 
BRANCH  10  11
ATOM     11  N   UNL     1       4.414   3.035  17.589  0.00  0.00    +0.000 NA
ATOM     12  H   UNL     1       5.347   3.231  18.041  0.00  0.00    +0.000 HD
BRANCH  11  13
ATOM     13  CA  UNL     1       3.623   2.101  18.403  0.00  0.00    +0.000 C 
BRANCH  13  14
ATOM     14  C   UNL     1       2.097   2.271  18.179  0.00  0.00    +0.000 C 
ATOM     15  C   UNL     1       1.319   2.476  19.482  0.00  0.00    +0.000 C 
ENDBRANCH  13  14
BRANCH  13  16
ATOM     16  C   UNL     1       3.991   2.301  19.878  0.00  0.00    +0.000 C 
BRANCH  16  17
ATOM     17  O   UNL     1       5.197   1.658  20.184  0.00  0.00    +0.000 OA
ATOM     18  H   UNL     1       4.968   0.892  20.771  0.00  0.00    +0.000 HD
ENDBRANCH  16  17
ENDBRANCH  13  16
ENDBRANCH  11  13
ENDBRANCH  10  11
ENDBRANCH   1  10
TORSDOF 11
ENDMDL
