MODEL 1
REMARK VINA RESULT:      -7.8      0.000      0.000
REMARK  Name = 
REMARK  9 active torsions:
REMARK  status: ('A' for Active; 'I' for Inactive)
REMARK    1  A    between atoms: N_3  and  C_4
REMARK    2  A    between atoms: C_4  and  C_5
REMARK    3  A    between atoms: C_5  and  C_6
REMARK    4  A    between atoms: C_6  and  C_7
REMARK    5  A    between atoms: C_7  and  N_8
REMARK    6  A    between atoms: C_7  and  C_18
REMARK    7  A    between atoms: C_9  and  C_11
REMARK    8  A    between atoms: N_20  and  O_21
REMARK    9  A    between atoms: N_22  and  N_23
REMARK                            x       y       z     vdW  Elec       q    Type
REMARK                         _______ _______ _______ _____ _____    ______ ____
ROOT
ATOM      1  C   UNL     1       6.953   5.067  17.336  0.00  0.00    +0.000 C 
ENDROOT
BRANCH   1   2
ATOM      2  N   UNL     1       5.558   4.858  17.747  0.00  0.00    +0.000 N 
ATOM      3  C   UNL     1       5.215   4.674  19.071  0.00  0.00    +0.000 C 
ATOM      4  O   UNL     1       6.066   4.730  19.956  0.00  0.00    +0.000 OA
ATOM      5  H   UNL     1       4.812   4.975  17.071  0.00  0.00    +0.000 HD
BRANCH   3   6
ATOM      6  C   UNL     1       3.768   4.542  19.429  0.00  0.00    +0.000 A 
ATOM      7  C   UNL     1       3.222   5.655  20.103  0.00  0.00    +0.000 A 
ATOM      8  C   UNL     1       1.881   5.689  20.491  0.00  0.00    +0.000 A 
ATOM      9  C   UNL     1       1.057   4.607  20.210  0.00  0.00    +0.000 A 
ATOM     10  C   UNL     1       1.580   3.487  19.569  0.00  0.00    +0.000 A 
ATOM     11  C   UNL     1       2.932   3.441  19.182  0.00  0.00    +0.000 A 
ATOM     12  I   UNL     1       3.555   1.616  18.350  0.00  0.00    +0.000 I 
ENDBRANCH   3   6
ENDBRANCH   1   2
BRANCH   1  13
ATOM     13  C   UNL     1       7.464   6.496  17.618  0.00  0.00    +0.000 C 
ATOM     14  O   UNL     1       7.354   7.429  16.820  0.00  0.00    +0.000 OA
ATOM     15  N   UNL     1       8.144   6.659  18.803  0.00  0.00    +0.000 N 
ATOM     16  H   UNL     1       8.710   5.884  19.154  0.00  0.00    +0.000 HD
BRANCH  15  17
ATOM     17  O   UNL     1       8.656   7.964  19.015  0.00  0.00    +0.000 OA
ATOM     18  H   UNL     1       9.614   7.849  18.828  0.00  0.00    +0.000 HD
ENDBRANCH  15  17
ENDBRANCH   1  13
BRANCH   1  19
ATOM     19  C   UNL     1       7.206   4.639  15.876  0.00  0.00    +0.000 C 
BRANCH  19  20
ATOM     20  C   UNL     1       6.086   3.877  15.146  0.00  0.00    +0.000 C 
BRANCH  20  21
ATOM     21  C   UNL     1       5.741   4.368  13.740  0.00  0.00    +0.000 C 
BRANCH  21  24
ATOM     22  N   UNL     1       3.960   3.447  11.561  0.00  0.00    +0.000 NA
ATOM     23  C   UNL     1       5.095   2.873  11.821  0.00  0.00    +0.000 C 
ATOM     24  N   UNL     1       5.957   3.313  12.773  0.00  0.00    +0.000 N 
ATOM     25  N   UNL     1       5.389   1.791  11.065  0.00  0.00    +0.000 N 
ATOM     26  H   UNL     1       3.851   4.273  12.145  0.00  0.00    +0.000 HD
ATOM     27  H   UNL     1       6.791   2.747  12.942  0.00  0.00    +0.000 HD
ATOM     28  H   UNL     1       4.697   1.595  10.360  0.00  0.00    +0.000 HD
BRANCH  25  29
ATOM     29  N   UNL     1       6.504   1.064  11.107  0.00  0.00    +0.000 N 
ATOM     30  O   UNL     1       7.603   1.624  11.136  0.00  0.00    +0.000 OA
ATOM     31  O   UNL     1       6.297  -0.150  11.129  0.00  0.00    +0.000 OA
ENDBRANCH  25  29
ENDBRANCH  21  24
ENDBRANCH  20  21
ENDBRANCH  19  20
ENDBRANCH   1  19
TORSDOF 9
ENDMDL
MODEL 2
REMARK VINA RESULT:      -7.5      1.423      1.842
REMARK  Name = 
REMARK  9 active torsions:
REMARK  status: ('A' for Active; 'I' for Inactive)
REMARK    1  A    between atoms: N_3  and  C_4
REMARK    2  A    between atoms: C_4  and  C_5
REMARK    3  A    between atoms: C_5  and  C_6
REMARK    4  A    between atoms: C_6  and  C_7
REMARK    5  A    between atoms: C_7  and  N_8
REMARK    6  A    between atoms: C_7  and  C_18
REMARK    7  A    between atoms: C_9  and  C_11
REMARK    8  A    between atoms: N_20  and  O_21
REMARK    9  A    between atoms: N_22  and  N_23
REMARK                            x       y       z     vdW  Elec       q    Type
REMARK                         _______ _______ _______ _____ _____    ______ ____
ROOT
ATOM      1  C   UNL     1       6.539   4.984  17.145  0.00  0.00    +0.000 C 
ENDROOT
BRANCH   1   2
ATOM      2  N   UNL     1       5.171   4.511  17.400  0.00  0.00    +0.000 N 
ATOM      3  C   UNL     1       4.836   3.870  18.575  0.00  0.00    +0.000 C 
ATOM      4  O   UNL     1       5.667   3.719  19.469  0.00  0.00    +0.000 OA
ATOM      5  H   UNL     1       4.424   4.766  16.764  0.00  0.00    +0.000 HD
BRANCH   3   6
ATOM      6  C   UNL     1       3.409   3.480  18.802  0.00  0.00    +0.000 A 
ATOM      7  C   UNL     1       3.119   2.123  18.545  0.00  0.00    +0.000 A 
ATOM      8  C   UNL     1       1.836   1.603  18.725  0.00  0.00    +0.000 A 
ATOM      9  C   UNL     1       0.815   2.434  19.169  0.00  0.00    +0.000 A 
ATOM     10  C   UNL     1       1.071   3.782  19.404  0.00  0.00    +0.000 A 
ATOM     11  C   UNL     1       2.361   4.316  19.217  0.00  0.00    +0.000 A 
ATOM     12  I   UNL     1       2.510   6.391  19.498  0.00  0.00    +0.000 I 
ENDBRANCH   3   6
ENDBRANCH   1   2
BRANCH   1  13
ATOM     13  C   UNL     1       6.629   6.513  16.954  0.00  0.00    +0.000 C 
ATOM     14  O   UNL     1       5.746   7.187  16.418  0.00  0.00    +0.000 OA
ATOM     15  N   UNL     1       7.815   7.089  17.344  0.00  0.00    +0.000 N 
ATOM     16  H   UNL     1       8.680   6.555  17.236  0.00  0.00    +0.000 HD
BRANCH  15  17
ATOM     17  O   UNL     1       7.900   8.484  17.106  0.00  0.00    +0.000 OA
ATOM     18  H   UNL     1       8.594   8.768  17.743  0.00  0.00    +0.000 HD
ENDBRANCH  15  17
ENDBRANCH   1  13
BRANCH   1  19
ATOM     19  C   UNL     1       7.221   4.215  15.995  0.00  0.00    +0.000 C 
BRANCH  19  20
ATOM     20  C   UNL     1       6.913   4.657  14.553  0.00  0.00    +0.000 C 
BRANCH  20  21
ATOM     21  C   UNL     1       5.609   4.132  13.951  0.00  0.00    +0.000 C 
BRANCH  21  24
ATOM     22  N   UNL     1       4.029   3.515  11.524  0.00  0.00    +0.000 NA
ATOM     23  C   UNL     1       5.116   2.873  11.828  0.00  0.00    +0.000 C 
ATOM     24  N   UNL     1       5.890   3.177  12.901  0.00  0.00    +0.000 N 
ATOM     25  N   UNL     1       5.453   1.866  10.991  0.00  0.00    +0.000 N 
ATOM     26  H   UNL     1       3.886   4.279  12.180  0.00  0.00    +0.000 HD
ATOM     27  H   UNL     1       6.687   2.564  13.086  0.00  0.00    +0.000 HD
ATOM     28  H   UNL     1       4.831   1.773  10.205  0.00  0.00    +0.000 HD
BRANCH  25  29
ATOM     29  N   UNL     1       6.537   1.096  11.060  0.00  0.00    +0.000 N 
ATOM     30  O   UNL     1       7.657   1.613  11.109  0.00  0.00    +0.000 OA
ATOM     31  O   UNL     1       6.282  -0.109  11.086  0.00  0.00    +0.000 OA
ENDBRANCH  25  29
ENDBRANCH  21  24
ENDBRANCH  20  21
ENDBRANCH  19  20
ENDBRANCH   1  19
TORSDOF 9
ENDMDL
MODEL 3
REMARK VINA RESULT:      -7.5      1.473      1.778
REMARK  Name = 
REMARK  9 active torsions:
REMARK  status: ('A' for Active; 'I' for Inactive)
REMARK    1  A    between atoms: N_3  and  C_4
REMARK    2  A    between atoms: C_4  and  C_5
REMARK    3  A    between atoms: C_5  and  C_6
REMARK    4  A    between atoms: C_6  and  C_7
REMARK    5  A    between atoms: C_7  and  N_8
REMARK    6  A    between atoms: C_7  and  C_18
REMARK    7  A    between atoms: C_9  and  C_11
REMARK    8  A    between atoms: N_20  and  O_21
REMARK    9  A    between atoms: N_22  and  N_23
REMARK                            x       y       z     vdW  Elec       q    Type
REMARK                         _______ _______ _______ _____ _____    ______ ____
ROOT
ATOM      1  C   UNL     1       6.047   4.612  16.868  0.00  0.00    +0.000 C 
ENDROOT
BRANCH   1   2
ATOM      2  N   UNL     1       4.809   4.347  17.613  0.00  0.00    +0.000 N 
ATOM      3  C   UNL     1       4.813   4.174  18.982  0.00  0.00    +0.000 C 
ATOM      4  O   UNL     1       5.853   4.287  19.628  0.00  0.00    +0.000 OA
ATOM      5  H   UNL     1       3.915   4.416  17.142  0.00  0.00    +0.000 HD
BRANCH   3   6
ATOM      6  C   UNL     1       3.508   3.982  19.688  0.00  0.00    +0.000 A 
ATOM      7  C   UNL     1       3.313   2.693  20.229  0.00  0.00    +0.000 A 
ATOM      8  C   UNL     1       2.152   2.362  20.930  0.00  0.00    +0.000 A 
ATOM      9  C   UNL     1       1.160   3.318  21.106  0.00  0.00    +0.000 A 
ATOM     10  C   UNL     1       1.318   4.589  20.558  0.00  0.00    +0.000 A 
ATOM     11  C   UNL     1       2.483   4.928  19.843  0.00  0.00    +0.000 A 
ATOM     12  I   UNL     1       2.470   6.845  18.988  0.00  0.00    +0.000 I 
ENDBRANCH   3   6
ENDBRANCH   1   2
BRANCH   1  13
ATOM     13  C   UNL     1       6.356   6.116  16.713  0.00  0.00    +0.000 C 
ATOM     14  O   UNL     1       5.650   6.894  16.067  0.00  0.00    +0.000 OA
ATOM     15  N   UNL     1       7.537   6.540  17.276  0.00  0.00    +0.000 N 
ATOM     16  H   UNL     1       8.334   5.900  17.285  0.00  0.00    +0.000 HD
BRANCH  15  17
ATOM     17  O   UNL     1       7.829   7.912  17.071  0.00  0.00    +0.000 OA
ATOM     18  H   UNL     1       7.041   8.358  17.455  0.00  0.00    +0.000 HD
ENDBRANCH  15  17
ENDBRANCH   1  13
BRANCH   1  19
ATOM     19  C   UNL     1       6.090   3.870  15.517  0.00  0.00    +0.000 C 
BRANCH  19  20
ATOM     20  C   UNL     1       7.130   4.326  14.479  0.00  0.00    +0.000 C 
BRANCH  20  21
ATOM     21  C   UNL     1       6.600   4.614  13.074  0.00  0.00    +0.000 C 
BRANCH  21  24
ATOM     22  N   UNL     1       4.202   3.450  11.783  0.00  0.00    +0.000 NA
ATOM     23  C   UNL     1       5.351   2.845  11.790  0.00  0.00    +0.000 C 
ATOM     24  N   UNL     1       6.478   3.384  12.321  0.00  0.00    +0.000 N 
ATOM     25  N   UNL     1       5.370   1.621  11.216  0.00  0.00    +0.000 N 
ATOM     26  H   UNL     1       4.299   4.377  12.192  0.00  0.00    +0.000 HD
ATOM     27  H   UNL     1       7.313   2.793  12.336  0.00  0.00    +0.000 HD
ATOM     28  H   UNL     1       4.487   1.354  10.812  0.00  0.00    +0.000 HD
BRANCH  25  29
ATOM     29  N   UNL     1       6.427   0.827  11.058  0.00  0.00    +0.000 N 
ATOM     30  O   UNL     1       7.549   1.319  10.904  0.00  0.00    +0.000 OA
ATOM     31  O   UNL     1       6.151  -0.372  11.102  0.00  0.00    +0.000 OA
ENDBRANCH  25  29
ENDBRANCH  21  24
ENDBRANCH  20  21
ENDBRANCH  19  20
ENDBRANCH   1  19
TORSDOF 9
ENDMDL
MODEL 4
REMARK VINA RESULT:      -7.4      1.502      1.999
REMARK  Name = 
REMARK  9 active torsions:
REMARK  status: ('A' for Active; 'I' for Inactive)
REMARK    1  A    between atoms: N_3  and  C_4
REMARK    2  A    between atoms: C_4  and  C_5
REMARK    3  A    between atoms: C_5  and  C_6
REMARK    4  A    between atoms: C_6  and  C_7
REMARK    5  A    between atoms: C_7  and  N_8
REMARK    6  A    between atoms: C_7  and  C_18
REMARK    7  A    between atoms: C_9  and  C_11
REMARK    8  A    between atoms: N_20  and  O_21
REMARK    9  A    between atoms: N_22  and  N_23
REMARK                            x       y       z     vdW  Elec       q    Type
REMARK                         _______ _______ _______ _____ _____    ______ ____
ROOT
ATOM      1  C   UNL     1       6.888   4.393  17.711  0.00  0.00    +0.000 C 
ENDROOT
BRANCH   1   2
ATOM      2  N   UNL     1       5.651   3.932  18.356  0.00  0.00    +0.000 N 
ATOM      3  C   UNL     1       4.588   4.785  18.572  0.00  0.00    +0.000 C 
ATOM      4  O   UNL     1       4.626   5.951  18.182  0.00  0.00    +0.000 OA
ATOM      5  H   UNL     1       5.515   2.944  18.535  0.00  0.00    +0.000 HD
BRANCH   3   6
ATOM      6  C   UNL     1       3.330   4.234  19.165  0.00  0.00    +0.000 A 
ATOM      7  C   UNL     1       3.209   2.829  19.094  0.00  0.00    +0.000 A 
ATOM      8  C   UNL     1       2.099   2.163  19.618  0.00  0.00    +0.000 A 
ATOM      9  C   UNL     1       1.086   2.892  20.226  0.00  0.00    +0.000 A 
ATOM     10  C   UNL     1       1.169   4.281  20.283  0.00  0.00    +0.000 A 
ATOM     11  C   UNL     1       2.281   4.960  19.751  0.00  0.00    +0.000 A 
ATOM     12  I   UNL     1       2.156   7.055  19.820  0.00  0.00    +0.000 I 
ENDBRANCH   3   6
ENDBRANCH   1   2
BRANCH   1  13
ATOM     13  C   UNL     1       7.653   5.446  18.543  0.00  0.00    +0.000 C 
ATOM     14  O   UNL     1       8.068   5.241  19.686  0.00  0.00    +0.000 OA
ATOM     15  N   UNL     1       7.777   6.685  17.959  0.00  0.00    +0.000 N 
ATOM     16  H   UNL     1       7.020   7.024  17.362  0.00  0.00    +0.000 HD
BRANCH  15  17
ATOM     17  O   UNL     1       8.431   7.652  18.764  0.00  0.00    +0.000 OA
ATOM     18  H   UNL     1       8.487   7.202  19.636  0.00  0.00    +0.000 HD
ENDBRANCH  15  17
ENDBRANCH   1  13
BRANCH   1  19
ATOM     19  C   UNL     1       6.655   4.860  16.260  0.00  0.00    +0.000 C 
BRANCH  19  20
ATOM     20  C   UNL     1       6.412   3.783  15.189  0.00  0.00    +0.000 C 
BRANCH  20  21
ATOM     21  C   UNL     1       6.018   4.289  13.801  0.00  0.00    +0.000 C 
BRANCH  21  24
ATOM     22  N   UNL     1       4.141   3.501  11.650  0.00  0.00    +0.000 NA
ATOM     23  C   UNL     1       5.239   2.851  11.887  0.00  0.00    +0.000 C 
ATOM     24  N   UNL     1       6.145   3.227  12.825  0.00  0.00    +0.000 N 
ATOM     25  N   UNL     1       5.447   1.756  11.121  0.00  0.00    +0.000 N 
ATOM     26  H   UNL     1       4.097   4.329  12.239  0.00  0.00    +0.000 HD
ATOM     27  H   UNL     1       6.942   2.605  12.977  0.00  0.00    +0.000 HD
ATOM     28  H   UNL     1       4.732   1.611  10.427  0.00  0.00    +0.000 HD
BRANCH  25  29
ATOM     29  N   UNL     1       6.511   0.956  11.140  0.00  0.00    +0.000 N 
ATOM     30  O   UNL     1       6.361  -0.266  11.233  0.00  0.00    +0.000 OA
ATOM     31  O   UNL     1       7.580   1.559  11.039  0.00  0.00    +0.000 OA
ENDBRANCH  25  29
ENDBRANCH  21  24
ENDBRANCH  20  21
ENDBRANCH  19  20
ENDBRANCH   1  19
TORSDOF 9
ENDMDL
MODEL 5
REMARK VINA RESULT:      -7.2      1.633      2.084
REMARK  Name = 
REMARK  9 active torsions:
REMARK  status: ('A' for Active; 'I' for Inactive)
REMARK    1  A    between atoms: N_3  and  C_4
REMARK    2  A    between atoms: C_4  and  C_5
REMARK    3  A    between atoms: C_5  and  C_6
REMARK    4  A    between atoms: C_6  and  C_7
REMARK    5  A    between atoms: C_7  and  N_8
REMARK    6  A    between atoms: C_7  and  C_18
REMARK    7  A    between atoms: C_9  and  C_11
REMARK    8  A    between atoms: N_20  and  O_21
REMARK    9  A    between atoms: N_22  and  N_23
REMARK                            x       y       z     vdW  Elec       q    Type
REMARK                         _______ _______ _______ _____ _____    ______ ____
ROOT
ATOM      1  C   UNL     1       6.822   4.462  17.351  0.00  0.00    +0.000 C 
ENDROOT
BRANCH   1   2
ATOM      2  N   UNL     1       5.554   3.873  17.803  0.00  0.00    +0.000 N 
ATOM      3  C   UNL     1       4.433   4.648  18.014  0.00  0.00    +0.000 C 
ATOM      4  O   UNL     1       4.448   5.856  17.780  0.00  0.00    +0.000 OA
ATOM      5  H   UNL     1       5.454   2.866  17.842  0.00  0.00    +0.000 HD
BRANCH   3   6
ATOM      6  C   UNL     1       3.154   3.976  18.402  0.00  0.00    +0.000 A 
ATOM      7  C   UNL     1       2.951   2.708  17.815  0.00  0.00    +0.000 A 
ATOM      8  C   UNL     1       1.812   1.949  18.090  0.00  0.00    +0.000 A 
ATOM      9  C   UNL     1       0.851   2.444  18.961  0.00  0.00    +0.000 A 
ATOM     10  C   UNL     1       1.016   3.704  19.531  0.00  0.00    +0.000 A 
ATOM     11  C   UNL     1       2.158   4.479  19.253  0.00  0.00    +0.000 A 
ATOM     12  I   UNL     1       2.155   6.398  20.105  0.00  0.00    +0.000 I 
ENDBRANCH   3   6
ENDBRANCH   1   2
BRANCH   1  13
ATOM     13  C   UNL     1       7.387   5.516  18.327  0.00  0.00    +0.000 C 
ATOM     14  O   UNL     1       7.801   6.622  17.971  0.00  0.00    +0.000 OA
ATOM     15  N   UNL     1       7.486   5.116  19.639  0.00  0.00    +0.000 N 
ATOM     16  H   UNL     1       7.698   4.137  19.839  0.00  0.00    +0.000 HD
BRANCH  15  17
ATOM     17  O   UNL     1       8.061   6.078  20.507  0.00  0.00    +0.000 OA
ATOM     18  H   UNL     1       7.281   6.610  20.784  0.00  0.00    +0.000 HD
ENDBRANCH  15  17
ENDBRANCH   1  13
BRANCH   1  19
ATOM     19  C   UNL     1       6.741   4.995  15.907  0.00  0.00    +0.000 C 
BRANCH  19  20
ATOM     20  C   UNL     1       6.202   4.049  14.820  0.00  0.00    +0.000 C 
BRANCH  20  21
ATOM     21  C   UNL     1       6.555   4.408  13.376  0.00  0.00    +0.000 C 
BRANCH  21  24
ATOM     22  N   UNL     1       4.254   3.515  11.740  0.00  0.00    +0.000 NA
ATOM     23  C   UNL     1       5.351   2.826  11.833  0.00  0.00    +0.000 C 
ATOM     24  N   UNL     1       6.441   3.242  12.527  0.00  0.00    +0.000 N 
ATOM     25  N   UNL     1       5.355   1.643  11.176  0.00  0.00    +0.000 N 
ATOM     26  H   UNL     1       4.364   4.403  12.224  0.00  0.00    +0.000 HD
ATOM     27  H   UNL     1       7.226   2.591  12.592  0.00  0.00    +0.000 HD
ATOM     28  H   UNL     1       4.510   1.471  10.657  0.00  0.00    +0.000 HD
BRANCH  25  29
ATOM     29  N   UNL     1       6.368   0.784  11.082  0.00  0.00    +0.000 N 
ATOM     30  O   UNL     1       6.155  -0.429  11.165  0.00  0.00    +0.000 OA
ATOM     31  O   UNL     1       7.457   1.328  10.896  0.00  0.00    +0.000 OA
ENDBRANCH  25  29
ENDBRANCH  21  24
ENDBRANCH  20  21
ENDBRANCH  19  20
ENDBRANCH   1  19
TORSDOF 9
ENDMDL
MODEL 6
REMARK VINA RESULT:      -7.2      4.604      7.079
REMARK  Name = 
REMARK  9 active torsions:
REMARK  status: ('A' for Active; 'I' for Inactive)
REMARK    1  A    between atoms: N_3  and  C_4
REMARK    2  A    between atoms: C_4  and  C_5
REMARK    3  A    between atoms: C_5  and  C_6
REMARK    4  A    between atoms: C_6  and  C_7
REMARK    5  A    between atoms: C_7  and  N_8
REMARK    6  A    between atoms: C_7  and  C_18
REMARK    7  A    between atoms: C_9  and  C_11
REMARK    8  A    between atoms: N_20  and  O_21
REMARK    9  A    between atoms: N_22  and  N_23
REMARK                            x       y       z     vdW  Elec       q    Type
REMARK                         _______ _______ _______ _____ _____    ______ ____
ROOT
ATOM      1  C   UNL     1       2.525   6.836  18.660  0.00  0.00    +0.000 C 
ENDROOT
BRANCH   1   2
ATOM      2  N   UNL     1       3.701   6.536  17.831  0.00  0.00    +0.000 N 
ATOM      3  C   UNL     1       3.937   5.267  17.345  0.00  0.00    +0.000 C 
ATOM      4  O   UNL     1       3.139   4.354  17.552  0.00  0.00    +0.000 OA
ATOM      5  H   UNL     1       4.287   7.293  17.498  0.00  0.00    +0.000 HD
BRANCH   3   6
ATOM      6  C   UNL     1       5.112   5.046  16.445  0.00  0.00    +0.000 A 
ATOM      7  C   UNL     1       4.786   4.584  15.152  0.00  0.00    +0.000 A 
ATOM      8  C   UNL     1       5.772   4.345  14.191  0.00  0.00    +0.000 A 
ATOM      9  C   UNL     1       7.105   4.566  14.507  0.00  0.00    +0.000 A 
ATOM     10  C   UNL     1       7.453   4.997  15.785  0.00  0.00    +0.000 A 
ATOM     11  C   UNL     1       6.467   5.232  16.761  0.00  0.00    +0.000 A 
ATOM     12  I   UNL     1       7.203   5.749  18.658  0.00  0.00    +0.000 I 
ENDBRANCH   3   6
ENDBRANCH   1   2
BRANCH   1  13
ATOM     13  C   UNL     1       2.089   8.315  18.588  0.00  0.00    +0.000 C 
ATOM     14  O   UNL     1       1.417   8.871  19.459  0.00  0.00    +0.000 OA
ATOM     15  N   UNL     1       2.424   8.975  17.429  0.00  0.00    +0.000 N 
ATOM     16  H   UNL     1       2.438   8.451  16.552  0.00  0.00    +0.000 HD
BRANCH  15  17
ATOM     17  O   UNL     1       1.962  10.314  17.358  0.00  0.00    +0.000 OA
ATOM     18  H   UNL     1       2.302  10.610  16.484  0.00  0.00    +0.000 HD
ENDBRANCH  15  17
ENDBRANCH   1  13
BRANCH   1  19
ATOM     19  C   UNL     1       2.695   6.353  20.115  0.00  0.00    +0.000 C 
BRANCH  19  20
ATOM     20  C   UNL     1       1.459   5.782  20.831  0.00  0.00    +0.000 C 
BRANCH  20  21
ATOM     21  C   UNL     1       0.947   4.434  20.322  0.00  0.00    +0.000 C 
BRANCH  21  24
ATOM     22  N   UNL     1       2.247   2.614  22.263  0.00  0.00    +0.000 NA
ATOM     23  C   UNL     1       2.667   2.743  21.041  0.00  0.00    +0.000 C 
ATOM     24  N   UNL     1       2.052   3.523  20.116  0.00  0.00    +0.000 N 
ATOM     25  N   UNL     1       3.772   2.030  20.725  0.00  0.00    +0.000 N 
ATOM     26  H   UNL     1       1.390   3.147  22.390  0.00  0.00    +0.000 HD
ATOM     27  H   UNL     1       2.506   3.606  19.203  0.00  0.00    +0.000 HD
ATOM     28  H   UNL     1       4.104   1.451  21.479  0.00  0.00    +0.000 HD
BRANCH  25  29
ATOM     29  N   UNL     1       4.365   1.958  19.535  0.00  0.00    +0.000 N 
ATOM     30  O   UNL     1       3.928   1.186  18.676  0.00  0.00    +0.000 OA
ATOM     31  O   UNL     1       5.323   2.723  19.417  0.00  0.00    +0.000 OA
ENDBRANCH  25  29
ENDBRANCH  21  24
ENDBRANCH  20  21
ENDBRANCH  19  20
ENDBRANCH   1  19
TORSDOF 9
ENDMDL
MODEL 7
REMARK VINA RESULT:      -7.1      4.593      7.939
REMARK  Name = 
REMARK  9 active torsions:
REMARK  status: ('A' for Active; 'I' for Inactive)
REMARK    1  A    between atoms: N_3  and  C_4
REMARK    2  A    between atoms: C_4  and  C_5
REMARK    3  A    between atoms: C_5  and  C_6
REMARK    4  A    between atoms: C_6  and  C_7
REMARK    5  A    between atoms: C_7  and  N_8
REMARK    6  A    between atoms: C_7  and  C_18
REMARK    7  A    between atoms: C_9  and  C_11
REMARK    8  A    between atoms: N_20  and  O_21
REMARK    9  A    between atoms: N_22  and  N_23
REMARK                            x       y       z     vdW  Elec       q    Type
REMARK                         _______ _______ _______ _____ _____    ______ ____
ROOT
ATOM      1  C   UNL     1       3.382   3.458  19.742  0.00  0.00    +0.000 C 
ENDROOT
BRANCH   1   2
ATOM      2  N   UNL     1       4.148   3.546  18.491  0.00  0.00    +0.000 N 
ATOM      3  C   UNL     1       4.599   4.755  18.003  0.00  0.00    +0.000 C 
ATOM      4  O   UNL     1       4.413   5.796  18.631  0.00  0.00    +0.000 OA
ATOM      5  H   UNL     1       4.467   2.698  18.036  0.00  0.00    +0.000 HD
BRANCH   3   6
ATOM      6  C   UNL     1       5.437   4.766  16.764  0.00  0.00    +0.000 A 
ATOM      7  C   UNL     1       5.033   3.849  15.769  0.00  0.00    +0.000 A 
ATOM      8  C   UNL     1       5.706   3.750  14.550  0.00  0.00    +0.000 A 
ATOM      9  C   UNL     1       6.798   4.569  14.300  0.00  0.00    +0.000 A 
ATOM     10  C   UNL     1       7.232   5.463  15.276  0.00  0.00    +0.000 A 
ATOM     11  C   UNL     1       6.564   5.563  16.511  0.00  0.00    +0.000 A 
ATOM     12  I   UNL     1       7.450   6.872  17.894  0.00  0.00    +0.000 I 
ENDBRANCH   3   6
ENDBRANCH   1   2
BRANCH   1  13
ATOM     13  C   UNL     1       3.931   2.398  20.720  0.00  0.00    +0.000 C 
ATOM     14  O   UNL     1       3.353   2.063  21.757  0.00  0.00    +0.000 OA
ATOM     15  N   UNL     1       5.174   1.895  20.413  0.00  0.00    +0.000 N 
ATOM     16  H   UNL     1       5.855   2.510  19.963  0.00  0.00    +0.000 HD
BRANCH  15  17
ATOM     17  O   UNL     1       5.685   0.967  21.355  0.00  0.00    +0.000 OA
ATOM     18  H   UNL     1       6.606   0.830  21.041  0.00  0.00    +0.000 HD
ENDBRANCH  15  17
ENDBRANCH   1  13
BRANCH   1  19
ATOM     19  C   UNL     1       1.870   3.288  19.493  0.00  0.00    +0.000 C 
BRANCH  19  20
ATOM     20  C   UNL     1       0.932   4.406  19.979  0.00  0.00    +0.000 C 
BRANCH  20  21
ATOM     21  C   UNL     1       1.573   5.504  20.829  0.00  0.00    +0.000 C 
BRANCH  21  24
ATOM     22  N   UNL     1       1.630   8.302  21.797  0.00  0.00    +0.000 NA
ATOM     23  C   UNL     1       1.648   8.003  20.534  0.00  0.00    +0.000 C 
ATOM     24  N   UNL     1       1.684   6.729  20.066  0.00  0.00    +0.000 N 
ATOM     25  N   UNL     1       1.640   9.055  19.684  0.00  0.00    +0.000 N 
ATOM     26  H   UNL     1       1.685   7.451  22.353  0.00  0.00    +0.000 HD
ATOM     27  H   UNL     1       1.626   6.605  19.053  0.00  0.00    +0.000 HD
ATOM     28  H   UNL     1       1.666   9.947  20.151  0.00  0.00    +0.000 HD
BRANCH  25  29
ATOM     29  N   UNL     1       1.701   9.011  18.355  0.00  0.00    +0.000 N 
ATOM     30  O   UNL     1       2.619   8.400  17.801  0.00  0.00    +0.000 OA
ATOM     31  O   UNL     1       0.773   9.604  17.801  0.00  0.00    +0.000 OA
ENDBRANCH  25  29
ENDBRANCH  21  24
ENDBRANCH  20  21
ENDBRANCH  19  20
ENDBRANCH   1  19
TORSDOF 9
ENDMDL
MODEL 8
REMARK VINA RESULT:      -7.1      4.933      8.544
REMARK  Name = 
REMARK  9 active torsions:
REMARK  status: ('A' for Active; 'I' for Inactive)
REMARK    1  A    between atoms: N_3  and  C_4
REMARK    2  A    between atoms: C_4  and  C_5
REMARK    3  A    between atoms: C_5  and  C_6
REMARK    4  A    between atoms: C_6  and  C_7
REMARK    5  A    between atoms: C_7  and  N_8
REMARK    6  A    between atoms: C_7  and  C_18
REMARK    7  A    between atoms: C_9  and  C_11
REMARK    8  A    between atoms: N_20  and  O_21
REMARK    9  A    between atoms: N_22  and  N_23
REMARK                            x       y       z     vdW  Elec       q    Type
REMARK                         _______ _______ _______ _____ _____    ______ ____
ROOT
ATOM      1  C   UNL     1       2.622   4.719  20.049  0.00  0.00    +0.000 C 
ENDROOT
BRANCH   1   2
ATOM      2  N   UNL     1       3.482   4.936  18.878  0.00  0.00    +0.000 N 
ATOM      3  C   UNL     1       4.644   4.215  18.692  0.00  0.00    +0.000 C 
ATOM      4  O   UNL     1       4.969   3.329  19.481  0.00  0.00    +0.000 OA
ATOM      5  H   UNL     1       3.163   5.531  18.123  0.00  0.00    +0.000 HD
BRANCH   3   6
ATOM      6  C   UNL     1       5.434   4.432  17.440  0.00  0.00    +0.000 A 
ATOM      7  C   UNL     1       4.863   3.873  16.276  0.00  0.00    +0.000 A 
ATOM      8  C   UNL     1       5.474   4.003  15.028  0.00  0.00    +0.000 A 
ATOM      9  C   UNL     1       6.671   4.698  14.918  0.00  0.00    +0.000 A 
ATOM     10  C   UNL     1       7.267   5.235  16.056  0.00  0.00    +0.000 A 
ATOM     11  C   UNL     1       6.662   5.101  17.320  0.00  0.00    +0.000 A 
ATOM     12  I   UNL     1       7.781   5.865  18.924  0.00  0.00    +0.000 I 
ENDBRANCH   3   6
ENDBRANCH   1   2
BRANCH   1  13
ATOM     13  C   UNL     1       1.671   3.513  19.893  0.00  0.00    +0.000 C 
ATOM     14  O   UNL     1       0.948   3.093  20.799  0.00  0.00    +0.000 OA
ATOM     15  N   UNL     1       1.736   2.861  18.684  0.00  0.00    +0.000 N 
ATOM     16  H   UNL     1       2.635   2.809  18.202  0.00  0.00    +0.000 HD
BRANCH  15  17
ATOM     17  O   UNL     1       0.897   1.722  18.583  0.00  0.00    +0.000 OA
ATOM     18  H   UNL     1       0.171   1.935  19.211  0.00  0.00    +0.000 HD
ENDBRANCH  15  17
ENDBRANCH   1  13
BRANCH   1  19
ATOM     19  C   UNL     1       1.871   5.998  20.471  0.00  0.00    +0.000 C 
BRANCH  19  20
ATOM     20  C   UNL     1       2.165   7.293  19.695  0.00  0.00    +0.000 C 
BRANCH  20  21
ATOM     21  C   UNL     1       1.618   8.585  20.306  0.00  0.00    +0.000 C 
BRANCH  21  24
ATOM     22  N   UNL     1       1.909   9.890  17.664  0.00  0.00    +0.000 NA
ATOM     23  C   UNL     1       0.765   9.795  18.270  0.00  0.00    +0.000 C 
ATOM     24  N   UNL     1       0.595   9.149  19.452  0.00  0.00    +0.000 N 
ATOM     25  N   UNL     1      -0.280  10.380  17.641  0.00  0.00    +0.000 N 
ATOM     26  H   UNL     1       2.619   9.383  18.187  0.00  0.00    +0.000 HD
ATOM     27  H   UNL     1      -0.334   9.193  19.876  0.00  0.00    +0.000 HD
ATOM     28  H   UNL     1      -0.038  10.780  16.750  0.00  0.00    +0.000 HD
BRANCH  25  29
ATOM     29  N   UNL     1      -1.552  10.380  18.034  0.00  0.00    +0.000 N 
ATOM     30  O   UNL     1      -1.887  11.020  19.035  0.00  0.00    +0.000 OA
ATOM     31  O   UNL     1      -2.291   9.718  17.304  0.00  0.00    +0.000 OA
ENDBRANCH  25  29
ENDBRANCH  21  24
ENDBRANCH  20  21
ENDBRANCH  19  20
ENDBRANCH   1  19
TORSDOF 9
ENDMDL
MODEL 9
REMARK VINA RESULT:      -7.1      4.267      6.836
REMARK  Name = 
REMARK  9 active torsions:
REMARK  status: ('A' for Active; 'I' for Inactive)
REMARK    1  A    between atoms: N_3  and  C_4
REMARK    2  A    between atoms: C_4  and  C_5
REMARK    3  A    between atoms: C_5  and  C_6
REMARK    4  A    between atoms: C_6  and  C_7
REMARK    5  A    between atoms: C_7  and  N_8
REMARK    6  A    between atoms: C_7  and  C_18
REMARK    7  A    between atoms: C_9  and  C_11
REMARK    8  A    between atoms: N_20  and  O_21
REMARK    9  A    between atoms: N_22  and  N_23
REMARK                            x       y       z     vdW  Elec       q    Type
REMARK                         _______ _______ _______ _____ _____    ______ ____
ROOT
ATOM      1  C   UNL     1       2.443   5.701  19.120  0.00  0.00    +0.000 C 
ENDROOT
BRANCH   1   2
ATOM      2  N   UNL     1       1.764   6.646  20.017  0.00  0.00    +0.000 N 
ATOM      3  C   UNL     1       1.709   7.995  19.737  0.00  0.00    +0.000 C 
ATOM      4  O   UNL     1       2.186   8.443  18.696  0.00  0.00    +0.000 OA
ATOM      5  H   UNL     1       1.215   6.295  20.793  0.00  0.00    +0.000 HD
BRANCH   3   6
ATOM      6  C   UNL     1       0.938   8.892  20.655  0.00  0.00    +0.000 A 
ATOM      7  C   UNL     1       1.172   8.673  22.029  0.00  0.00    +0.000 A 
ATOM      8  C   UNL     1       0.539   9.439  23.010  0.00  0.00    +0.000 A 
ATOM      9  C   UNL     1      -0.343  10.442  22.633  0.00  0.00    +0.000 A 
ATOM     10  C   UNL     1      -0.611  10.659  21.284  0.00  0.00    +0.000 A 
ATOM     11  C   UNL     1       0.018   9.886  20.289  0.00  0.00    +0.000 A 
ATOM     12  I   UNL     1      -0.618  10.280  18.327  0.00  0.00    +0.000 I 
ENDBRANCH   3   6
ENDBRANCH   1   2
BRANCH   1  13
ATOM     13  C   UNL     1       1.599   4.448  18.802  0.00  0.00    +0.000 C 
ATOM     14  O   UNL     1       1.408   4.027  17.659  0.00  0.00    +0.000 OA
ATOM     15  N   UNL     1       0.985   3.859  19.881  0.00  0.00    +0.000 N 
ATOM     16  H   UNL     1       0.664   4.453  20.649  0.00  0.00    +0.000 HD
BRANCH  15  17
ATOM     17  O   UNL     1       0.167   2.746  19.560  0.00  0.00    +0.000 OA
ATOM     18  H   UNL     1      -0.665   2.945  20.045  0.00  0.00    +0.000 HD
ENDBRANCH  15  17
ENDBRANCH   1  13
BRANCH   1  19
ATOM     19  C   UNL     1       3.858   5.336  19.612  0.00  0.00    +0.000 C 
BRANCH  19  20
ATOM     20  C   UNL     1       4.528   4.088  19.013  0.00  0.00    +0.000 C 
BRANCH  20  21
ATOM     21  C   UNL     1       5.138   4.252  17.620  0.00  0.00    +0.000 C 
BRANCH  21  24
ATOM     22  N   UNL     1       6.469   5.517  15.297  0.00  0.00    +0.000 NA
ATOM     23  C   UNL     1       6.659   5.925  16.515  0.00  0.00    +0.000 C 
ATOM     24  N   UNL     1       6.015   5.403  17.589  0.00  0.00    +0.000 N 
ATOM     25  N   UNL     1       7.547   6.934  16.660  0.00  0.00    +0.000 N 
ATOM     26  H   UNL     1       5.754   4.793  15.285  0.00  0.00    +0.000 HD
ATOM     27  H   UNL     1       6.290   5.752  18.510  0.00  0.00    +0.000 HD
ATOM     28  H   UNL     1       7.918   7.271  15.787  0.00  0.00    +0.000 HD
BRANCH  25  29
ATOM     29  N   UNL     1       7.877   7.554  17.792  0.00  0.00    +0.000 N 
ATOM     30  O   UNL     1       8.176   6.893  18.791  0.00  0.00    +0.000 OA
ATOM     31  O   UNL     1       7.860   8.782  17.701  0.00  0.00    +0.000 OA
ENDBRANCH  25  29
ENDBRANCH  21  24
ENDBRANCH  20  21
ENDBRANCH  19  20
ENDBRANCH   1  19
TORSDOF 9
ENDMDL
