MODEL 1
REMARK VINA RESULT:      -7.5      0.000      0.000
REMARK  Name = 
REMARK  8 active torsions:
REMARK  status: ('A' for Active; 'I' for Inactive)
REMARK    1  A    between atoms: C_2  and  C_3
REMARK    2  A    between atoms: C_3  and  N_4
REMARK    3  A    between atoms: N_7  and  C_8
REMARK    4  A    between atoms: C_8  and  C_9
REMARK    5  A    between atoms: N_11  and  C_12
REMARK    6  A    between atoms: C_15  and  O_16
REMARK    7  A    between atoms: O_16  and  C_17
REMARK    8  A    between atoms: C_17  and  C_18
REMARK                            x       y       z     vdW  Elec       q    Type
REMARK                         _______ _______ _______ _____ _____    ______ ____
ROOT
ATOM      1  C   UNL     1       8.702   9.585  18.341  0.00  0.00    +0.000 C 
ATOM      2  O   UNL     1       9.002   9.296  19.496  0.00  0.00    +0.000 OA
ATOM      3  N   UNL     1       8.006   8.798  17.438  0.00  0.00    +0.000 N 
ATOM      4  H   UNL     1       7.967   9.121  16.479  0.00  0.00    +0.000 HD
ENDROOT
BRANCH   3   5
ATOM      5  C   UNL     1       7.370   7.587  17.755  0.00  0.00    +0.000 A 
ATOM      6  C   UNL     1       6.124   7.261  17.223  0.00  0.00    +0.000 A 
ATOM      7  C   UNL     1       5.500   6.068  17.549  0.00  0.00    +0.000 A 
ATOM      8  C   UNL     1       6.139   5.149  18.374  0.00  0.00    +0.000 A 
ATOM      9  C   UNL     1       7.382   5.464  18.925  0.00  0.00    +0.000 A 
ATOM     10  C   UNL     1       8.007   6.676  18.604  0.00  0.00    +0.000 A 
BRANCH   8  11
ATOM     11  O   UNL     1       5.627   3.914  18.673  0.00  0.00    +0.000 OA
BRANCH  11  12
ATOM     12  C   UNL     1       4.448   3.591  17.927  0.00  0.00    +0.000 C 
BRANCH  12  13
ATOM     13  C   UNL     1       3.311   3.336  18.871  0.00  0.00    +0.000 A 
ATOM     14  C   UNL     1       3.553   3.140  20.233  0.00  0.00    +0.000 A 
ATOM     15  C   UNL     1       2.491   2.914  21.107  0.00  0.00    +0.000 A 
ATOM     16  C   UNL     1       1.183   2.882  20.624  0.00  0.00    +0.000 A 
ATOM     17  C   UNL     1       0.933   3.081  19.267  0.00  0.00    +0.000 A 
ATOM     18  C   UNL     1       1.992   3.307  18.392  0.00  0.00    +0.000 A 
ENDBRANCH  12  13
ENDBRANCH  11  12
ENDBRANCH   8  11
ENDBRANCH   3   5
BRANCH   1  19
ATOM     19  C   UNL     1       9.113  10.934  17.783  0.00  0.00    +0.000 C 
BRANCH  19  23
ATOM     20  N   UNL     1      10.595  14.327  17.457  0.00  0.00    +0.000 NA
ATOM     21  C   UNL     1      11.219  13.110  16.907  0.00  0.00    +0.000 C 
ATOM     22  C   UNL     1      11.345  11.958  17.935  0.00  0.00    +0.000 C 
ATOM     23  N   UNL     1      10.093  11.613  18.661  0.00  0.00    +0.000 NA
ATOM     24  C   UNL     1       9.470  12.849  19.182  0.00  0.00    +0.000 C 
ATOM     25  C   UNL     1       9.323  13.968  18.122  0.00  0.00    +0.000 C 
BRANCH  20  26
ATOM     26  C   UNL     1      11.520  15.010  18.383  0.00  0.00    +0.000 C 
BRANCH  26  28
ATOM     27  N   UNL     1      10.419  17.384  19.324  0.00  0.00    +0.000 NA
ATOM     28  C   UNL     1      10.919  16.307  18.897  0.00  0.00    +0.000 C 
ENDBRANCH  26  28
ENDBRANCH  20  26
ENDBRANCH  19  23
ENDBRANCH   1  19
TORSDOF 8
ENDMDL
MODEL 2
REMARK VINA RESULT:      -7.4      0.763      1.482
REMARK  Name = 
REMARK  8 active torsions:
REMARK  status: ('A' for Active; 'I' for Inactive)
REMARK    1  A    between atoms: C_2  and  C_3
REMARK    2  A    between atoms: C_3  and  N_4
REMARK    3  A    between atoms: N_7  and  C_8
REMARK    4  A    between atoms: C_8  and  C_9
REMARK    5  A    between atoms: N_11  and  C_12
REMARK    6  A    between atoms: C_15  and  O_16
REMARK    7  A    between atoms: O_16  and  C_17
REMARK    8  A    between atoms: C_17  and  C_18
REMARK                            x       y       z     vdW  Elec       q    Type
REMARK                         _______ _______ _______ _____ _____    ______ ____
ROOT
ATOM      1  C   UNL     1       8.619   9.442  18.321  0.00  0.00    +0.000 C 
ATOM      2  O   UNL     1       9.059   9.081  19.409  0.00  0.00    +0.000 OA
ATOM      3  N   UNL     1       7.854   8.694  17.441  0.00  0.00    +0.000 N 
ATOM      4  H   UNL     1       7.695   9.086  16.521  0.00  0.00    +0.000 HD
ENDROOT
BRANCH   3   5
ATOM      5  C   UNL     1       7.302   7.435  17.729  0.00  0.00    +0.000 A 
ATOM      6  C   UNL     1       7.960   6.527  18.556  0.00  0.00    +0.000 A 
ATOM      7  C   UNL     1       7.411   5.284  18.827  0.00  0.00    +0.000 A 
ATOM      8  C   UNL     1       6.162   4.947  18.318  0.00  0.00    +0.000 A 
ATOM      9  C   UNL     1       5.495   5.840  17.479  0.00  0.00    +0.000 A 
ATOM     10  C   UNL     1       6.056   7.092  17.196  0.00  0.00    +0.000 A 
BRANCH   8  11
ATOM     11  O   UNL     1       5.516   3.775  18.610  0.00  0.00    +0.000 OA
BRANCH  11  12
ATOM     12  C   UNL     1       4.203   3.692  18.046  0.00  0.00    +0.000 C 
BRANCH  12  13
ATOM     13  C   UNL     1       3.192   3.547  19.145  0.00  0.00    +0.000 A 
ATOM     14  C   UNL     1       1.916   4.102  19.011  0.00  0.00    +0.000 A 
ATOM     15  C   UNL     1       0.979   3.955  20.031  0.00  0.00    +0.000 A 
ATOM     16  C   UNL     1       1.311   3.253  21.190  0.00  0.00    +0.000 A 
ATOM     17  C   UNL     1       2.580   2.694  21.330  0.00  0.00    +0.000 A 
ATOM     18  C   UNL     1       3.519   2.840  20.313  0.00  0.00    +0.000 A 
ENDBRANCH  12  13
ENDBRANCH  11  12
ENDBRANCH   8  11
ENDBRANCH   3   5
BRANCH   1  19
ATOM     19  C   UNL     1       8.916  10.846  17.829  0.00  0.00    +0.000 C 
BRANCH  19  23
ATOM     20  N   UNL     1       9.785  14.457  17.990  0.00  0.00    +0.000 NA
ATOM     21  C   UNL     1      10.496  13.484  17.139  0.00  0.00    +0.000 C 
ATOM     22  C   UNL     1      10.958  12.215  17.897  0.00  0.00    +0.000 C 
ATOM     23  N   UNL     1       9.904  11.531  18.693  0.00  0.00    +0.000 NA
ATOM     24  C   UNL     1       9.187  12.526  19.519  0.00  0.00    +0.000 C 
ATOM     25  C   UNL     1       8.704  13.764  18.726  0.00  0.00    +0.000 C 
BRANCH  20  26
ATOM     26  C   UNL     1      10.727  15.126  18.907  0.00  0.00    +0.000 C 
BRANCH  26  28
ATOM     27  N   UNL     1      12.332  16.941  17.542  0.00  0.00    +0.000 NA
ATOM     28  C   UNL     1      11.604  16.118  18.162  0.00  0.00    +0.000 C 
ENDBRANCH  26  28
ENDBRANCH  20  26
ENDBRANCH  19  23
ENDBRANCH   1  19
TORSDOF 8
ENDMDL
MODEL 3
REMARK VINA RESULT:      -7.4      0.618      1.120
REMARK  Name = 
REMARK  8 active torsions:
REMARK  status: ('A' for Active; 'I' for Inactive)
REMARK    1  A    between atoms: C_2  and  C_3
REMARK    2  A    between atoms: C_3  and  N_4
REMARK    3  A    between atoms: N_7  and  C_8
REMARK    4  A    between atoms: C_8  and  C_9
REMARK    5  A    between atoms: N_11  and  C_12
REMARK    6  A    between atoms: C_15  and  O_16
REMARK    7  A    between atoms: O_16  and  C_17
REMARK    8  A    between atoms: C_17  and  C_18
REMARK                            x       y       z     vdW  Elec       q    Type
REMARK                         _______ _______ _______ _____ _____    ______ ____
ROOT
ATOM      1  C   UNL     1       8.662   9.570  18.365  0.00  0.00    +0.000 C 
ATOM      2  O   UNL     1       9.003   9.187  19.481  0.00  0.00    +0.000 OA
ATOM      3  N   UNL     1       7.950   8.853  17.418  0.00  0.00    +0.000 N 
ATOM      4  H   UNL     1       7.875   9.258  16.493  0.00  0.00    +0.000 HD
ENDROOT
BRANCH   3   5
ATOM      5  C   UNL     1       7.341   7.608  17.647  0.00  0.00    +0.000 A 
ATOM      6  C   UNL     1       7.937   6.648  18.462  0.00  0.00    +0.000 A 
ATOM      7  C   UNL     1       7.334   5.419  18.674  0.00  0.00    +0.000 A 
ATOM      8  C   UNL     1       6.089   5.148  18.117  0.00  0.00    +0.000 A 
ATOM      9  C   UNL     1       5.483   6.094  17.289  0.00  0.00    +0.000 A 
ATOM     10  C   UNL     1       6.100   7.331  17.066  0.00  0.00    +0.000 A 
BRANCH   8  11
ATOM     11  O   UNL     1       5.390   3.993  18.350  0.00  0.00    +0.000 OA
BRANCH  11  12
ATOM     12  C   UNL     1       4.244   3.840  17.505  0.00  0.00    +0.000 C 
BRANCH  12  13
ATOM     13  C   UNL     1       3.028   3.593  18.348  0.00  0.00    +0.000 A 
ATOM     14  C   UNL     1       2.743   4.419  19.438  0.00  0.00    +0.000 A 
ATOM     15  C   UNL     1       1.605   4.190  20.210  0.00  0.00    +0.000 A 
ATOM     16  C   UNL     1       0.749   3.135  19.897  0.00  0.00    +0.000 A 
ATOM     17  C   UNL     1       1.025   2.308  18.810  0.00  0.00    +0.000 A 
ATOM     18  C   UNL     1       2.160   2.534  18.037  0.00  0.00    +0.000 A 
ENDBRANCH  12  13
ENDBRANCH  11  12
ENDBRANCH   8  11
ENDBRANCH   3   5
BRANCH   1  19
ATOM     19  C   UNL     1       9.037  10.969  17.914  0.00  0.00    +0.000 C 
BRANCH  19  23
ATOM     20  N   UNL     1      10.819  14.220  17.646  0.00  0.00    +0.000 NA
ATOM     21  C   UNL     1      11.444  12.921  17.338  0.00  0.00    +0.000 C 
ATOM     22  C   UNL     1      11.264  11.863  18.455  0.00  0.00    +0.000 C 
ATOM     23  N   UNL     1       9.866  11.665  18.925  0.00  0.00    +0.000 NA
ATOM     24  C   UNL     1       9.249  12.981  19.203  0.00  0.00    +0.000 C 
ATOM     25  C   UNL     1       9.413  14.003  18.052  0.00  0.00    +0.000 C 
BRANCH  20  26
ATOM     26  C   UNL     1      11.585  14.928  18.691  0.00  0.00    +0.000 C 
BRANCH  26  28
ATOM     27  N   UNL     1      10.519  17.450  19.175  0.00  0.00    +0.000 NA
ATOM     28  C   UNL     1      11.003  16.306  18.956  0.00  0.00    +0.000 C 
ENDBRANCH  26  28
ENDBRANCH  20  26
ENDBRANCH  19  23
ENDBRANCH   1  19
TORSDOF 8
ENDMDL
MODEL 4
REMARK VINA RESULT:      -7.3      1.467      2.114
REMARK  Name = 
REMARK  8 active torsions:
REMARK  status: ('A' for Active; 'I' for Inactive)
REMARK    1  A    between atoms: C_2  and  C_3
REMARK    2  A    between atoms: C_3  and  N_4
REMARK    3  A    between atoms: N_7  and  C_8
REMARK    4  A    between atoms: C_8  and  C_9
REMARK    5  A    between atoms: N_11  and  C_12
REMARK    6  A    between atoms: C_15  and  O_16
REMARK    7  A    between atoms: O_16  and  C_17
REMARK    8  A    between atoms: C_17  and  C_18
REMARK                            x       y       z     vdW  Elec       q    Type
REMARK                         _______ _______ _______ _____ _____    ______ ____
ROOT
ATOM      1  C   UNL     1       8.108   8.104  17.895  0.00  0.00    +0.000 C 
ATOM      2  O   UNL     1       8.372   7.399  18.865  0.00  0.00    +0.000 OA
ATOM      3  N   UNL     1       7.178   7.842  16.902  0.00  0.00    +0.000 N 
ATOM      4  H   UNL     1       7.184   8.451  16.092  0.00  0.00    +0.000 HD
ENDROOT
BRANCH   3   5
ATOM      5  C   UNL     1       6.245   6.793  16.934  0.00  0.00    +0.000 A 
ATOM      6  C   UNL     1       4.965   6.976  17.452  0.00  0.00    +0.000 A 
ATOM      7  C   UNL     1       4.055   5.931  17.489  0.00  0.00    +0.000 A 
ATOM      8  C   UNL     1       4.393   4.693  16.954  0.00  0.00    +0.000 A 
ATOM      9  C   UNL     1       5.674   4.490  16.441  0.00  0.00    +0.000 A 
ATOM     10  C   UNL     1       6.598   5.543  16.416  0.00  0.00    +0.000 A 
BRANCH   8  11
ATOM     11  O   UNL     1       3.521   3.639  16.874  0.00  0.00    +0.000 OA
BRANCH  11  12
ATOM     12  C   UNL     1       3.802   2.596  17.812  0.00  0.00    +0.000 C 
BRANCH  12  13
ATOM     13  C   UNL     1       2.913   2.746  19.011  0.00  0.00    +0.000 A 
ATOM     14  C   UNL     1       1.550   3.014  18.852  0.00  0.00    +0.000 A 
ATOM     15  C   UNL     1       0.728   3.142  19.970  0.00  0.00    +0.000 A 
ATOM     16  C   UNL     1       1.262   3.002  21.250  0.00  0.00    +0.000 A 
ATOM     17  C   UNL     1       2.619   2.731  21.418  0.00  0.00    +0.000 A 
ATOM     18  C   UNL     1       3.443   2.604  20.303  0.00  0.00    +0.000 A 
ENDBRANCH  12  13
ENDBRANCH  11  12
ENDBRANCH   8  11
ENDBRANCH   3   5
BRANCH   1  19
ATOM     19  C   UNL     1       8.852   9.412  17.703  0.00  0.00    +0.000 C 
BRANCH  19  23
ATOM     20  N   UNL     1      10.554  12.551  18.736  0.00  0.00    +0.000 NA
ATOM     21  C   UNL     1      10.707  11.269  19.449  0.00  0.00    +0.000 C 
ATOM     22  C   UNL     1       9.361  10.589  19.803  0.00  0.00    +0.000 C 
ATOM     23  N   UNL     1       8.406  10.440  18.671  0.00  0.00    +0.000 NA
ATOM     24  C   UNL     1       8.287  11.729  17.955  0.00  0.00    +0.000 C 
ATOM     25  C   UNL     1       9.648  12.364  17.581  0.00  0.00    +0.000 C 
BRANCH  20  26
ATOM     26  C   UNL     1      10.059  13.596  19.654  0.00  0.00    +0.000 C 
BRANCH  26  28
ATOM     27  N   UNL     1      10.788  16.129  18.769  0.00  0.00    +0.000 NA
ATOM     28  C   UNL     1      10.458  14.980  19.171  0.00  0.00    +0.000 C 
ENDBRANCH  26  28
ENDBRANCH  20  26
ENDBRANCH  19  23
ENDBRANCH   1  19
TORSDOF 8
ENDMDL
MODEL 5
REMARK VINA RESULT:      -7.3      1.364      1.954
REMARK  Name = 
REMARK  8 active torsions:
REMARK  status: ('A' for Active; 'I' for Inactive)
REMARK    1  A    between atoms: C_2  and  C_3
REMARK    2  A    between atoms: C_3  and  N_4
REMARK    3  A    between atoms: N_7  and  C_8
REMARK    4  A    between atoms: C_8  and  C_9
REMARK    5  A    between atoms: N_11  and  C_12
REMARK    6  A    between atoms: C_15  and  O_16
REMARK    7  A    between atoms: O_16  and  C_17
REMARK    8  A    between atoms: C_17  and  C_18
REMARK                            x       y       z     vdW  Elec       q    Type
REMARK                         _______ _______ _______ _____ _____    ______ ____
ROOT
ATOM      1  C   UNL     1       8.497   9.400  18.309  0.00  0.00    +0.000 C 
ATOM      2  O   UNL     1       7.512   9.893  17.766  0.00  0.00    +0.000 OA
ATOM      3  N   UNL     1       8.658   8.083  18.707  0.00  0.00    +0.000 N 
ATOM      4  H   UNL     1       9.471   7.869  19.273  0.00  0.00    +0.000 HD
ENDROOT
BRANCH   3   5
ATOM      5  C   UNL     1       7.774   7.038  18.396  0.00  0.00    +0.000 A 
ATOM      6  C   UNL     1       7.671   5.910  19.207  0.00  0.00    +0.000 A 
ATOM      7  C   UNL     1       6.802   4.879  18.886  0.00  0.00    +0.000 A 
ATOM      8  C   UNL     1       5.976   4.984  17.772  0.00  0.00    +0.000 A 
ATOM      9  C   UNL     1       6.074   6.102  16.944  0.00  0.00    +0.000 A 
ATOM     10  C   UNL     1       6.962   7.138  17.262  0.00  0.00    +0.000 A 
BRANCH   8  11
ATOM     11  O   UNL     1       5.032   4.049  17.439  0.00  0.00    +0.000 OA
BRANCH  11  12
ATOM     12  C   UNL     1       3.756   4.616  17.122  0.00  0.00    +0.000 C 
BRANCH  12  13
ATOM     13  C   UNL     1       2.800   4.364  18.250  0.00  0.00    +0.000 A 
ATOM     14  C   UNL     1       1.900   3.296  18.188  0.00  0.00    +0.000 A 
ATOM     15  C   UNL     1       1.021   3.061  19.244  0.00  0.00    +0.000 A 
ATOM     16  C   UNL     1       1.038   3.890  20.365  0.00  0.00    +0.000 A 
ATOM     17  C   UNL     1       1.934   4.954  20.436  0.00  0.00    +0.000 A 
ATOM     18  C   UNL     1       2.813   5.192  19.383  0.00  0.00    +0.000 A 
ENDBRANCH  12  13
ENDBRANCH  11  12
ENDBRANCH   8  11
ENDBRANCH   3   5
BRANCH   1  19
ATOM     19  C   UNL     1       9.697  10.278  18.607  0.00  0.00    +0.000 C 
BRANCH  19  23
ATOM     20  N   UNL     1      11.779  13.341  18.924  0.00  0.00    +0.000 NA
ATOM     21  C   UNL     1      11.494  12.430  20.048  0.00  0.00    +0.000 C 
ATOM     22  C   UNL     1       9.988  12.111  20.223  0.00  0.00    +0.000 C 
ATOM     23  N   UNL     1       9.289  11.649  18.993  0.00  0.00    +0.000 NA
ATOM     24  C   UNL     1       9.609  12.560  17.873  0.00  0.00    +0.000 C 
ATOM     25  C   UNL     1      11.123  12.830  17.701  0.00  0.00    +0.000 C 
BRANCH  20  26
ATOM     26  C   UNL     1      11.338  14.713  19.246  0.00  0.00    +0.000 C 
BRANCH  26  28
ATOM     27  N   UNL     1      11.795  16.436  17.112  0.00  0.00    +0.000 NA
ATOM     28  C   UNL     1      11.588  15.654  18.080  0.00  0.00    +0.000 C 
ENDBRANCH  26  28
ENDBRANCH  20  26
ENDBRANCH  19  23
ENDBRANCH   1  19
TORSDOF 8
ENDMDL
MODEL 6
REMARK VINA RESULT:      -7.2      7.489     10.450
REMARK  Name = 
REMARK  8 active torsions:
REMARK  status: ('A' for Active; 'I' for Inactive)
REMARK    1  A    between atoms: C_2  and  C_3
REMARK    2  A    between atoms: C_3  and  N_4
REMARK    3  A    between atoms: N_7  and  C_8
REMARK    4  A    between atoms: C_8  and  C_9
REMARK    5  A    between atoms: N_11  and  C_12
REMARK    6  A    between atoms: C_15  and  O_16
REMARK    7  A    between atoms: O_16  and  C_17
REMARK    8  A    between atoms: C_17  and  C_18
REMARK                            x       y       z     vdW  Elec       q    Type
REMARK                         _______ _______ _______ _____ _____    ______ ____
ROOT
ATOM      1  C   UNL     1       2.111   6.386  20.275  0.00  0.00    +0.000 C 
ATOM      2  O   UNL     1       1.260   5.679  20.807  0.00  0.00    +0.000 OA
ATOM      3  N   UNL     1       2.130   7.770  20.219  0.00  0.00    +0.000 N 
ATOM      4  H   UNL     1       2.824   8.198  19.617  0.00  0.00    +0.000 HD
ENDROOT
BRANCH   3   5
ATOM      5  C   UNL     1       1.254   8.613  20.923  0.00  0.00    +0.000 A 
ATOM      6  C   UNL     1       1.287   8.695  22.313  0.00  0.00    +0.000 A 
ATOM      7  C   UNL     1       0.412   9.522  22.998  0.00  0.00    +0.000 A 
ATOM      8  C   UNL     1      -0.480  10.327  22.299  0.00  0.00    +0.000 A 
ATOM      9  C   UNL     1      -0.534  10.249  20.907  0.00  0.00    +0.000 A 
ATOM     10  C   UNL     1       0.343   9.403  20.215  0.00  0.00    +0.000 A 
BRANCH   8  11
ATOM     11  O   UNL     1      -1.314  11.232  22.899  0.00  0.00    +0.000 OA
BRANCH  11  12
ATOM     12  C   UNL     1      -1.903  12.160  21.981  0.00  0.00    +0.000 C 
BRANCH  12  13
ATOM     13  C   UNL     1      -3.294  12.497  22.429  0.00  0.00    +0.000 A 
ATOM     14  C   UNL     1      -4.303  12.729  21.490  0.00  0.00    +0.000 A 
ATOM     15  C   UNL     1      -5.596  13.030  21.914  0.00  0.00    +0.000 A 
ATOM     16  C   UNL     1      -5.886  13.102  23.276  0.00  0.00    +0.000 A 
ATOM     17  C   UNL     1      -4.887  12.869  24.219  0.00  0.00    +0.000 A 
ATOM     18  C   UNL     1      -3.594  12.568  23.799  0.00  0.00    +0.000 A 
ENDBRANCH  12  13
ENDBRANCH  11  12
ENDBRANCH   8  11
ENDBRANCH   3   5
BRANCH   1  19
ATOM     19  C   UNL     1       3.291   5.732  19.581  0.00  0.00    +0.000 C 
BRANCH  19  23
ATOM     20  N   UNL     1       5.507   4.293  16.966  0.00  0.00    +0.000 NA
ATOM     21  C   UNL     1       5.675   5.649  17.521  0.00  0.00    +0.000 C 
ATOM     22  C   UNL     1       4.375   6.492  17.508  0.00  0.00    +0.000 C 
ATOM     23  N   UNL     1       3.184   5.833  18.108  0.00  0.00    +0.000 NA
ATOM     24  C   UNL     1       3.048   4.466  17.559  0.00  0.00    +0.000 C 
ATOM     25  C   UNL     1       4.354   3.636  17.621  0.00  0.00    +0.000 C 
BRANCH  20  26
ATOM     26  C   UNL     1       5.342   4.350  15.501  0.00  0.00    +0.000 C 
BRANCH  26  28
ATOM     27  N   UNL     1       7.612   5.393  14.279  0.00  0.00    +0.000 NA
ATOM     28  C   UNL     1       6.582   4.920  14.833  0.00  0.00    +0.000 C 
ENDBRANCH  26  28
ENDBRANCH  20  26
ENDBRANCH  19  23
ENDBRANCH   1  19
TORSDOF 8
ENDMDL
MODEL 7
REMARK VINA RESULT:      -7.0      1.377      1.669
REMARK  Name = 
REMARK  8 active torsions:
REMARK  status: ('A' for Active; 'I' for Inactive)
REMARK    1  A    between atoms: C_2  and  C_3
REMARK    2  A    between atoms: C_3  and  N_4
REMARK    3  A    between atoms: N_7  and  C_8
REMARK    4  A    between atoms: C_8  and  C_9
REMARK    5  A    between atoms: N_11  and  C_12
REMARK    6  A    between atoms: C_15  and  O_16
REMARK    7  A    between atoms: O_16  and  C_17
REMARK    8  A    between atoms: C_17  and  C_18
REMARK                            x       y       z     vdW  Elec       q    Type
REMARK                         _______ _______ _______ _____ _____    ______ ____
ROOT
ATOM      1  C   UNL     1       8.191   8.792  18.137  0.00  0.00    +0.000 C 
ATOM      2  O   UNL     1       8.751   8.101  18.984  0.00  0.00    +0.000 OA
ATOM      3  N   UNL     1       7.195   8.393  17.261  0.00  0.00    +0.000 N 
ATOM      4  H   UNL     1       6.940   9.041  16.526  0.00  0.00    +0.000 HD
ENDROOT
BRANCH   3   5
ATOM      5  C   UNL     1       6.531   7.156  17.313  0.00  0.00    +0.000 A 
ATOM      6  C   UNL     1       5.192   7.067  17.687  0.00  0.00    +0.000 A 
ATOM      7  C   UNL     1       4.548   5.842  17.744  0.00  0.00    +0.000 A 
ATOM      8  C   UNL     1       5.220   4.682  17.372  0.00  0.00    +0.000 A 
ATOM      9  C   UNL     1       6.565   4.752  17.005  0.00  0.00    +0.000 A 
ATOM     10  C   UNL     1       7.218   5.991  16.959  0.00  0.00    +0.000 A 
BRANCH   8  11
ATOM     11  O   UNL     1       4.629   3.448  17.319  0.00  0.00    +0.000 OA
BRANCH  11  12
ATOM     12  C   UNL     1       3.203   3.505  17.203  0.00  0.00    +0.000 C 
BRANCH  12  13
ATOM     13  C   UNL     1       2.583   3.349  18.560  0.00  0.00    +0.000 A 
ATOM     14  C   UNL     1       1.453   4.093  18.911  0.00  0.00    +0.000 A 
ATOM     15  C   UNL     1       0.875   3.936  20.170  0.00  0.00    +0.000 A 
ATOM     16  C   UNL     1       1.423   3.035  21.082  0.00  0.00    +0.000 A 
ATOM     17  C   UNL     1       2.547   2.286  20.739  0.00  0.00    +0.000 A 
ATOM     18  C   UNL     1       3.127   2.441  19.483  0.00  0.00    +0.000 A 
ENDBRANCH  12  13
ENDBRANCH  11  12
ENDBRANCH   8  11
ENDBRANCH   3   5
BRANCH   1  19
ATOM     19  C   UNL     1       8.592  10.246  17.982  0.00  0.00    +0.000 C 
BRANCH  19  23
ATOM     20  N   UNL     1       9.862  13.549  19.123  0.00  0.00    +0.000 NA
ATOM     21  C   UNL     1      10.252  12.923  17.846  0.00  0.00    +0.000 C 
ATOM     22  C   UNL     1      10.733  11.458  17.993  0.00  0.00    +0.000 C 
ATOM     23  N   UNL     1       9.818  10.560  18.749  0.00  0.00    +0.000 NA
ATOM     24  C   UNL     1       9.419  11.217  20.013  0.00  0.00    +0.000 C 
ATOM     25  C   UNL     1       8.907  12.666  19.829  0.00  0.00    +0.000 C 
BRANCH  20  26
ATOM     26  C   UNL     1      11.054  13.831  19.946  0.00  0.00    +0.000 C 
BRANCH  26  28
ATOM     27  N   UNL     1      10.718  16.160  21.427  0.00  0.00    +0.000 NA
ATOM     28  C   UNL     1      10.870  15.104  20.755  0.00  0.00    +0.000 C 
ENDBRANCH  26  28
ENDBRANCH  20  26
ENDBRANCH  19  23
ENDBRANCH   1  19
TORSDOF 8
ENDMDL
MODEL 8
REMARK VINA RESULT:      -7.0      7.722     10.528
REMARK  Name = 
REMARK  8 active torsions:
REMARK  status: ('A' for Active; 'I' for Inactive)
REMARK    1  A    between atoms: C_2  and  C_3
REMARK    2  A    between atoms: C_3  and  N_4
REMARK    3  A    between atoms: N_7  and  C_8
REMARK    4  A    between atoms: C_8  and  C_9
REMARK    5  A    between atoms: N_11  and  C_12
REMARK    6  A    between atoms: C_15  and  O_16
REMARK    7  A    between atoms: O_16  and  C_17
REMARK    8  A    between atoms: C_17  and  C_18
REMARK                            x       y       z     vdW  Elec       q    Type
REMARK                         _______ _______ _______ _____ _____    ______ ____
ROOT
ATOM      1  C   UNL     1       2.111   6.447  20.246  0.00  0.00    +0.000 C 
ATOM      2  O   UNL     1       1.248   5.731  20.747  0.00  0.00    +0.000 OA
ATOM      3  N   UNL     1       2.129   7.832  20.212  0.00  0.00    +0.000 N 
ATOM      4  H   UNL     1       2.836   8.269  19.634  0.00  0.00    +0.000 HD
ENDROOT
BRANCH   3   5
ATOM      5  C   UNL     1       1.233   8.662  20.905  0.00  0.00    +0.000 A 
ATOM      6  C   UNL     1       0.332   9.481  20.228  0.00  0.00    +0.000 A 
ATOM      7  C   UNL     1      -0.542  10.304  20.921  0.00  0.00    +0.000 A 
ATOM      8  C   UNL     1      -0.568  10.281  22.311  0.00  0.00    +0.000 A 
ATOM      9  C   UNL     1       0.336   9.475  23.005  0.00  0.00    +0.000 A 
ATOM     10  C   UNL     1       1.227   8.652  22.303  0.00  0.00    +0.000 A 
BRANCH   8  11
ATOM     11  O   UNL     1      -1.459  10.998  23.064  0.00  0.00    +0.000 OA
BRANCH  11  12
ATOM     12  C   UNL     1      -1.279  12.415  22.963  0.00  0.00    +0.000 C 
BRANCH  12  13
ATOM     13  C   UNL     1      -2.588  13.106  23.207  0.00  0.00    +0.000 A 
ATOM     14  C   UNL     1      -2.651  14.229  24.036  0.00  0.00    +0.000 A 
ATOM     15  C   UNL     1      -3.868  14.873  24.250  0.00  0.00    +0.000 A 
ATOM     16  C   UNL     1      -5.027  14.397  23.637  0.00  0.00    +0.000 A 
ATOM     17  C   UNL     1      -4.973  13.280  22.806  0.00  0.00    +0.000 A 
ATOM     18  C   UNL     1      -3.758  12.635  22.591  0.00  0.00    +0.000 A 
ENDBRANCH  12  13
ENDBRANCH  11  12
ENDBRANCH   8  11
ENDBRANCH   3   5
BRANCH   1  19
ATOM     19  C   UNL     1       3.310   5.805  19.574  0.00  0.00    +0.000 C 
BRANCH  19  23
ATOM     20  N   UNL     1       5.540   4.308  17.004  0.00  0.00    +0.000 NA
ATOM     21  C   UNL     1       5.700   5.679  17.523  0.00  0.00    +0.000 C 
ATOM     22  C   UNL     1       4.397   6.515  17.484  0.00  0.00    +0.000 C 
ATOM     23  N   UNL     1       3.207   5.867  18.098  0.00  0.00    +0.000 NA
ATOM     24  C   UNL     1       3.079   4.485  17.585  0.00  0.00    +0.000 C 
ATOM     25  C   UNL     1       4.387   3.663  17.672  0.00  0.00    +0.000 C 
BRANCH  20  26
ATOM     26  C   UNL     1       5.379   4.325  15.537  0.00  0.00    +0.000 C 
BRANCH  26  28
ATOM     27  N   UNL     1       7.631   5.385  14.298  0.00  0.00    +0.000 NA
ATOM     28  C   UNL     1       6.610   4.904  14.860  0.00  0.00    +0.000 C 
ENDBRANCH  26  28
ENDBRANCH  20  26
ENDBRANCH  19  23
ENDBRANCH   1  19
TORSDOF 8
ENDMDL
MODEL 9
REMARK VINA RESULT:      -7.0      8.315      9.581
REMARK  Name = 
REMARK  8 active torsions:
REMARK  status: ('A' for Active; 'I' for Inactive)
REMARK    1  A    between atoms: C_2  and  C_3
REMARK    2  A    between atoms: C_3  and  N_4
REMARK    3  A    between atoms: N_7  and  C_8
REMARK    4  A    between atoms: C_8  and  C_9
REMARK    5  A    between atoms: N_11  and  C_12
REMARK    6  A    between atoms: C_15  and  O_16
REMARK    7  A    between atoms: O_16  and  C_17
REMARK    8  A    between atoms: C_17  and  C_18
REMARK                            x       y       z     vdW  Elec       q    Type
REMARK                         _______ _______ _______ _____ _____    ______ ____
ROOT
ATOM      1  C   UNL     1       0.744  12.622  20.366  0.00  0.00    +0.000 C 
ATOM      2  O   UNL     1       1.845  12.706  20.904  0.00  0.00    +0.000 OA
ATOM      3  N   UNL     1       0.255  11.556  19.629  0.00  0.00    +0.000 N 
ATOM      4  H   UNL     1      -0.614  11.701  19.129  0.00  0.00    +0.000 HD
ENDROOT
BRANCH   3   5
ATOM      5  C   UNL     1       0.883  10.305  19.517  0.00  0.00    +0.000 A 
ATOM      6  C   UNL     1       1.478   9.896  18.326  0.00  0.00    +0.000 A 
ATOM      7  C   UNL     1       2.087   8.656  18.222  0.00  0.00    +0.000 A 
ATOM      8  C   UNL     1       2.160   7.819  19.331  0.00  0.00    +0.000 A 
ATOM      9  C   UNL     1       1.559   8.209  20.529  0.00  0.00    +0.000 A 
ATOM     10  C   UNL     1       0.933   9.458  20.629  0.00  0.00    +0.000 A 
BRANCH   8  11
ATOM     11  O   UNL     1       2.819   6.619  19.332  0.00  0.00    +0.000 OA
BRANCH  11  12
ATOM     12  C   UNL     1       2.716   5.912  18.091  0.00  0.00    +0.000 C 
BRANCH  12  13
ATOM     13  C   UNL     1       2.259   4.507  18.349  0.00  0.00    +0.000 A 
ATOM     14  C   UNL     1       2.742   3.452  17.570  0.00  0.00    +0.000 A 
ATOM     15  C   UNL     1       2.321   2.147  17.822  0.00  0.00    +0.000 A 
ATOM     16  C   UNL     1       1.417   1.891  18.853  0.00  0.00    +0.000 A 
ATOM     17  C   UNL     1       0.934   2.937  19.637  0.00  0.00    +0.000 A 
ATOM     18  C   UNL     1       1.352   4.241  19.387  0.00  0.00    +0.000 A 
ENDBRANCH  12  13
ENDBRANCH  11  12
ENDBRANCH   8  11
ENDBRANCH   3   5
BRANCH   1  19
ATOM     19  C   UNL     1      -0.229  13.780  20.481  0.00  0.00    +0.000 C 
BRANCH  19  23
ATOM     20  N   UNL     1      -3.501  13.935  22.239  0.00  0.00    +0.000 NA
ATOM     21  C   UNL     1      -2.865  15.100  21.597  0.00  0.00    +0.000 C 
ATOM     22  C   UNL     1      -1.389  15.313  22.016  0.00  0.00    +0.000 C 
ATOM     23  N   UNL     1      -0.514  14.116  21.895  0.00  0.00    +0.000 NA
ATOM     24  C   UNL     1      -1.181  12.953  22.522  0.00  0.00    +0.000 C 
ATOM     25  C   UNL     1      -2.642  12.744  22.054  0.00  0.00    +0.000 C 
BRANCH  20  26
ATOM     26  C   UNL     1      -3.755  14.206  23.667  0.00  0.00    +0.000 C 
BRANCH  26  28
ATOM     27  N   UNL     1      -4.816  11.970  24.935  0.00  0.00    +0.000 NA
ATOM     28  C   UNL     1      -4.335  12.984  24.360  0.00  0.00    +0.000 C 
ENDBRANCH  26  28
ENDBRANCH  20  26
ENDBRANCH  19  23
ENDBRANCH   1  19
TORSDOF 8
ENDMDL
