MODEL 1
REMARK VINA RESULT:      -8.2      0.000      0.000
REMARK  Name = 
REMARK  3 active torsions:
REMARK  status: ('A' for Active; 'I' for Inactive)
REMARK    1  A    between atoms: C_1  and  C_2
REMARK    2  A    between atoms: C_5  and  C_6
REMARK    3  A    between atoms: C_6  and  N_7
REMARK                            x       y       z     vdW  Elec       q    Type
REMARK                         _______ _______ _______ _____ _____    ______ ____
ROOT
ATOM      1  N   UNL     1       4.879   3.803  18.075  0.00  0.00    +0.000 NA
ATOM      2  C   UNL     1       4.033   2.808  17.410  0.00  0.00    +0.000 C 
ATOM      3  C   UNL     1       2.607   3.299  17.190  0.00  0.00    +0.000 C 
ATOM      4  C   UNL     1       2.010   3.872  18.462  0.00  0.00    +0.000 C 
ATOM      5  F   UNL     1       1.724   2.784  19.252  0.00  0.00    +0.000 F 
ATOM      6  F   UNL     1       0.808   4.432  18.178  0.00  0.00    +0.000 F 
ATOM      7  C   UNL     1       2.879   4.830  19.296  0.00  0.00    +0.000 C 
ATOM      8  C   UNL     1       2.204   4.997  20.693  0.00  0.00    +0.000 C 
ATOM      9  C   UNL     1       1.847   6.476  20.860  0.00  0.00    +0.000 C 
ATOM     10  N   UNL     1       1.918   6.993  19.507  0.00  0.00    +0.000 N 
ATOM     11  C   UNL     1       1.751   8.342  19.242  0.00  0.00    +0.000 A 
ATOM     12  C   UNL     1       0.847   9.143  19.946  0.00  0.00    +0.000 A 
ATOM     13  N   UNL     1       0.591  10.455  19.684  0.00  0.00    +0.000 NA
ATOM     14  C   UNL     1       1.272  10.957  18.643  0.00  0.00    +0.000 A 
ATOM     15  C   UNL     1       2.173  10.196  17.924  0.00  0.00    +0.000 A 
ATOM     16  N   UNL     1       2.429   8.892  18.207  0.00  0.00    +0.000 NA
ATOM     17  C   UNL     1       2.959   6.277  18.780  0.00  0.00    +0.000 C 
ATOM     18  C   UNL     1       4.289   4.207  19.366  0.00  0.00    +0.000 C 
ENDROOT
BRANCH   1  19
ATOM     19  C   UNL     1       5.276   4.893  17.164  0.00  0.00    +0.000 C 
BRANCH  19  24
ATOM     20  C   UNL     1       7.997   8.910  17.642  0.00  0.00    +0.000 C 
ATOM     21  C   UNL     1       7.615   7.518  17.964  0.00  0.00    +0.000 A 
ATOM     22  C   UNL     1       8.184   6.564  18.775  0.00  0.00    +0.000 A 
ATOM     23  C   UNL     1       7.415   5.394  18.616  0.00  0.00    +0.000 A 
ATOM     24  C   UNL     1       6.396   5.698  17.733  0.00  0.00    +0.000 A 
ATOM     25  O   UNL     1       6.505   7.012  17.347  0.00  0.00    +0.000 OA
ENDBRANCH  19  24
ENDBRANCH   1  19
TORSDOF 2
ENDMDL
MODEL 2
REMARK VINA RESULT:      -7.9      3.763      5.908
REMARK  Name = 
REMARK  3 active torsions:
REMARK  status: ('A' for Active; 'I' for Inactive)
REMARK    1  A    between atoms: C_1  and  C_2
REMARK    2  A    between atoms: C_5  and  C_6
REMARK    3  A    between atoms: C_6  and  N_7
REMARK                            x       y       z     vdW  Elec       q    Type
REMARK                         _______ _______ _______ _____ _____    ______ ____
ROOT
ATOM      1  N   UNL     1       6.212   5.441  14.828  0.00  0.00    +0.000 NA
ATOM      2  C   UNL     1       7.517   5.662  15.458  0.00  0.00    +0.000 C 
ATOM      3  C   UNL     1       7.484   5.471  16.969  0.00  0.00    +0.000 C 
ATOM      4  C   UNL     1       6.346   6.248  17.607  0.00  0.00    +0.000 C 
ATOM      5  F   UNL     1       6.747   7.562  17.584  0.00  0.00    +0.000 F 
ATOM      6  F   UNL     1       6.265   5.922  18.921  0.00  0.00    +0.000 F 
ATOM      7  C   UNL     1       4.963   6.176  16.936  0.00  0.00    +0.000 C 
ATOM      8  C   UNL     1       4.075   7.305  17.548  0.00  0.00    +0.000 C 
ATOM      9  C   UNL     1       2.879   6.635  18.228  0.00  0.00    +0.000 C 
ATOM     10  N   UNL     1       3.299   5.253  18.359  0.00  0.00    +0.000 N 
ATOM     11  C   UNL     1       2.441   4.284  18.852  0.00  0.00    +0.000 A 
ATOM     12  C   UNL     1       1.522   4.538  19.874  0.00  0.00    +0.000 A 
ATOM     13  N   UNL     1       0.703   3.609  20.443  0.00  0.00    +0.000 NA
ATOM     14  C   UNL     1       0.854   2.366  19.961  0.00  0.00    +0.000 A 
ATOM     15  C   UNL     1       1.751   2.078  18.952  0.00  0.00    +0.000 A 
ATOM     16  N   UNL     1       2.550   3.018  18.383  0.00  0.00    +0.000 NA
ATOM     17  C   UNL     1       4.146   4.905  17.226  0.00  0.00    +0.000 C 
ATOM     18  C   UNL     1       5.193   6.331  15.419  0.00  0.00    +0.000 C 
ENDROOT
BRANCH   1  19
ATOM     19  C   UNL     1       5.869   4.009  14.751  0.00  0.00    +0.000 C 
BRANCH  19  24
ATOM     20  C   UNL     1       3.351   3.215  10.652  0.00  0.00    +0.000 C 
ATOM     21  C   UNL     1       4.579   3.221  11.478  0.00  0.00    +0.000 A 
ATOM     22  C   UNL     1       5.856   2.770  11.242  0.00  0.00    +0.000 A 
ATOM     23  C   UNL     1       6.577   2.973  12.436  0.00  0.00    +0.000 A 
ATOM     24  C   UNL     1       5.710   3.562  13.336  0.00  0.00    +0.000 A 
ATOM     25  O   UNL     1       4.484   3.735  12.740  0.00  0.00    +0.000 OA
ENDBRANCH  19  24
ENDBRANCH   1  19
TORSDOF 2
ENDMDL
MODEL 3
REMARK VINA RESULT:      -7.8      1.165      1.545
REMARK  Name = 
REMARK  3 active torsions:
REMARK  status: ('A' for Active; 'I' for Inactive)
REMARK    1  A    between atoms: C_1  and  C_2
REMARK    2  A    between atoms: C_5  and  C_6
REMARK    3  A    between atoms: C_6  and  N_7
REMARK                            x       y       z     vdW  Elec       q    Type
REMARK                         _______ _______ _______ _____ _____    ______ ____
ROOT
ATOM      1  N   UNL     1       3.917   2.872  18.004  0.00  0.00    +0.000 NA
ATOM      2  C   UNL     1       2.840   1.884  17.896  0.00  0.00    +0.000 C 
ATOM      3  C   UNL     1       1.464   2.477  18.181  0.00  0.00    +0.000 C 
ATOM      4  C   UNL     1       1.454   3.269  19.476  0.00  0.00    +0.000 C 
ATOM      5  F   UNL     1       1.474   2.328  20.477  0.00  0.00    +0.000 F 
ATOM      6  F   UNL     1       0.260   3.900  19.602  0.00  0.00    +0.000 F 
ATOM      7  C   UNL     1       2.619   4.241  19.733  0.00  0.00    +0.000 C 
ATOM      8  C   UNL     1       2.573   4.656  21.237  0.00  0.00    +0.000 C 
ATOM      9  C   UNL     1       2.367   6.172  21.291  0.00  0.00    +0.000 C 
ATOM     10  N   UNL     1       1.903   6.495  19.956  0.00  0.00    +0.000 N 
ATOM     11  C   UNL     1       1.690   7.807  19.566  0.00  0.00    +0.000 A 
ATOM     12  C   UNL     1       1.177   8.778  20.430  0.00  0.00    +0.000 A 
ATOM     13  N   UNL     1       0.884  10.063  20.083  0.00  0.00    +0.000 NA
ATOM     14  C   UNL     1       1.102  10.353  18.792  0.00  0.00    +0.000 A 
ATOM     15  C   UNL     1       1.609   9.420  17.909  0.00  0.00    +0.000 A 
ATOM     16  N   UNL     1       1.910   8.147  18.274  0.00  0.00    +0.000 NA
ATOM     17  C   UNL     1       2.535   5.592  19.002  0.00  0.00    +0.000 C 
ATOM     18  C   UNL     1       3.914   3.499  19.340  0.00  0.00    +0.000 C 
ENDROOT
BRANCH   1  19
ATOM     19  C   UNL     1       3.949   3.788  16.848  0.00  0.00    +0.000 C 
BRANCH  19  24
ATOM     20  C   UNL     1       7.463   7.102  17.509  0.00  0.00    +0.000 C 
ATOM     21  C   UNL     1       6.907   5.847  16.957  0.00  0.00    +0.000 A 
ATOM     22  C   UNL     1       7.410   4.918  16.077  0.00  0.00    +0.000 A 
ATOM     23  C   UNL     1       6.384   3.975  15.864  0.00  0.00    +0.000 A 
ATOM     24  C   UNL     1       5.312   4.361  16.645  0.00  0.00    +0.000 A 
ATOM     25  O   UNL     1       5.640   5.502  17.336  0.00  0.00    +0.000 OA
ENDBRANCH  19  24
ENDBRANCH   1  19
TORSDOF 2
ENDMDL
MODEL 4
REMARK VINA RESULT:      -7.6      1.878      2.616
REMARK  Name = 
REMARK  3 active torsions:
REMARK  status: ('A' for Active; 'I' for Inactive)
REMARK    1  A    between atoms: C_1  and  C_2
REMARK    2  A    between atoms: C_5  and  C_6
REMARK    3  A    between atoms: C_6  and  N_7
REMARK                            x       y       z     vdW  Elec       q    Type
REMARK                         _______ _______ _______ _____ _____    ______ ____
ROOT
ATOM      1  N   UNL     1       4.950   4.132  17.643  0.00  0.00    +0.000 NA
ATOM      2  C   UNL     1       4.100   3.079  17.081  0.00  0.00    +0.000 C 
ATOM      3  C   UNL     1       2.622   3.451  17.079  0.00  0.00    +0.000 C 
ATOM      4  C   UNL     1       2.170   3.956  18.437  0.00  0.00    +0.000 C 
ATOM      5  F   UNL     1       2.091   2.838  19.232  0.00  0.00    +0.000 F 
ATOM      6  F   UNL     1       0.899   4.418  18.341  0.00  0.00    +0.000 F 
ATOM      7  C   UNL     1       3.071   4.973  19.161  0.00  0.00    +0.000 C 
ATOM      8  C   UNL     1       2.592   5.065  20.645  0.00  0.00    +0.000 C 
ATOM      9  C   UNL     1       2.145   6.507  20.897  0.00  0.00    +0.000 C 
ATOM     10  N   UNL     1       1.979   7.045  19.561  0.00  0.00    +0.000 N 
ATOM     11  C   UNL     1       1.667   8.379  19.356  0.00  0.00    +0.000 A 
ATOM     12  C   UNL     1       0.812   9.092  20.201  0.00  0.00    +0.000 A 
ATOM     13  N   UNL     1       0.416  10.382  20.011  0.00  0.00    +0.000 NA
ATOM     14  C   UNL     1       0.897  10.952  18.896  0.00  0.00    +0.000 A 
ATOM     15  C   UNL     1       1.744  10.278  18.038  0.00  0.00    +0.000 A 
ATOM     16  N   UNL     1       2.141   8.997  18.249  0.00  0.00    +0.000 NA
ATOM     17  C   UNL     1       2.958   6.428  18.676  0.00  0.00    +0.000 C 
ATOM     18  C   UNL     1       4.521   4.469  19.014  0.00  0.00    +0.000 C 
ENDROOT
BRANCH   1  19
ATOM     19  C   UNL     1       5.122   5.263  16.712  0.00  0.00    +0.000 C 
BRANCH  19  24
ATOM     20  C   UNL     1       5.465   3.308  12.259  0.00  0.00    +0.000 C 
ATOM     21  C   UNL     1       6.006   3.981  13.460  0.00  0.00    +0.000 A 
ATOM     22  C   UNL     1       7.283   4.338  13.827  0.00  0.00    +0.000 A 
ATOM     23  C   UNL     1       7.188   4.877  15.125  0.00  0.00    +0.000 A 
ATOM     24  C   UNL     1       5.852   4.847  15.478  0.00  0.00    +0.000 A 
ATOM     25  O   UNL     1       5.120   4.315  14.445  0.00  0.00    +0.000 OA
ENDBRANCH  19  24
ENDBRANCH   1  19
TORSDOF 2
ENDMDL
MODEL 5
REMARK VINA RESULT:      -7.5      2.266      5.479
REMARK  Name = 
REMARK  3 active torsions:
REMARK  status: ('A' for Active; 'I' for Inactive)
REMARK    1  A    between atoms: C_1  and  C_2
REMARK    2  A    between atoms: C_5  and  C_6
REMARK    3  A    between atoms: C_6  and  N_7
REMARK                            x       y       z     vdW  Elec       q    Type
REMARK                         _______ _______ _______ _____ _____    ______ ____
ROOT
ATOM      1  N   UNL     1       1.270   4.620  20.687  0.00  0.00    +0.000 NA
ATOM      2  C   UNL     1       1.454   3.398  21.475  0.00  0.00    +0.000 C 
ATOM      3  C   UNL     1       2.750   2.669  21.142  0.00  0.00    +0.000 C 
ATOM      4  C   UNL     1       2.914   2.474  19.646  0.00  0.00    +0.000 C 
ATOM      5  F   UNL     1       2.034   1.473  19.312  0.00  0.00    +0.000 F 
ATOM      6  F   UNL     1       4.146   1.966  19.395  0.00  0.00    +0.000 F 
ATOM      7  C   UNL     1       2.616   3.673  18.728  0.00  0.00    +0.000 C 
ATOM      8  C   UNL     1       2.510   3.141  17.264  0.00  0.00    +0.000 C 
ATOM      9  C   UNL     1       3.608   3.825  16.444  0.00  0.00    +0.000 C 
ATOM     10  N   UNL     1       4.506   4.346  17.455  0.00  0.00    +0.000 N 
ATOM     11  C   UNL     1       5.598   5.128  17.114  0.00  0.00    +0.000 A 
ATOM     12  C   UNL     1       6.354   4.906  15.960  0.00  0.00    +0.000 A 
ATOM     13  N   UNL     1       7.475   5.597  15.610  0.00  0.00    +0.000 NA
ATOM     14  C   UNL     1       7.847   6.536  16.493  0.00  0.00    +0.000 A 
ATOM     15  C   UNL     1       7.124   6.784  17.644  0.00  0.00    +0.000 A 
ATOM     16  N   UNL     1       6.000   6.096  17.971  0.00  0.00    +0.000 NA
ATOM     17  C   UNL     1       3.731   4.729  18.628  0.00  0.00    +0.000 C 
ATOM     18  C   UNL     1       1.312   4.317  19.243  0.00  0.00    +0.000 C 
ENDROOT
BRANCH   1  19
ATOM     19  C   UNL     1       2.137   5.718  21.154  0.00  0.00    +0.000 C 
BRANCH  19  24
ATOM     20  C   UNL     1       1.887   9.439  18.014  0.00  0.00    +0.000 C 
ATOM     21  C   UNL     1       1.516   8.716  19.250  0.00  0.00    +0.000 A 
ATOM     22  C   UNL     1       0.714   9.052  20.316  0.00  0.00    +0.000 A 
ATOM     23  C   UNL     1       0.808   7.989  21.236  0.00  0.00    +0.000 A 
ATOM     24  C   UNL     1       1.644   7.043  20.676  0.00  0.00    +0.000 A 
ATOM     25  O   UNL     1       2.064   7.479  19.443  0.00  0.00    +0.000 OA
ENDBRANCH  19  24
ENDBRANCH   1  19
TORSDOF 2
ENDMDL
MODEL 6
REMARK VINA RESULT:      -7.4      0.947      1.040
REMARK  Name = 
REMARK  3 active torsions:
REMARK  status: ('A' for Active; 'I' for Inactive)
REMARK    1  A    between atoms: C_1  and  C_2
REMARK    2  A    between atoms: C_5  and  C_6
REMARK    3  A    between atoms: C_6  and  N_7
REMARK                            x       y       z     vdW  Elec       q    Type
REMARK                         _______ _______ _______ _____ _____    ______ ____
ROOT
ATOM      1  N   UNL     1       5.186   4.147  17.638  0.00  0.00    +0.000 NA
ATOM      2  C   UNL     1       4.446   3.218  16.779  0.00  0.00    +0.000 C 
ATOM      3  C   UNL     1       2.943   3.472  16.792  0.00  0.00    +0.000 C 
ATOM      4  C   UNL     1       2.406   3.572  18.209  0.00  0.00    +0.000 C 
ATOM      5  F   UNL     1       2.392   2.283  18.684  0.00  0.00    +0.000 F 
ATOM      6  F   UNL     1       1.104   3.952  18.165  0.00  0.00    +0.000 F 
ATOM      7  C   UNL     1       3.194   4.426  19.217  0.00  0.00    +0.000 C 
ATOM      8  C   UNL     1       2.660   4.094  20.646  0.00  0.00    +0.000 C 
ATOM      9  C   UNL     1       2.086   5.385  21.236  0.00  0.00    +0.000 C 
ATOM     10  N   UNL     1       1.921   6.240  20.077  0.00  0.00    +0.000 N 
ATOM     11  C   UNL     1       1.507   7.555  20.205  0.00  0.00    +0.000 A 
ATOM     12  C   UNL     1       0.568   7.961  21.158  0.00  0.00    +0.000 A 
ATOM     13  N   UNL     1       0.073   9.224  21.284  0.00  0.00    +0.000 NA
ATOM     14  C   UNL     1       0.542  10.098  20.381  0.00  0.00    +0.000 A 
ATOM     15  C   UNL     1       1.471   9.733  19.426  0.00  0.00    +0.000 A 
ATOM     16  N   UNL     1       1.966   8.472  19.322  0.00  0.00    +0.000 NA
ATOM     17  C   UNL     1       2.978   5.947  19.117  0.00  0.00    +0.000 C 
ATOM     18  C   UNL     1       4.685   4.083  19.024  0.00  0.00    +0.000 C 
ENDROOT
BRANCH   1  19
ATOM     19  C   UNL     1       5.295   5.490  17.039  0.00  0.00    +0.000 C 
BRANCH  19  24
ATOM     20  C   UNL     1       8.136   9.416  17.576  0.00  0.00    +0.000 C 
ATOM     21  C   UNL     1       7.724   8.024  17.863  0.00  0.00    +0.000 A 
ATOM     22  C   UNL     1       8.287   7.030  18.628  0.00  0.00    +0.000 A 
ATOM     23  C   UNL     1       7.482   5.887  18.451  0.00  0.00    +0.000 A 
ATOM     24  C   UNL     1       6.451   6.247  17.604  0.00  0.00    +0.000 A 
ATOM     25  O   UNL     1       6.586   7.569  17.258  0.00  0.00    +0.000 OA
ENDBRANCH  19  24
ENDBRANCH   1  19
TORSDOF 2
ENDMDL
MODEL 7
REMARK VINA RESULT:      -7.3      1.767      2.312
REMARK  Name = 
REMARK  3 active torsions:
REMARK  status: ('A' for Active; 'I' for Inactive)
REMARK    1  A    between atoms: C_1  and  C_2
REMARK    2  A    between atoms: C_5  and  C_6
REMARK    3  A    between atoms: C_6  and  N_7
REMARK                            x       y       z     vdW  Elec       q    Type
REMARK                         _______ _______ _______ _____ _____    ______ ____
ROOT
ATOM      1  N   UNL     1       5.057   4.212  17.711  0.00  0.00    +0.000 NA
ATOM      2  C   UNL     1       4.231   3.167  17.100  0.00  0.00    +0.000 C 
ATOM      3  C   UNL     1       2.758   3.548  17.022  0.00  0.00    +0.000 C 
ATOM      4  C   UNL     1       2.239   4.051  18.357  0.00  0.00    +0.000 C 
ATOM      5  F   UNL     1       2.110   2.929  19.141  0.00  0.00    +0.000 F 
ATOM      6  F   UNL     1       0.977   4.521  18.196  0.00  0.00    +0.000 F 
ATOM      7  C   UNL     1       3.106   5.058  19.132  0.00  0.00    +0.000 C 
ATOM      8  C   UNL     1       2.551   5.147  20.589  0.00  0.00    +0.000 C 
ATOM      9  C   UNL     1       2.100   6.591  20.823  0.00  0.00    +0.000 C 
ATOM     10  N   UNL     1       2.008   7.136  19.483  0.00  0.00    +0.000 N 
ATOM     11  C   UNL     1       1.715   8.473  19.268  0.00  0.00    +0.000 A 
ATOM     12  C   UNL     1       0.821   9.188  20.070  0.00  0.00    +0.000 A 
ATOM     13  N   UNL     1       0.444  10.481  19.865  0.00  0.00    +0.000 NA
ATOM     14  C   UNL     1       0.987  11.052  18.780  0.00  0.00    +0.000 A 
ATOM     15  C   UNL     1       1.873  10.377  17.965  0.00  0.00    +0.000 A 
ATOM     16  N   UNL     1       2.251   9.092  18.191  0.00  0.00    +0.000 NA
ATOM     17  C   UNL     1       3.029   6.516  18.648  0.00  0.00    +0.000 C 
ATOM     18  C   UNL     1       4.559   4.545  19.059  0.00  0.00    +0.000 C 
ENDROOT
BRANCH   1  19
ATOM     19  C   UNL     1       5.285   5.345  16.795  0.00  0.00    +0.000 C 
BRANCH  19  24
ATOM     20  C   UNL     1       8.305   5.578  12.974  0.00  0.00    +0.000 C 
ATOM     21  C   UNL     1       7.210   4.978  13.769  0.00  0.00    +0.000 A 
ATOM     22  C   UNL     1       6.358   3.926  13.526  0.00  0.00    +0.000 A 
ATOM     23  C   UNL     1       5.467   3.876  14.617  0.00  0.00    +0.000 A 
ATOM     24  C   UNL     1       5.835   4.886  15.486  0.00  0.00    +0.000 A 
ATOM     25  O   UNL     1       6.923   5.552  14.975  0.00  0.00    +0.000 OA
ENDBRANCH  19  24
ENDBRANCH   1  19
TORSDOF 2
ENDMDL
MODEL 8
REMARK VINA RESULT:      -7.3      3.834      5.951
REMARK  Name = 
REMARK  3 active torsions:
REMARK  status: ('A' for Active; 'I' for Inactive)
REMARK    1  A    between atoms: C_1  and  C_2
REMARK    2  A    between atoms: C_5  and  C_6
REMARK    3  A    between atoms: C_6  and  N_7
REMARK                            x       y       z     vdW  Elec       q    Type
REMARK                         _______ _______ _______ _____ _____    ______ ____
ROOT
ATOM      1  N   UNL     1       6.205   5.392  14.801  0.00  0.00    +0.000 NA
ATOM      2  C   UNL     1       7.516   5.605  15.420  0.00  0.00    +0.000 C 
ATOM      3  C   UNL     1       7.490   5.433  16.934  0.00  0.00    +0.000 C 
ATOM      4  C   UNL     1       6.366   6.232  17.568  0.00  0.00    +0.000 C 
ATOM      5  F   UNL     1       6.782   7.541  17.526  0.00  0.00    +0.000 F 
ATOM      6  F   UNL     1       6.288   5.924  18.887  0.00  0.00    +0.000 F 
ATOM      7  C   UNL     1       4.978   6.169  16.907  0.00  0.00    +0.000 C 
ATOM      8  C   UNL     1       4.107   7.317  17.509  0.00  0.00    +0.000 C 
ATOM      9  C   UNL     1       2.908   6.670  18.205  0.00  0.00    +0.000 C 
ATOM     10  N   UNL     1       3.311   5.285  18.351  0.00  0.00    +0.000 N 
ATOM     11  C   UNL     1       2.444   4.332  18.861  0.00  0.00    +0.000 A 
ATOM     12  C   UNL     1       1.535   4.610  19.885  0.00  0.00    +0.000 A 
ATOM     13  N   UNL     1       0.708   3.699  20.471  0.00  0.00    +0.000 NA
ATOM     14  C   UNL     1       0.841   2.449  20.003  0.00  0.00    +0.000 A 
ATOM     15  C   UNL     1       1.728   2.136  18.993  0.00  0.00    +0.000 A 
ATOM     16  N   UNL     1       2.535   3.060  18.408  0.00  0.00    +0.000 NA
ATOM     17  C   UNL     1       4.147   4.912  17.217  0.00  0.00    +0.000 C 
ATOM     18  C   UNL     1       5.201   6.302  15.386  0.00  0.00    +0.000 C 
ENDROOT
BRANCH   1  19
ATOM     19  C   UNL     1       5.844   3.963  14.744  0.00  0.00    +0.000 C 
BRANCH  19  24
ATOM     20  C   UNL     1       6.708   1.381  10.700  0.00  0.00    +0.000 C 
ATOM     21  C   UNL     1       5.948   2.347  11.523  0.00  0.00    +0.000 A 
ATOM     22  C   UNL     1       4.868   3.153  11.245  0.00  0.00    +0.000 A 
ATOM     23  C   UNL     1       4.636   3.919  12.405  0.00  0.00    +0.000 A 
ATOM     24  C   UNL     1       5.570   3.526  13.343  0.00  0.00    +0.000 A 
ATOM     25  O   UNL     1       6.366   2.542  12.809  0.00  0.00    +0.000 OA
ENDBRANCH  19  24
ENDBRANCH   1  19
TORSDOF 2
ENDMDL
MODEL 9
REMARK VINA RESULT:      -7.1      0.827      1.200
REMARK  Name = 
REMARK  3 active torsions:
REMARK  status: ('A' for Active; 'I' for Inactive)
REMARK    1  A    between atoms: C_1  and  C_2
REMARK    2  A    between atoms: C_5  and  C_6
REMARK    3  A    between atoms: C_6  and  N_7
REMARK                            x       y       z     vdW  Elec       q    Type
REMARK                         _______ _______ _______ _____ _____    ______ ____
ROOT
ATOM      1  N   UNL     1       4.547   3.296  17.835  0.00  0.00    +0.000 NA
ATOM      2  C   UNL     1       3.565   2.311  17.374  0.00  0.00    +0.000 C 
ATOM      3  C   UNL     1       2.139   2.851  17.383  0.00  0.00    +0.000 C 
ATOM      4  C   UNL     1       1.794   3.498  18.712  0.00  0.00    +0.000 C 
ATOM      5  F   UNL     1       1.615   2.455  19.588  0.00  0.00    +0.000 F 
ATOM      6  F   UNL     1       0.581   4.096  18.614  0.00  0.00    +0.000 F 
ATOM      7  C   UNL     1       2.828   4.452  19.336  0.00  0.00    +0.000 C 
ATOM      8  C   UNL     1       2.414   4.702  20.821  0.00  0.00    +0.000 C 
ATOM      9  C   UNL     1       2.142   6.200  20.978  0.00  0.00    +0.000 C 
ATOM     10  N   UNL     1       1.993   6.659  19.611  0.00  0.00    +0.000 N 
ATOM     11  C   UNL     1       1.827   8.003  19.317  0.00  0.00    +0.000 A 
ATOM     12  C   UNL     1       1.087   8.868  20.129  0.00  0.00    +0.000 A 
ATOM     13  N   UNL     1       0.834  10.178  19.855  0.00  0.00    +0.000 NA
ATOM     14  C   UNL     1       1.338  10.609  18.689  0.00  0.00    +0.000 A 
ATOM     15  C   UNL     1       2.073   9.784  17.861  0.00  0.00    +0.000 A 
ATOM     16  N   UNL     1       2.330   8.483  18.155  0.00  0.00    +0.000 NA
ATOM     17  C   UNL     1       2.865   5.873  18.748  0.00  0.00    +0.000 C 
ATOM     18  C   UNL     1       4.206   3.775  19.189  0.00  0.00    +0.000 C 
ENDROOT
BRANCH   1  19
ATOM     19  C   UNL     1       4.815   4.332  16.819  0.00  0.00    +0.000 C 
BRANCH  19  24
ATOM     20  C   UNL     1       8.411   5.799  19.766  0.00  0.00    +0.000 C 
ATOM     21  C   UNL     1       7.543   5.907  18.573  0.00  0.00    +0.000 A 
ATOM     22  C   UNL     1       7.423   6.869  17.598  0.00  0.00    +0.000 A 
ATOM     23  C   UNL     1       6.365   6.459  16.762  0.00  0.00    +0.000 A 
ATOM     24  C   UNL     1       5.906   5.252  17.254  0.00  0.00    +0.000 A 
ATOM     25  O   UNL     1       6.645   4.899  18.357  0.00  0.00    +0.000 OA
ENDBRANCH  19  24
ENDBRANCH   1  19
TORSDOF 2
ENDMDL
