MODEL 1
REMARK VINA RESULT:      -7.7      0.000      0.000
REMARK  Name = 
REMARK  5 active torsions:
REMARK  status: ('A' for Active; 'I' for Inactive)
REMARK    1  A    between atoms: C_2  and  O_3
REMARK    2  A    between atoms: C_2  and  C_4
REMARK    3  A    between atoms: C_9  and  C_10
REMARK    4  A    between atoms: C_15  and  C_16
REMARK    5  A    between atoms: C_16  and  C_18
REMARK                            x       y       z     vdW  Elec       q    Type
REMARK                         _______ _______ _______ _____ _____    ______ ____
ROOT
ATOM      1  C   UNL     1       4.285   3.293  18.264  0.00  0.00    +0.000 C 
ATOM      2  O   UNL     1       4.178   2.421  17.400  0.00  0.00    +0.000 OA
ATOM      3  N   UNL     1       5.289   4.269  18.245  0.00  0.00    +0.000 N 
ATOM      4  C   UNL     1       6.151   4.322  17.063  0.00  0.00    +0.000 C 
ATOM      5  C   UNL     1       7.592   4.679  17.425  0.00  0.00    +0.000 C 
ATOM      6  C   UNL     1       7.710   5.942  18.294  0.00  0.00    +0.000 C 
ATOM      7  C   UNL     1       6.781   5.815  19.501  0.00  0.00    +0.000 C 
ATOM      8  C   UNL     1       5.356   5.446  19.114  0.00  0.00    +0.000 C 
ENDROOT
BRANCH   1  14
ATOM      9  C   UNL     1       2.050   3.926  19.261  0.00  0.00    +0.000 A 
ATOM     10  C   UNL     1       1.121   3.787  20.313  0.00  0.00    +0.000 A 
ATOM     11  C   UNL     1       1.399   2.989  21.423  0.00  0.00    +0.000 A 
ATOM     12  C   UNL     1       2.633   2.361  21.527  0.00  0.00    +0.000 A 
ATOM     13  C   UNL     1       3.581   2.527  20.519  0.00  0.00    +0.000 A 
ATOM     14  C   UNL     1       3.275   3.242  19.346  0.00  0.00    +0.000 A 
BRANCH   9  16
ATOM     15  O   UNL     1       1.949   5.911  17.985  0.00  0.00    +0.000 OA
ATOM     16  C   UNL     1       1.567   4.757  18.121  0.00  0.00    +0.000 C 
BRANCH  16  17
ATOM     17  O   UNL     1       0.832   4.142  17.179  0.00  0.00    +0.000 OA
ATOM     18  H   UNL     1       0.367   3.320  17.466  0.00  0.00    +0.000 HD
ENDBRANCH  16  17
ENDBRANCH   9  16
ENDBRANCH   1  14
BRANCH   6  19
ATOM     19  C   UNL     1       7.435   7.233  17.511  0.00  0.00    +0.000 C 
ATOM     20  O   UNL     1       6.721   7.243  16.508  0.00  0.00    +0.000 OA
BRANCH  19  21
ATOM     21  C   UNL     1       8.041   8.522  17.979  0.00  0.00    +0.000 A 
ATOM     22  C   UNL     1       8.892   8.595  19.088  0.00  0.00    +0.000 A 
ATOM     23  C   UNL     1       9.426   9.821  19.491  0.00  0.00    +0.000 A 
ATOM     24  C   UNL     1       9.124  10.982  18.784  0.00  0.00    +0.000 A 
ATOM     25  C   UNL     1       8.282  10.921  17.675  0.00  0.00    +0.000 A 
ATOM     26  C   UNL     1       7.741   9.697  17.274  0.00  0.00    +0.000 A 
ENDBRANCH  19  21
ENDBRANCH   6  19
TORSDOF 5
ENDMDL
MODEL 2
REMARK VINA RESULT:      -7.7      1.106      2.247
REMARK  Name = 
REMARK  5 active torsions:
REMARK  status: ('A' for Active; 'I' for Inactive)
REMARK    1  A    between atoms: C_2  and  O_3
REMARK    2  A    between atoms: C_2  and  C_4
REMARK    3  A    between atoms: C_9  and  C_10
REMARK    4  A    between atoms: C_15  and  C_16
REMARK    5  A    between atoms: C_16  and  C_18
REMARK                            x       y       z     vdW  Elec       q    Type
REMARK                         _______ _______ _______ _____ _____    ______ ____
ROOT
ATOM      1  C   UNL     1       4.187   3.563  18.084  0.00  0.00    +0.000 C 
ATOM      2  O   UNL     1       3.991   2.790  17.145  0.00  0.00    +0.000 OA
ATOM      3  N   UNL     1       5.200   4.530  18.080  0.00  0.00    +0.000 N 
ATOM      4  C   UNL     1       5.956   4.706  16.839  0.00  0.00    +0.000 C 
ATOM      5  C   UNL     1       7.429   5.014  17.107  0.00  0.00    +0.000 C 
ATOM      6  C   UNL     1       7.641   6.175  18.093  0.00  0.00    +0.000 C 
ATOM      7  C   UNL     1       6.821   5.922  19.358  0.00  0.00    +0.000 C 
ATOM      8  C   UNL     1       5.362   5.605  19.062  0.00  0.00    +0.000 C 
ENDROOT
BRANCH   1  14
ATOM      9  C   UNL     1       3.527   2.472  20.266  0.00  0.00    +0.000 A 
ATOM     10  C   UNL     1       2.636   2.411  21.358  0.00  0.00    +0.000 A 
ATOM     11  C   UNL     1       1.525   3.251  21.433  0.00  0.00    +0.000 A 
ATOM     12  C   UNL     1       1.253   4.127  20.390  0.00  0.00    +0.000 A 
ATOM     13  C   UNL     1       2.096   4.165  19.281  0.00  0.00    +0.000 A 
ATOM     14  C   UNL     1       3.277   3.400  19.241  0.00  0.00    +0.000 A 
BRANCH   9  16
ATOM     15  O   UNL     1       5.400   1.561  21.381  0.00  0.00    +0.000 OA
ATOM     16  C   UNL     1       4.698   1.556  20.378  0.00  0.00    +0.000 C 
BRANCH  16  17
ATOM     17  O   UNL     1       4.850   0.630  19.416  0.00  0.00    +0.000 OA
ATOM     18  H   UNL     1       4.578  -0.288  19.657  0.00  0.00    +0.000 HD
ENDBRANCH  16  17
ENDBRANCH   9  16
ENDBRANCH   1  14
BRANCH   6  19
ATOM     19  C   UNL     1       7.318   7.544  17.480  0.00  0.00    +0.000 C 
ATOM     20  O   UNL     1       6.478   7.674  16.590  0.00  0.00    +0.000 OA
BRANCH  19  21
ATOM     21  C   UNL     1       8.034   8.763  17.982  0.00  0.00    +0.000 A 
ATOM     22  C   UNL     1       8.897   8.729  19.083  0.00  0.00    +0.000 A 
ATOM     23  C   UNL     1       9.535   9.893  19.518  0.00  0.00    +0.000 A 
ATOM     24  C   UNL     1       9.325  11.097  18.851  0.00  0.00    +0.000 A 
ATOM     25  C   UNL     1       8.471  11.142  17.750  0.00  0.00    +0.000 A 
ATOM     26  C   UNL     1       7.827   9.981  17.317  0.00  0.00    +0.000 A 
ENDBRANCH  19  21
ENDBRANCH   6  19
TORSDOF 5
ENDMDL
MODEL 3
REMARK VINA RESULT:      -7.5      0.085      1.157
REMARK  Name = 
REMARK  5 active torsions:
REMARK  status: ('A' for Active; 'I' for Inactive)
REMARK    1  A    between atoms: C_2  and  O_3
REMARK    2  A    between atoms: C_2  and  C_4
REMARK    3  A    between atoms: C_9  and  C_10
REMARK    4  A    between atoms: C_15  and  C_16
REMARK    5  A    between atoms: C_16  and  C_18
REMARK                            x       y       z     vdW  Elec       q    Type
REMARK                         _______ _______ _______ _____ _____    ______ ____
ROOT
ATOM      1  C   UNL     1       4.278   3.248  18.311  0.00  0.00    +0.000 C 
ATOM      2  O   UNL     1       4.203   2.342  17.480  0.00  0.00    +0.000 OA
ATOM      3  N   UNL     1       5.272   4.234  18.279  0.00  0.00    +0.000 N 
ATOM      4  C   UNL     1       6.164   4.252  17.119  0.00  0.00    +0.000 C 
ATOM      5  C   UNL     1       7.591   4.640  17.503  0.00  0.00    +0.000 C 
ATOM      6  C   UNL     1       7.673   5.936  18.325  0.00  0.00    +0.000 C 
ATOM      7  C   UNL     1       6.715   5.844  19.513  0.00  0.00    +0.000 C 
ATOM      8  C   UNL     1       5.304   5.444  19.104  0.00  0.00    +0.000 C 
ENDROOT
BRANCH   1  14
ATOM      9  C   UNL     1       2.017   3.903  19.232  0.00  0.00    +0.000 A 
ATOM     10  C   UNL     1       1.063   3.794  20.264  0.00  0.00    +0.000 A 
ATOM     11  C   UNL     1       1.315   3.031  21.405  0.00  0.00    +0.000 A 
ATOM     12  C   UNL     1       2.547   2.410  21.559  0.00  0.00    +0.000 A 
ATOM     13  C   UNL     1       3.520   2.549  20.570  0.00  0.00    +0.000 A 
ATOM     14  C   UNL     1       3.242   3.226  19.369  0.00  0.00    +0.000 A 
BRANCH   9  16
ATOM     15  O   UNL     1       0.863   4.186  17.190  0.00  0.00    +0.000 OA
ATOM     16  C   UNL     1       1.561   4.698  18.055  0.00  0.00    +0.000 C 
BRANCH  16  17
ATOM     17  O   UNL     1       1.811   6.018  18.070  0.00  0.00    +0.000 OA
ATOM     18  H   UNL     1       2.410   6.349  17.358  0.00  0.00    +0.000 HD
ENDBRANCH  16  17
ENDBRANCH   9  16
ENDBRANCH   1  14
BRANCH   6  19
ATOM     19  C   UNL     1       7.404   7.192  17.486  0.00  0.00    +0.000 C 
ATOM     20  O   UNL     1       6.713   7.156  16.468  0.00  0.00    +0.000 OA
BRANCH  19  21
ATOM     21  C   UNL     1       7.989   8.505  17.916  0.00  0.00    +0.000 A 
ATOM     22  C   UNL     1       7.707   9.707  17.258  0.00  0.00    +0.000 A 
ATOM     23  C   UNL     1       8.283  10.903  17.693  0.00  0.00    +0.000 A 
ATOM     24  C   UNL     1       9.136  10.911  18.793  0.00  0.00    +0.000 A 
ATOM     25  C   UNL     1       9.420   9.720  19.459  0.00  0.00    +0.000 A 
ATOM     26  C   UNL     1       8.851   8.521  19.023  0.00  0.00    +0.000 A 
ENDBRANCH  19  21
ENDBRANCH   6  19
TORSDOF 5
ENDMDL
MODEL 4
REMARK VINA RESULT:      -7.0      3.014      4.876
REMARK  Name = 
REMARK  5 active torsions:
REMARK  status: ('A' for Active; 'I' for Inactive)
REMARK    1  A    between atoms: C_2  and  O_3
REMARK    2  A    between atoms: C_2  and  C_4
REMARK    3  A    between atoms: C_9  and  C_10
REMARK    4  A    between atoms: C_15  and  C_16
REMARK    5  A    between atoms: C_16  and  C_18
REMARK                            x       y       z     vdW  Elec       q    Type
REMARK                         _______ _______ _______ _____ _____    ______ ____
ROOT
ATOM      1  C   UNL     1       2.465   5.268  18.018  0.00  0.00    +0.000 C 
ATOM      2  O   UNL     1       1.558   4.615  17.502  0.00  0.00    +0.000 OA
ATOM      3  N   UNL     1       3.808   5.145  17.639  0.00  0.00    +0.000 N 
ATOM      4  C   UNL     1       4.104   4.301  16.481  0.00  0.00    +0.000 C 
ATOM      5  C   UNL     1       5.414   3.534  16.654  0.00  0.00    +0.000 C 
ATOM      6  C   UNL     1       6.600   4.432  17.045  0.00  0.00    +0.000 C 
ATOM      7  C   UNL     1       6.216   5.282  18.255  0.00  0.00    +0.000 C 
ATOM      8  C   UNL     1       4.901   6.024  18.061  0.00  0.00    +0.000 C 
ENDROOT
BRANCH   1  14
ATOM      9  C   UNL     1       1.614   5.752  20.349  0.00  0.00    +0.000 A 
ATOM     10  C   UNL     1       1.276   6.707  21.330  0.00  0.00    +0.000 A 
ATOM     11  C   UNL     1       1.364   8.075  21.069  0.00  0.00    +0.000 A 
ATOM     12  C   UNL     1       1.737   8.512  19.805  0.00  0.00    +0.000 A 
ATOM     13  C   UNL     1       2.027   7.581  18.809  0.00  0.00    +0.000 A 
ATOM     14  C   UNL     1       2.045   6.202  19.088  0.00  0.00    +0.000 A 
BRANCH   9  16
ATOM     15  O   UNL     1       2.261   3.933  21.709  0.00  0.00    +0.000 OA
ATOM     16  C   UNL     1       1.531   4.338  20.814  0.00  0.00    +0.000 C 
BRANCH  16  17
ATOM     17  O   UNL     1       0.529   3.588  20.327  0.00  0.00    +0.000 OA
ATOM     18  H   UNL     1       0.794   2.872  19.701  0.00  0.00    +0.000 HD
ENDBRANCH  16  17
ENDBRANCH   9  16
ENDBRANCH   1  14
BRANCH   6  19
ATOM     19  C   UNL     1       7.097   5.303  15.883  0.00  0.00    +0.000 C 
ATOM     20  O   UNL     1       7.592   6.414  16.072  0.00  0.00    +0.000 OA
BRANCH  19  21
ATOM     21  C   UNL     1       6.988   4.789  14.478  0.00  0.00    +0.000 A 
ATOM     22  C   UNL     1       6.111   3.759  14.119  0.00  0.00    +0.000 A 
ATOM     23  C   UNL     1       6.051   3.309  12.798  0.00  0.00    +0.000 A 
ATOM     24  C   UNL     1       6.858   3.891  11.823  0.00  0.00    +0.000 A 
ATOM     25  C   UNL     1       7.732   4.920  12.169  0.00  0.00    +0.000 A 
ATOM     26  C   UNL     1       7.798   5.368  13.490  0.00  0.00    +0.000 A 
ENDBRANCH  19  21
ENDBRANCH   6  19
TORSDOF 5
ENDMDL
MODEL 5
REMARK VINA RESULT:      -7.0      1.773      2.994
REMARK  Name = 
REMARK  5 active torsions:
REMARK  status: ('A' for Active; 'I' for Inactive)
REMARK    1  A    between atoms: C_2  and  O_3
REMARK    2  A    between atoms: C_2  and  C_4
REMARK    3  A    between atoms: C_9  and  C_10
REMARK    4  A    between atoms: C_15  and  C_16
REMARK    5  A    between atoms: C_16  and  C_18
REMARK                            x       y       z     vdW  Elec       q    Type
REMARK                         _______ _______ _______ _____ _____    ______ ____
ROOT
ATOM      1  C   UNL     1       3.035   5.821  18.973  0.00  0.00    +0.000 C 
ATOM      2  O   UNL     1       2.669   6.946  19.316  0.00  0.00    +0.000 OA
ATOM      3  N   UNL     1       3.923   5.594  17.914  0.00  0.00    +0.000 N 
ATOM      4  C   UNL     1       4.540   6.767  17.292  0.00  0.00    +0.000 C 
ATOM      5  C   UNL     1       4.710   6.590  15.784  0.00  0.00    +0.000 C 
ATOM      6  C   UNL     1       5.418   5.280  15.398  0.00  0.00    +0.000 C 
ATOM      7  C   UNL     1       4.722   4.106  16.086  0.00  0.00    +0.000 C 
ATOM      8  C   UNL     1       4.554   4.314  17.585  0.00  0.00    +0.000 C 
ENDROOT
BRANCH   1  14
ATOM      9  C   UNL     1       1.707   3.679  19.161  0.00  0.00    +0.000 A 
ATOM     10  C   UNL     1       1.238   2.622  19.969  0.00  0.00    +0.000 A 
ATOM     11  C   UNL     1       1.514   2.580  21.336  0.00  0.00    +0.000 A 
ATOM     12  C   UNL     1       2.214   3.622  21.930  0.00  0.00    +0.000 A 
ATOM     13  C   UNL     1       2.642   4.698  21.153  0.00  0.00    +0.000 A 
ATOM     14  C   UNL     1       2.464   4.702  19.758  0.00  0.00    +0.000 A 
BRANCH   9  16
ATOM     15  O   UNL     1       0.802   4.425  17.111  0.00  0.00    +0.000 OA
ATOM     16  C   UNL     1       1.384   3.533  17.712  0.00  0.00    +0.000 C 
BRANCH  16  17
ATOM     17  O   UNL     1       1.893   2.466  17.072  0.00  0.00    +0.000 OA
ATOM     18  H   UNL     1       1.238   1.785  16.787  0.00  0.00    +0.000 HD
ENDBRANCH  16  17
ENDBRANCH   9  16
ENDBRANCH   1  14
BRANCH   6  19
ATOM     19  C   UNL     1       6.920   5.301  15.710  0.00  0.00    +0.000 C 
ATOM     20  O   UNL     1       7.743   4.758  14.973  0.00  0.00    +0.000 OA
BRANCH  19  21
ATOM     21  C   UNL     1       7.408   6.009  16.940  0.00  0.00    +0.000 A 
ATOM     22  C   UNL     1       7.650   7.387  16.969  0.00  0.00    +0.000 A 
ATOM     23  C   UNL     1       8.111   8.000  18.137  0.00  0.00    +0.000 A 
ATOM     24  C   UNL     1       8.323   7.244  19.287  0.00  0.00    +0.000 A 
ATOM     25  C   UNL     1       8.080   5.872  19.271  0.00  0.00    +0.000 A 
ATOM     26  C   UNL     1       7.625   5.256  18.103  0.00  0.00    +0.000 A 
ENDBRANCH  19  21
ENDBRANCH   6  19
TORSDOF 5
ENDMDL
MODEL 6
REMARK VINA RESULT:      -7.0      4.025      6.065
REMARK  Name = 
REMARK  5 active torsions:
REMARK  status: ('A' for Active; 'I' for Inactive)
REMARK    1  A    between atoms: C_2  and  O_3
REMARK    2  A    between atoms: C_2  and  C_4
REMARK    3  A    between atoms: C_9  and  C_10
REMARK    4  A    between atoms: C_15  and  C_16
REMARK    5  A    between atoms: C_16  and  C_18
REMARK                            x       y       z     vdW  Elec       q    Type
REMARK                         _______ _______ _______ _____ _____    ______ ____
ROOT
ATOM      1  C   UNL     1       1.706   8.546  19.284  0.00  0.00    +0.000 C 
ATOM      2  O   UNL     1       1.994   9.322  18.372  0.00  0.00    +0.000 OA
ATOM      3  N   UNL     1       2.032   7.184  19.261  0.00  0.00    +0.000 N 
ATOM      4  C   UNL     1       2.873   6.714  18.158  0.00  0.00    +0.000 C 
ATOM      5  C   UNL     1       2.474   5.313  17.695  0.00  0.00    +0.000 C 
ATOM      6  C   UNL     1       2.382   4.292  18.841  0.00  0.00    +0.000 C 
ATOM      7  C   UNL     1       1.495   4.853  19.951  0.00  0.00    +0.000 C 
ATOM      8  C   UNL     1       1.906   6.254  20.385  0.00  0.00    +0.000 C 
ENDROOT
BRANCH   1  14
ATOM      9  C   UNL     1      -0.099  10.034  20.241  0.00  0.00    +0.000 A 
ATOM     10  C   UNL     1      -0.772  10.527  21.378  0.00  0.00    +0.000 A 
ATOM     11  C   UNL     1      -0.388  10.151  22.666  0.00  0.00    +0.000 A 
ATOM     12  C   UNL     1       0.710   9.320  22.842  0.00  0.00    +0.000 A 
ATOM     13  C   UNL     1       1.417   8.863  21.730  0.00  0.00    +0.000 A 
ATOM     14  C   UNL     1       0.978   9.149  20.424  0.00  0.00    +0.000 A 
BRANCH   9  16
ATOM     15  O   UNL     1      -1.783  10.088  18.586  0.00  0.00    +0.000 OA
ATOM     16  C   UNL     1      -0.680  10.480  18.942  0.00  0.00    +0.000 C 
BRANCH  16  17
ATOM     17  O   UNL     1      -0.021  11.438  18.269  0.00  0.00    +0.000 OA
ATOM     18  H   UNL     1       0.806  11.769  18.695  0.00  0.00    +0.000 HD
ENDBRANCH  16  17
ENDBRANCH   9  16
ENDBRANCH   1  14
BRANCH   6  19
ATOM     19  C   UNL     1       3.758   3.878  19.380  0.00  0.00    +0.000 C 
ATOM     20  O   UNL     1       3.876   3.174  20.384  0.00  0.00    +0.000 OA
BRANCH  19  21
ATOM     21  C   UNL     1       4.996   4.330  18.665  0.00  0.00    +0.000 A 
ATOM     22  C   UNL     1       5.295   3.937  17.355  0.00  0.00    +0.000 A 
ATOM     23  C   UNL     1       6.466   4.378  16.734  0.00  0.00    +0.000 A 
ATOM     24  C   UNL     1       7.341   5.224  17.410  0.00  0.00    +0.000 A 
ATOM     25  C   UNL     1       7.052   5.625  18.713  0.00  0.00    +0.000 A 
ATOM     26  C   UNL     1       5.885   5.180  19.339  0.00  0.00    +0.000 A 
ENDBRANCH  19  21
ENDBRANCH   6  19
TORSDOF 5
ENDMDL
MODEL 7
REMARK VINA RESULT:      -6.8      3.055      5.508
REMARK  Name = 
REMARK  5 active torsions:
REMARK  status: ('A' for Active; 'I' for Inactive)
REMARK    1  A    between atoms: C_2  and  O_3
REMARK    2  A    between atoms: C_2  and  C_4
REMARK    3  A    between atoms: C_9  and  C_10
REMARK    4  A    between atoms: C_15  and  C_16
REMARK    5  A    between atoms: C_16  and  C_18
REMARK                            x       y       z     vdW  Elec       q    Type
REMARK                         _______ _______ _______ _____ _____    ______ ____
ROOT
ATOM      1  C   UNL     1       4.756   4.822  19.273  0.00  0.00    +0.000 C 
ATOM      2  O   UNL     1       5.440   5.177  20.234  0.00  0.00    +0.000 OA
ATOM      3  N   UNL     1       5.155   5.000  17.942  0.00  0.00    +0.000 N 
ATOM      4  C   UNL     1       6.509   5.504  17.709  0.00  0.00    +0.000 C 
ATOM      5  C   UNL     1       6.567   6.448  16.509  0.00  0.00    +0.000 C 
ATOM      6  C   UNL     1       5.932   5.861  15.237  0.00  0.00    +0.000 C 
ATOM      7  C   UNL     1       4.527   5.354  15.560  0.00  0.00    +0.000 C 
ATOM      8  C   UNL     1       4.496   4.426  16.767  0.00  0.00    +0.000 C 
ENDROOT
BRANCH   1  14
ATOM      9  C   UNL     1       3.320   2.799  19.756  0.00  0.00    +0.000 A 
ATOM     10  C   UNL     1       2.063   2.279  20.131  0.00  0.00    +0.000 A 
ATOM     11  C   UNL     1       0.973   3.118  20.362  0.00  0.00    +0.000 A 
ATOM     12  C   UNL     1       1.104   4.487  20.168  0.00  0.00    +0.000 A 
ATOM     13  C   UNL     1       2.326   5.012  19.750  0.00  0.00    +0.000 A 
ATOM     14  C   UNL     1       3.461   4.190  19.615  0.00  0.00    +0.000 A 
BRANCH   9  16
ATOM     15  O   UNL     1       5.239   1.633  20.489  0.00  0.00    +0.000 OA
ATOM     16  C   UNL     1       4.392   1.772  19.617  0.00  0.00    +0.000 C 
BRANCH  16  17
ATOM     17  O   UNL     1       4.293   0.914  18.587  0.00  0.00    +0.000 OA
ATOM     18  H   UNL     1       4.969   1.019  17.875  0.00  0.00    +0.000 HD
ENDBRANCH  16  17
ENDBRANCH   9  16
ENDBRANCH   1  14
BRANCH   6  19
ATOM     19  C   UNL     1       6.790   4.762  14.596  0.00  0.00    +0.000 C 
ATOM     20  O   UNL     1       7.909   4.479  15.026  0.00  0.00    +0.000 OA
BRANCH  19  21
ATOM     21  C   UNL     1       6.253   4.000  13.421  0.00  0.00    +0.000 A 
ATOM     22  C   UNL     1       4.895   3.992  13.086  0.00  0.00    +0.000 A 
ATOM     23  C   UNL     1       4.442   3.260  11.985  0.00  0.00    +0.000 A 
ATOM     24  C   UNL     1       5.342   2.541  11.204  0.00  0.00    +0.000 A 
ATOM     25  C   UNL     1       6.699   2.546  11.526  0.00  0.00    +0.000 A 
ATOM     26  C   UNL     1       7.153   3.271  12.629  0.00  0.00    +0.000 A 
ENDBRANCH  19  21
ENDBRANCH   6  19
TORSDOF 5
ENDMDL
MODEL 8
REMARK VINA RESULT:      -6.7      1.323      2.380
REMARK  Name = 
REMARK  5 active torsions:
REMARK  status: ('A' for Active; 'I' for Inactive)
REMARK    1  A    between atoms: C_2  and  O_3
REMARK    2  A    between atoms: C_2  and  C_4
REMARK    3  A    between atoms: C_9  and  C_10
REMARK    4  A    between atoms: C_15  and  C_16
REMARK    5  A    between atoms: C_16  and  C_18
REMARK                            x       y       z     vdW  Elec       q    Type
REMARK                         _______ _______ _______ _____ _____    ______ ____
ROOT
ATOM      1  C   UNL     1       3.052   3.309  17.737  0.00  0.00    +0.000 C 
ATOM      2  O   UNL     1       2.457   2.769  16.803  0.00  0.00    +0.000 OA
ATOM      3  N   UNL     1       4.215   4.071  17.564  0.00  0.00    +0.000 N 
ATOM      4  C   UNL     1       4.644   4.340  16.191  0.00  0.00    +0.000 C 
ATOM      5  C   UNL     1       6.166   4.334  16.057  0.00  0.00    +0.000 C 
ATOM      6  C   UNL     1       6.874   5.237  17.081  0.00  0.00    +0.000 C 
ATOM      7  C   UNL     1       6.374   4.901  18.485  0.00  0.00    +0.000 C 
ATOM      8  C   UNL     1       4.854   4.901  18.587  0.00  0.00    +0.000 C 
ENDROOT
BRANCH   1  14
ATOM      9  C   UNL     1       3.078   2.292  20.050  0.00  0.00    +0.000 A 
ATOM     10  C   UNL     1       2.472   2.177  21.319  0.00  0.00    +0.000 A 
ATOM     11  C   UNL     1       1.282   2.842  21.616  0.00  0.00    +0.000 A 
ATOM     12  C   UNL     1       0.647   3.589  20.633  0.00  0.00    +0.000 A 
ATOM     13  C   UNL     1       1.207   3.673  19.358  0.00  0.00    +0.000 A 
ATOM     14  C   UNL     1       2.458   3.095  19.077  0.00  0.00    +0.000 A 
BRANCH   9  16
ATOM     15  O   UNL     1       5.251   1.711  20.770  0.00  0.00    +0.000 OA
ATOM     16  C   UNL     1       4.378   1.574  19.924  0.00  0.00    +0.000 C 
BRANCH  16  17
ATOM     17  O   UNL     1       4.485   0.663  18.941  0.00  0.00    +0.000 OA
ATOM     18  H   UNL     1       3.908   0.810  18.154  0.00  0.00    +0.000 HD
ENDBRANCH  16  17
ENDBRANCH   9  16
ENDBRANCH   1  14
BRANCH   6  19
ATOM     19  C   UNL     1       6.709   6.731  16.772  0.00  0.00    +0.000 C 
ATOM     20  O   UNL     1       5.943   7.131  15.894  0.00  0.00    +0.000 OA
BRANCH  19  21
ATOM     21  C   UNL     1       7.491   7.738  17.562  0.00  0.00    +0.000 A 
ATOM     22  C   UNL     1       8.329   7.375  18.623  0.00  0.00    +0.000 A 
ATOM     23  C   UNL     1       9.031   8.351  19.335  0.00  0.00    +0.000 A 
ATOM     24  C   UNL     1       8.911   9.694  18.987  0.00  0.00    +0.000 A 
ATOM     25  C   UNL     1       8.083  10.066  17.929  0.00  0.00    +0.000 A 
ATOM     26  C   UNL     1       7.375   9.093  17.219  0.00  0.00    +0.000 A 
ENDBRANCH  19  21
ENDBRANCH   6  19
TORSDOF 5
ENDMDL
MODEL 9
REMARK VINA RESULT:      -6.7      8.912     12.376
REMARK  Name = 
REMARK  5 active torsions:
REMARK  status: ('A' for Active; 'I' for Inactive)
REMARK    1  A    between atoms: C_2  and  O_3
REMARK    2  A    between atoms: C_2  and  C_4
REMARK    3  A    between atoms: C_9  and  C_10
REMARK    4  A    between atoms: C_15  and  C_16
REMARK    5  A    between atoms: C_16  and  C_18
REMARK                            x       y       z     vdW  Elec       q    Type
REMARK                         _______ _______ _______ _____ _____    ______ ____
ROOT
ATOM      1  C   UNL     1       0.946  16.098  19.847  0.00  0.00    +0.000 C 
ATOM      2  O   UNL     1       1.259  16.664  20.896  0.00  0.00    +0.000 OA
ATOM      3  N   UNL     1       0.723  14.718  19.760  0.00  0.00    +0.000 N 
ATOM      4  C   UNL     1       0.729  13.957  21.010  0.00  0.00    +0.000 C 
ATOM      5  C   UNL     1       1.349  12.571  20.829  0.00  0.00    +0.000 C 
ATOM      6  C   UNL     1       0.742  11.777  19.661  0.00  0.00    +0.000 C 
ATOM      7  C   UNL     1       0.767  12.636  18.397  0.00  0.00    +0.000 C 
ATOM      8  C   UNL     1       0.156  14.014  18.607  0.00  0.00    +0.000 C 
ENDROOT
BRANCH   1  14
ATOM      9  C   UNL     1       1.888  17.173  17.762  0.00  0.00    +0.000 A 
ATOM     10  C   UNL     1       1.677  17.990  16.632  0.00  0.00    +0.000 A 
ATOM     11  C   UNL     1       0.444  18.599  16.398  0.00  0.00    +0.000 A 
ATOM     12  C   UNL     1      -0.583  18.449  17.320  0.00  0.00    +0.000 A 
ATOM     13  C   UNL     1      -0.377  17.685  18.468  0.00  0.00    +0.000 A 
ATOM     14  C   UNL     1       0.825  16.979  18.663  0.00  0.00    +0.000 A 
BRANCH   9  16
ATOM     15  O   UNL     1       3.459  15.486  17.249  0.00  0.00    +0.000 OA
ATOM     16  C   UNL     1       3.238  16.544  17.822  0.00  0.00    +0.000 C 
BRANCH  16  17
ATOM     17  O   UNL     1       4.225  17.259  18.389  0.00  0.00    +0.000 OA
ATOM     18  H   UNL     1       5.088  16.791  18.492  0.00  0.00    +0.000 HD
ENDBRANCH  16  17
ENDBRANCH   9  16
ENDBRANCH   1  14
BRANCH   6  19
ATOM     19  C   UNL     1      -0.672  11.263  19.960  0.00  0.00    +0.000 C 
ATOM     20  O   UNL     1      -1.064  11.080  21.113  0.00  0.00    +0.000 OA
BRANCH  19  21
ATOM     21  C   UNL     1      -1.610  10.984  18.824  0.00  0.00    +0.000 A 
ATOM     22  C   UNL     1      -1.324  10.047  17.824  0.00  0.00    +0.000 A 
ATOM     23  C   UNL     1      -2.227   9.828  16.781  0.00  0.00    +0.000 A 
ATOM     24  C   UNL     1      -3.427  10.533  16.734  0.00  0.00    +0.000 A 
ATOM     25  C   UNL     1      -3.725  11.464  17.727  0.00  0.00    +0.000 A 
ATOM     26  C   UNL     1      -2.821  11.690  18.768  0.00  0.00    +0.000 A 
ENDBRANCH  19  21
ENDBRANCH   6  19
TORSDOF 5
ENDMDL
