MODEL 1
REMARK VINA RESULT:      -7.7      0.000      0.000
REMARK  Name = 
REMARK  8 active torsions:
REMARK  status: ('A' for Active; 'I' for Inactive)
REMARK    1  A    between atoms: C_1  and  C_2
REMARK    2  A    between atoms: C_2  and  C_3
REMARK    3  A    between atoms: C_6  and  C_7
REMARK    4  A    between atoms: C_7  and  N_8
REMARK    5  A    between atoms: N_8  and  C_9
REMARK    6  A    between atoms: C_14  and  C_15
REMARK    7  A    between atoms: C_16  and  C_17
REMARK    8  A    between atoms: C_16  and  C_18
REMARK                            x       y       z     vdW  Elec       q    Type
REMARK                         _______ _______ _______ _____ _____    ______ ____
ROOT
ATOM      1  N   UNL     1       5.616   5.460  18.763  0.00  0.00    +0.000 NA
ATOM      2  H   UNL     1       5.458   6.183  18.058  0.00  0.00    +0.000 HD
ENDROOT
BRANCH   1   3
ATOM      3  C   UNL     1       4.308   4.993  19.261  0.00  0.00    +0.000 C 
ATOM      4  C   UNL     1       4.298   3.462  19.538  0.00  0.00    +0.000 C 
ATOM      5  C   UNL     1       3.076   2.759  18.945  0.00  0.00    +0.000 C 
ATOM      6  C   UNL     1       2.947   3.137  17.446  0.00  0.00    +0.000 C 
ATOM      7  C   UNL     1       2.173   4.383  17.974  0.00  0.00    +0.000 C 
ATOM      8  C   UNL     1       3.216   5.478  18.253  0.00  0.00    +0.000 C 
ATOM      9  C   UNL     1       2.538   6.773  18.700  0.00  0.00    +0.000 C 
ATOM     10  C   UNL     1       1.679   3.452  19.158  0.00  0.00    +0.000 C 
ATOM     11  C   UNL     1       1.413   4.065  20.531  0.00  0.00    +0.000 C 
ATOM     12  C   UNL     1       0.473   2.557  18.803  0.00  0.00    +0.000 C 
ENDBRANCH   1   3
BRANCH   1  13
ATOM     13  C   UNL     1       6.428   4.409  18.157  0.00  0.00    +0.000 C 
BRANCH  13  17
ATOM     14  C   UNL     1       6.273   4.260  14.523  0.00  0.00    +0.000 A 
ATOM     15  N   UNL     1       6.821   5.455  14.606  0.00  0.00    +0.000 NA
ATOM     16  C   UNL     1       6.966   5.706  15.947  0.00  0.00    +0.000 A 
ATOM     17  C   UNL     1       6.488   4.654  16.697  0.00  0.00    +0.000 A 
ATOM     18  N   UNL     1       6.042   3.741  15.772  0.00  0.00    +0.000 N 
ATOM     19  H   UNL     1       5.663   2.832  15.987  0.00  0.00    +0.000 HD
BRANCH  14  21
ATOM     20  C   UNL     1       6.923   3.858  12.163  0.00  0.00    +0.000 C 
ATOM     21  C   UNL     1       5.951   3.513  13.278  0.00  0.00    +0.000 C 
ENDBRANCH  14  21
ENDBRANCH  13  17
ENDBRANCH   1  13
TORSDOF 4
ENDMDL
MODEL 2
REMARK VINA RESULT:      -7.6      0.986      1.149
REMARK  Name = 
REMARK  8 active torsions:
REMARK  status: ('A' for Active; 'I' for Inactive)
REMARK    1  A    between atoms: C_1  and  C_2
REMARK    2  A    between atoms: C_2  and  C_3
REMARK    3  A    between atoms: C_6  and  C_7
REMARK    4  A    between atoms: C_7  and  N_8
REMARK    5  A    between atoms: N_8  and  C_9
REMARK    6  A    between atoms: C_14  and  C_15
REMARK    7  A    between atoms: C_16  and  C_17
REMARK    8  A    between atoms: C_16  and  C_18
REMARK                            x       y       z     vdW  Elec       q    Type
REMARK                         _______ _______ _______ _____ _____    ______ ____
ROOT
ATOM      1  N   UNL     1       5.334   5.705  19.140  0.00  0.00    +0.000 NA
ATOM      2  H   UNL     1       5.523   6.451  19.814  0.00  0.00    +0.000 HD
ENDROOT
BRANCH   1   3
ATOM      3  C   UNL     1       4.154   4.946  19.595  0.00  0.00    +0.000 C 
ATOM      4  C   UNL     1       4.315   3.416  19.361  0.00  0.00    +0.000 C 
ATOM      5  C   UNL     1       3.087   2.783  18.706  0.00  0.00    +0.000 C 
ATOM      6  C   UNL     1       2.717   3.587  17.432  0.00  0.00    +0.000 C 
ATOM      7  C   UNL     1       1.920   4.500  18.412  0.00  0.00    +0.000 C 
ATOM      8  C   UNL     1       2.894   5.578  18.919  0.00  0.00    +0.000 C 
ATOM      9  C   UNL     1       2.176   6.574  19.830  0.00  0.00    +0.000 C 
ATOM     10  C   UNL     1       1.680   3.193  19.277  0.00  0.00    +0.000 C 
ATOM     11  C   UNL     1       1.556   3.312  20.794  0.00  0.00    +0.000 C 
ATOM     12  C   UNL     1       0.517   2.308  18.781  0.00  0.00    +0.000 C 
ENDBRANCH   1   3
BRANCH   1  13
ATOM     13  C   UNL     1       5.173   6.317  17.825  0.00  0.00    +0.000 C 
BRANCH  13  17
ATOM     14  C   UNL     1       6.942   4.954  14.951  0.00  0.00    +0.000 A 
ATOM     15  N   UNL     1       7.726   4.437  15.874  0.00  0.00    +0.000 NA
ATOM     16  C   UNL     1       7.209   4.851  17.075  0.00  0.00    +0.000 A 
ATOM     17  C   UNL     1       6.099   5.645  16.884  0.00  0.00    +0.000 A 
ATOM     18  N   UNL     1       5.947   5.707  15.521  0.00  0.00    +0.000 N 
ATOM     19  H   UNL     1       5.198   6.181  15.039  0.00  0.00    +0.000 HD
BRANCH  14  21
ATOM     20  C   UNL     1       6.144   3.644  13.001  0.00  0.00    +0.000 C 
ATOM     21  C   UNL     1       7.053   4.763  13.480  0.00  0.00    +0.000 C 
ENDBRANCH  14  21
ENDBRANCH  13  17
ENDBRANCH   1  13
TORSDOF 4
ENDMDL
MODEL 3
REMARK VINA RESULT:      -7.4      2.048      3.492
REMARK  Name = 
REMARK  8 active torsions:
REMARK  status: ('A' for Active; 'I' for Inactive)
REMARK    1  A    between atoms: C_1  and  C_2
REMARK    2  A    between atoms: C_2  and  C_3
REMARK    3  A    between atoms: C_6  and  C_7
REMARK    4  A    between atoms: C_7  and  N_8
REMARK    5  A    between atoms: N_8  and  C_9
REMARK    6  A    between atoms: C_14  and  C_15
REMARK    7  A    between atoms: C_16  and  C_17
REMARK    8  A    between atoms: C_16  and  C_18
REMARK                            x       y       z     vdW  Elec       q    Type
REMARK                         _______ _______ _______ _____ _____    ______ ____
ROOT
ATOM      1  N   UNL     1       5.026   4.518  16.432  0.00  0.00    +0.000 NA
ATOM      2  H   UNL     1       4.646   4.014  15.628  0.00  0.00    +0.000 HD
ENDROOT
BRANCH   1   3
ATOM      3  C   UNL     1       4.385   4.002  17.657  0.00  0.00    +0.000 C 
ATOM      4  C   UNL     1       3.555   2.714  17.386  0.00  0.00    +0.000 C 
ATOM      5  C   UNL     1       2.159   2.764  18.010  0.00  0.00    +0.000 C 
ATOM      6  C   UNL     1       1.456   4.078  17.580  0.00  0.00    +0.000 C 
ATOM      7  C   UNL     1       2.196   4.706  18.799  0.00  0.00    +0.000 C 
ATOM      8  C   UNL     1       3.574   5.174  18.298  0.00  0.00    +0.000 C 
ATOM      9  C   UNL     1       4.346   5.881  19.413  0.00  0.00    +0.000 C 
ATOM     10  C   UNL     1       2.055   3.287  19.490  0.00  0.00    +0.000 C 
ATOM     11  C   UNL     1       3.133   2.820  20.466  0.00  0.00    +0.000 C 
ATOM     12  C   UNL     1       0.684   3.035  20.151  0.00  0.00    +0.000 C 
ENDBRANCH   1   3
BRANCH   1  13
ATOM     13  C   UNL     1       6.478   4.366  16.415  0.00  0.00    +0.000 C 
BRANCH  13  17
ATOM     14  C   UNL     1       7.725   7.496  17.791  0.00  0.00    +0.000 A 
ATOM     15  N   UNL     1       8.102   6.727  18.791  0.00  0.00    +0.000 NA
ATOM     16  C   UNL     1       7.707   5.457  18.453  0.00  0.00    +0.000 A 
ATOM     17  C   UNL     1       7.067   5.452  17.233  0.00  0.00    +0.000 A 
ATOM     18  N   UNL     1       7.080   6.763  16.827  0.00  0.00    +0.000 N 
ATOM     19  H   UNL     1       6.724   7.104  15.947  0.00  0.00    +0.000 HD
BRANCH  14  21
ATOM     20  C   UNL     1       8.847   9.479  18.774  0.00  0.00    +0.000 C 
ATOM     21  C   UNL     1       7.962   8.958  17.655  0.00  0.00    +0.000 C 
ENDBRANCH  14  21
ENDBRANCH  13  17
ENDBRANCH   1  13
TORSDOF 4
ENDMDL
MODEL 4
REMARK VINA RESULT:      -7.4      2.443      3.664
REMARK  Name = 
REMARK  8 active torsions:
REMARK  status: ('A' for Active; 'I' for Inactive)
REMARK    1  A    between atoms: C_1  and  C_2
REMARK    2  A    between atoms: C_2  and  C_3
REMARK    3  A    between atoms: C_6  and  C_7
REMARK    4  A    between atoms: C_7  and  N_8
REMARK    5  A    between atoms: N_8  and  C_9
REMARK    6  A    between atoms: C_14  and  C_15
REMARK    7  A    between atoms: C_16  and  C_17
REMARK    8  A    between atoms: C_16  and  C_18
REMARK                            x       y       z     vdW  Elec       q    Type
REMARK                         _______ _______ _______ _____ _____    ______ ____
ROOT
ATOM      1  N   UNL     1       6.224   4.218  18.095  0.00  0.00    +0.000 NA
ATOM      2  H   UNL     1       6.452   3.239  17.904  0.00  0.00    +0.000 HD
ENDROOT
BRANCH   1   3
ATOM      3  C   UNL     1       4.923   4.273  18.787  0.00  0.00    +0.000 C 
ATOM      4  C   UNL     1       4.604   2.952  19.544  0.00  0.00    +0.000 C 
ATOM      5  C   UNL     1       3.187   2.440  19.277  0.00  0.00    +0.000 C 
ATOM      6  C   UNL     1       2.950   2.371  17.746  0.00  0.00    +0.000 C 
ATOM      7  C   UNL     1       2.553   3.872  17.883  0.00  0.00    +0.000 C 
ATOM      8  C   UNL     1       3.845   4.695  17.736  0.00  0.00    +0.000 C 
ATOM      9  C   UNL     1       3.541   6.194  17.777  0.00  0.00    +0.000 C 
ATOM     10  C   UNL     1       2.024   3.498  19.330  0.00  0.00    +0.000 C 
ATOM     11  C   UNL     1       2.086   4.542  20.442  0.00  0.00    +0.000 C 
ATOM     12  C   UNL     1       0.611   2.877  19.349  0.00  0.00    +0.000 C 
ENDBRANCH   1   3
BRANCH   1  13
ATOM     13  C   UNL     1       7.326   4.796  18.860  0.00  0.00    +0.000 C 
BRANCH  13  17
ATOM     14  C   UNL     1       8.328   8.251  18.311  0.00  0.00    +0.000 A 
ATOM     15  N   UNL     1       7.654   8.105  17.189  0.00  0.00    +0.000 NA
ATOM     16  C   UNL     1       7.179   6.819  17.204  0.00  0.00    +0.000 A 
ATOM     17  C   UNL     1       7.578   6.163  18.348  0.00  0.00    +0.000 A 
ATOM     18  N   UNL     1       8.318   7.089  19.041  0.00  0.00    +0.000 N 
ATOM     19  H   UNL     1       8.729   6.945  19.950  0.00  0.00    +0.000 HD
BRANCH  14  21
ATOM     20  C   UNL     1       8.565  10.699  17.986  0.00  0.00    +0.000 C 
ATOM     21  C   UNL     1       9.003   9.487  18.789  0.00  0.00    +0.000 C 
ENDBRANCH  14  21
ENDBRANCH  13  17
ENDBRANCH   1  13
TORSDOF 4
ENDMDL
MODEL 5
REMARK VINA RESULT:      -7.4      1.558      2.891
REMARK  Name = 
REMARK  8 active torsions:
REMARK  status: ('A' for Active; 'I' for Inactive)
REMARK    1  A    between atoms: C_1  and  C_2
REMARK    2  A    between atoms: C_2  and  C_3
REMARK    3  A    between atoms: C_6  and  C_7
REMARK    4  A    between atoms: C_7  and  N_8
REMARK    5  A    between atoms: N_8  and  C_9
REMARK    6  A    between atoms: C_14  and  C_15
REMARK    7  A    between atoms: C_16  and  C_17
REMARK    8  A    between atoms: C_16  and  C_18
REMARK                            x       y       z     vdW  Elec       q    Type
REMARK                         _______ _______ _______ _____ _____    ______ ____
ROOT
ATOM      1  N   UNL     1       5.911   3.437  16.469  0.00  0.00    +0.000 NA
ATOM      2  H   UNL     1       6.451   3.076  17.258  0.00  0.00    +0.000 HD
ENDROOT
BRANCH   1   3
ATOM      3  C   UNL     1       4.572   3.824  16.951  0.00  0.00    +0.000 C 
ATOM      4  C   UNL     1       4.384   5.368  16.986  0.00  0.00    +0.000 C 
ATOM      5  C   UNL     1       3.784   5.865  18.302  0.00  0.00    +0.000 C 
ATOM      6  C   UNL     1       4.610   5.296  19.486  0.00  0.00    +0.000 C 
ATOM      7  C   UNL     1       3.682   4.051  19.349  0.00  0.00    +0.000 C 
ATOM      8  C   UNL     1       4.338   3.111  18.323  0.00  0.00    +0.000 C 
ATOM      9  C   UNL     1       3.535   1.817  18.182  0.00  0.00    +0.000 C 
ATOM     10  C   UNL     1       2.558   5.064  18.877  0.00  0.00    +0.000 C 
ATOM     11  C   UNL     1       1.504   4.597  17.874  0.00  0.00    +0.000 C 
ATOM     12  C   UNL     1       1.823   5.780  20.029  0.00  0.00    +0.000 C 
ENDBRANCH   1   3
BRANCH   1  13
ATOM     13  C   UNL     1       6.665   4.535  15.871  0.00  0.00    +0.000 C 
BRANCH  13  17
ATOM     14  C   UNL     1       6.182   3.476  12.423  0.00  0.00    +0.000 A 
ATOM     15  N   UNL     1       7.157   4.329  12.187  0.00  0.00    +0.000 NA
ATOM     16  C   UNL     1       7.492   4.857  13.408  0.00  0.00    +0.000 A 
ATOM     17  C   UNL     1       6.702   4.328  14.405  0.00  0.00    +0.000 A 
ATOM     18  N   UNL     1       5.864   3.453  13.758  0.00  0.00    +0.000 N 
ATOM     19  H   UNL     1       5.179   2.864  14.205  0.00  0.00    +0.000 HD
BRANCH  14  21
ATOM     20  C   UNL     1       4.066   3.059  11.196  0.00  0.00    +0.000 C 
ATOM     21  C   UNL     1       5.498   2.608  11.427  0.00  0.00    +0.000 C 
ENDBRANCH  14  21
ENDBRANCH  13  17
ENDBRANCH   1  13
TORSDOF 4
ENDMDL
MODEL 6
REMARK VINA RESULT:      -7.3      0.820      1.037
REMARK  Name = 
REMARK  8 active torsions:
REMARK  status: ('A' for Active; 'I' for Inactive)
REMARK    1  A    between atoms: C_1  and  C_2
REMARK    2  A    between atoms: C_2  and  C_3
REMARK    3  A    between atoms: C_6  and  C_7
REMARK    4  A    between atoms: C_7  and  N_8
REMARK    5  A    between atoms: N_8  and  C_9
REMARK    6  A    between atoms: C_14  and  C_15
REMARK    7  A    between atoms: C_16  and  C_17
REMARK    8  A    between atoms: C_16  and  C_18
REMARK                            x       y       z     vdW  Elec       q    Type
REMARK                         _______ _______ _______ _____ _____    ______ ____
ROOT
ATOM      1  N   UNL     1       5.627   5.749  18.305  0.00  0.00    +0.000 NA
ATOM      2  H   UNL     1       5.341   6.293  17.488  0.00  0.00    +0.000 HD
ENDROOT
BRANCH   1   3
ATOM      3  C   UNL     1       4.418   5.292  19.016  0.00  0.00    +0.000 C 
ATOM      4  C   UNL     1       4.464   3.770  19.334  0.00  0.00    +0.000 C 
ATOM      5  C   UNL     1       3.170   3.045  18.961  0.00  0.00    +0.000 C 
ATOM      6  C   UNL     1       2.804   3.378  17.491  0.00  0.00    +0.000 C 
ATOM      7  C   UNL     1       2.112   4.636  18.098  0.00  0.00    +0.000 C 
ATOM      8  C   UNL     1       3.177   5.743  18.178  0.00  0.00    +0.000 C 
ATOM      9  C   UNL     1       2.567   7.049  18.689  0.00  0.00    +0.000 C 
ATOM     10  C   UNL     1       1.818   3.738  19.371  0.00  0.00    +0.000 C 
ATOM     11  C   UNL     1       1.765   4.391  20.750  0.00  0.00    +0.000 C 
ATOM     12  C   UNL     1       0.579   2.829  19.235  0.00  0.00    +0.000 C 
ENDBRANCH   1   3
BRANCH   1  13
ATOM     13  C   UNL     1       6.488   4.664  17.844  0.00  0.00    +0.000 C 
BRANCH  13  17
ATOM     14  C   UNL     1       6.929   4.771  14.233  0.00  0.00    +0.000 A 
ATOM     15  N   UNL     1       5.706   4.282  14.225  0.00  0.00    +0.000 NA
ATOM     16  C   UNL     1       5.345   4.162  15.543  0.00  0.00    +0.000 A 
ATOM     17  C   UNL     1       6.367   4.571  16.370  0.00  0.00    +0.000 A 
ATOM     18  N   UNL     1       7.375   4.950  15.518  0.00  0.00    +0.000 N 
ATOM     19  H   UNL     1       8.261   5.341  15.800  0.00  0.00    +0.000 HD
BRANCH  14  21
ATOM     20  C   UNL     1       7.333   4.326  11.826  0.00  0.00    +0.000 C 
ATOM     21  C   UNL     1       7.753   5.126  13.047  0.00  0.00    +0.000 C 
ENDBRANCH  14  21
ENDBRANCH  13  17
ENDBRANCH   1  13
TORSDOF 4
ENDMDL
MODEL 7
REMARK VINA RESULT:      -7.3      1.194      1.373
REMARK  Name = 
REMARK  8 active torsions:
REMARK  status: ('A' for Active; 'I' for Inactive)
REMARK    1  A    between atoms: C_1  and  C_2
REMARK    2  A    between atoms: C_2  and  C_3
REMARK    3  A    between atoms: C_6  and  C_7
REMARK    4  A    between atoms: C_7  and  N_8
REMARK    5  A    between atoms: N_8  and  C_9
REMARK    6  A    between atoms: C_14  and  C_15
REMARK    7  A    between atoms: C_16  and  C_17
REMARK    8  A    between atoms: C_16  and  C_18
REMARK                            x       y       z     vdW  Elec       q    Type
REMARK                         _______ _______ _______ _____ _____    ______ ____
ROOT
ATOM      1  N   UNL     1       5.313   5.641  16.951  0.00  0.00    +0.000 NA
ATOM      2  H   UNL     1       4.735   5.738  16.113  0.00  0.00    +0.000 HD
ENDROOT
BRANCH   1   3
ATOM      3  C   UNL     1       4.434   5.345  18.098  0.00  0.00    +0.000 C 
ATOM      4  C   UNL     1       4.482   3.843  18.502  0.00  0.00    +0.000 C 
ATOM      5  C   UNL     1       3.092   3.237  18.703  0.00  0.00    +0.000 C 
ATOM      6  C   UNL     1       2.221   3.533  17.454  0.00  0.00    +0.000 C 
ATOM      7  C   UNL     1       1.909   4.883  18.169  0.00  0.00    +0.000 C 
ATOM      8  C   UNL     1       3.005   5.878  17.751  0.00  0.00    +0.000 C 
ATOM      9  C   UNL     1       2.736   7.262  18.343  0.00  0.00    +0.000 C 
ATOM     10  C   UNL     1       2.055   4.083  19.529  0.00  0.00    +0.000 C 
ATOM     11  C   UNL     1       2.581   4.804  20.769  0.00  0.00    +0.000 C 
ATOM     12  C   UNL     1       0.793   3.299  19.944  0.00  0.00    +0.000 C 
ENDBRANCH   1   3
BRANCH   1  13
ATOM     13  C   UNL     1       6.314   4.611  16.691  0.00  0.00    +0.000 C 
BRANCH  13  17
ATOM     14  C   UNL     1       6.308   3.737  13.158  0.00  0.00    +0.000 A 
ATOM     15  N   UNL     1       7.155   4.741  13.068  0.00  0.00    +0.000 NA
ATOM     16  C   UNL     1       7.296   5.226  14.343  0.00  0.00    +0.000 A 
ATOM     17  C   UNL     1       6.512   4.516  15.226  0.00  0.00    +0.000 A 
ATOM     18  N   UNL     1       5.881   3.573  14.452  0.00  0.00    +0.000 N 
ATOM     19  H   UNL     1       5.259   2.858  14.796  0.00  0.00    +0.000 HD
BRANCH  14  21
ATOM     20  C   UNL     1       4.484   3.253  11.548  0.00  0.00    +0.000 C 
ATOM     21  C   UNL     1       5.858   2.849  12.053  0.00  0.00    +0.000 C 
ENDBRANCH  14  21
ENDBRANCH  13  17
ENDBRANCH   1  13
TORSDOF 4
ENDMDL
MODEL 8
REMARK VINA RESULT:      -7.2      1.540      2.525
REMARK  Name = 
REMARK  8 active torsions:
REMARK  status: ('A' for Active; 'I' for Inactive)
REMARK    1  A    between atoms: C_1  and  C_2
REMARK    2  A    between atoms: C_2  and  C_3
REMARK    3  A    between atoms: C_6  and  C_7
REMARK    4  A    between atoms: C_7  and  N_8
REMARK    5  A    between atoms: N_8  and  C_9
REMARK    6  A    between atoms: C_14  and  C_15
REMARK    7  A    between atoms: C_16  and  C_17
REMARK    8  A    between atoms: C_16  and  C_18
REMARK                            x       y       z     vdW  Elec       q    Type
REMARK                         _______ _______ _______ _____ _____    ______ ____
ROOT
ATOM      1  N   UNL     1       5.231   5.069  16.119  0.00  0.00    +0.000 NA
ATOM      2  H   UNL     1       4.621   4.823  15.336  0.00  0.00    +0.000 HD
ENDROOT
BRANCH   1   3
ATOM      3  C   UNL     1       4.725   4.407  17.336  0.00  0.00    +0.000 C 
ATOM      4  C   UNL     1       3.318   3.780  17.122  0.00  0.00    +0.000 C 
ATOM      5  C   UNL     1       2.336   4.125  18.243  0.00  0.00    +0.000 C 
ATOM      6  C   UNL     1       2.324   5.662  18.455  0.00  0.00    +0.000 C 
ATOM      7  C   UNL     1       3.544   5.399  19.388  0.00  0.00    +0.000 C 
ATOM      8  C   UNL     1       4.804   5.441  18.507  0.00  0.00    +0.000 C 
ATOM      9  C   UNL     1       6.066   5.273  19.354  0.00  0.00    +0.000 C 
ATOM     10  C   UNL     1       2.866   4.006  19.720  0.00  0.00    +0.000 C 
ATOM     11  C   UNL     1       3.748   2.802  20.044  0.00  0.00    +0.000 C 
ATOM     12  C   UNL     1       1.759   4.076  20.792  0.00  0.00    +0.000 C 
ENDBRANCH   1   3
BRANCH   1  13
ATOM     13  C   UNL     1       6.595   4.693  15.763  0.00  0.00    +0.000 C 
BRANCH  13  17
ATOM     14  C   UNL     1       6.081   3.404  12.399  0.00  0.00    +0.000 A 
ATOM     15  N   UNL     1       7.086   4.204  12.106  0.00  0.00    +0.000 NA
ATOM     16  C   UNL     1       7.437   4.807  13.287  0.00  0.00    +0.000 A 
ATOM     17  C   UNL     1       6.627   4.379  14.316  0.00  0.00    +0.000 A 
ATOM     18  N   UNL     1       5.761   3.489  13.730  0.00  0.00    +0.000 N 
ATOM     19  H   UNL     1       5.055   2.958  14.216  0.00  0.00    +0.000 HD
BRANCH  14  21
ATOM     20  C   UNL     1       4.002   3.041  11.094  0.00  0.00    +0.000 C 
ATOM     21  C   UNL     1       5.369   2.491  11.465  0.00  0.00    +0.000 C 
ENDBRANCH  14  21
ENDBRANCH  13  17
ENDBRANCH   1  13
TORSDOF 4
ENDMDL
MODEL 9
REMARK VINA RESULT:      -7.2      1.178      1.343
REMARK  Name = 
REMARK  8 active torsions:
REMARK  status: ('A' for Active; 'I' for Inactive)
REMARK    1  A    between atoms: C_1  and  C_2
REMARK    2  A    between atoms: C_2  and  C_3
REMARK    3  A    between atoms: C_6  and  C_7
REMARK    4  A    between atoms: C_7  and  N_8
REMARK    5  A    between atoms: N_8  and  C_9
REMARK    6  A    between atoms: C_14  and  C_15
REMARK    7  A    between atoms: C_16  and  C_17
REMARK    8  A    between atoms: C_16  and  C_18
REMARK                            x       y       z     vdW  Elec       q    Type
REMARK                         _______ _______ _______ _____ _____    ______ ____
ROOT
ATOM      1  N   UNL     1       5.741   4.075  17.651  0.00  0.00    +0.000 NA
ATOM      2  H   UNL     1       6.172   4.984  17.472  0.00  0.00    +0.000 HD
ENDROOT
BRANCH   1   3
ATOM      3  C   UNL     1       4.651   4.254  18.628  0.00  0.00    +0.000 C 
ATOM      4  C   UNL     1       4.444   2.992  19.515  0.00  0.00    +0.000 C 
ATOM      5  C   UNL     1       2.976   2.575  19.623  0.00  0.00    +0.000 C 
ATOM      6  C   UNL     1       2.373   2.459  18.199  0.00  0.00    +0.000 C 
ATOM      7  C   UNL     1       2.113   3.989  18.339  0.00  0.00    +0.000 C 
ATOM      8  C   UNL     1       3.379   4.709  17.841  0.00  0.00    +0.000 C 
ATOM      9  C   UNL     1       3.186   6.226  17.866  0.00  0.00    +0.000 C 
ATOM     10  C   UNL     1       1.926   3.716  19.889  0.00  0.00    +0.000 C 
ATOM     11  C   UNL     1       2.319   4.798  20.892  0.00  0.00    +0.000 C 
ATOM     12  C   UNL     1       0.525   3.202  20.280  0.00  0.00    +0.000 C 
ENDBRANCH   1   3
BRANCH   1  13
ATOM     13  C   UNL     1       5.305   3.523  16.372  0.00  0.00    +0.000 C 
BRANCH  13  17
ATOM     14  C   UNL     1       7.022   4.400  13.285  0.00  0.00    +0.000 A 
ATOM     15  N   UNL     1       7.620   5.287  14.052  0.00  0.00    +0.000 NA
ATOM     16  C   UNL     1       7.090   5.114  15.305  0.00  0.00    +0.000 A 
ATOM     17  C   UNL     1       6.143   4.113  15.303  0.00  0.00    +0.000 A 
ATOM     18  N   UNL     1       6.107   3.672  14.003  0.00  0.00    +0.000 N 
ATOM     19  H   UNL     1       5.541   2.910  13.661  0.00  0.00    +0.000 HD
BRANCH  14  21
ATOM     20  C   UNL     1       7.060   2.693  11.485  0.00  0.00    +0.000 C 
ATOM     21  C   UNL     1       7.280   4.153  11.841  0.00  0.00    +0.000 C 
ENDBRANCH  14  21
ENDBRANCH  13  17
ENDBRANCH   1  13
TORSDOF 4
ENDMDL
