MODEL 1
REMARK VINA RESULT:      -6.4      0.000      0.000
REMARK  Name = 
REMARK  7 active torsions:
REMARK  status: ('A' for Active; 'I' for Inactive)
REMARK    1  A    between atoms: C_1  and  O_2
REMARK    2  A    between atoms: O_2  and  C_3
REMARK    3  A    between atoms: N_7  and  C_8
REMARK    4  A    between atoms: C_8  and  C_9
REMARK    5  A    between atoms: C_9  and  N_10
REMARK    6  A    between atoms: C_19  and  O_20
REMARK    7  A    between atoms: O_20  and  C_21
REMARK                            x       y       z     vdW  Elec       q    Type
REMARK                         _______ _______ _______ _____ _____    ______ ____
ROOT
ATOM      1  C   UNL     1       6.718   6.376  16.814  0.00  0.00    +0.000 A 
ATOM      2  C   UNL     1       5.776   6.611  17.822  0.00  0.00    +0.000 A 
ATOM      3  C   UNL     1       4.641   5.838  17.885  0.00  0.00    +0.000 A 
ATOM      4  S   UNL     1       3.290   6.100  18.975  0.00  0.00    +0.000 S 
ATOM      5  N   UNL     1       2.418   4.868  18.176  0.00  0.00    +0.000 N 
ATOM      6  C   UNL     1       3.126   4.179  17.198  0.00  0.00    +0.000 A 
ATOM      7  O   UNL     1       2.753   3.202  16.565  0.00  0.00    +0.000 OA
ATOM      8  C   UNL     1       4.456   4.797  16.996  0.00  0.00    +0.000 A 
ATOM      9  C   UNL     1       5.422   4.464  16.056  0.00  0.00    +0.000 A 
ATOM     10  C   UNL     1       6.584   5.256  15.971  0.00  0.00    +0.000 A 
ENDROOT
BRANCH   1  12
ATOM     11  C   UNL     1       7.927   8.156  17.748  0.00  0.00    +0.000 C 
ATOM     12  O   UNL     1       7.749   7.278  16.624  0.00  0.00    +0.000 OA
ENDBRANCH   1  12
BRANCH  10  13
ATOM     13  O   UNL     1       7.443   4.859  14.977  0.00  0.00    +0.000 OA
ATOM     14  C   UNL     1       6.869   4.594  13.700  0.00  0.00    +0.000 C 
ENDBRANCH  10  13
BRANCH   5  15
ATOM     15  C   UNL     1       1.127   4.443  18.709  0.00  0.00    +0.000 C 
BRANCH  15  16
ATOM     16  C   UNL     1       1.111   4.282  20.248  0.00  0.00    +0.000 C 
BRANCH  16  17
ATOM     17  N   UNL     1       1.359   2.906  20.728  0.00  0.00    +0.000 NA
ATOM     18  C   UNL     1       2.594   2.739  21.505  0.00  0.00    +0.000 C 
ATOM     19  C   UNL     1       3.675   2.456  20.482  0.00  0.00    +0.000 C 
ATOM     20  C   UNL     1       2.959   1.582  19.473  0.00  0.00    +0.000 C 
ATOM     21  C   UNL     1       1.483   1.959  19.600  0.00  0.00    +0.000 C 
ENDBRANCH  16  17
ENDBRANCH  15  16
ENDBRANCH   5  15
TORSDOF 5
ENDMDL
MODEL 2
REMARK VINA RESULT:      -6.3      4.806      7.116
REMARK  Name = 
REMARK  7 active torsions:
REMARK  status: ('A' for Active; 'I' for Inactive)
REMARK    1  A    between atoms: C_1  and  O_2
REMARK    2  A    between atoms: O_2  and  C_3
REMARK    3  A    between atoms: N_7  and  C_8
REMARK    4  A    between atoms: C_8  and  C_9
REMARK    5  A    between atoms: C_9  and  N_10
REMARK    6  A    between atoms: C_19  and  O_20
REMARK    7  A    between atoms: O_20  and  C_21
REMARK                            x       y       z     vdW  Elec       q    Type
REMARK                         _______ _______ _______ _____ _____    ______ ____
ROOT
ATOM      1  C   UNL     1       3.171   4.420  18.905  0.00  0.00    +0.000 A 
ATOM      2  C   UNL     1       3.148   5.630  18.203  0.00  0.00    +0.000 A 
ATOM      3  C   UNL     1       2.595   6.745  18.790  0.00  0.00    +0.000 A 
ATOM      4  S   UNL     1       2.339   8.290  17.997  0.00  0.00    +0.000 S 
ATOM      5  N   UNL     1       1.494   8.845  19.374  0.00  0.00    +0.000 N 
ATOM      6  C   UNL     1       1.486   7.973  20.458  0.00  0.00    +0.000 A 
ATOM      7  O   UNL     1       1.037   8.185  21.574  0.00  0.00    +0.000 OA
ATOM      8  C   UNL     1       2.117   6.687  20.084  0.00  0.00    +0.000 A 
ATOM      9  C   UNL     1       2.228   5.533  20.849  0.00  0.00    +0.000 A 
ATOM     10  C   UNL     1       2.780   4.380  20.257  0.00  0.00    +0.000 A 
ENDROOT
BRANCH   1  12
ATOM     11  C   UNL     1       2.425   2.636  17.576  0.00  0.00    +0.000 C 
ATOM     12  O   UNL     1       3.534   3.259  18.245  0.00  0.00    +0.000 OA
ENDBRANCH   1  12
BRANCH  10  13
ATOM     13  O   UNL     1       2.794   3.292  21.093  0.00  0.00    +0.000 OA
ATOM     14  C   UNL     1       1.543   2.659  21.346  0.00  0.00    +0.000 C 
ENDBRANCH  10  13
BRANCH   5  15
ATOM     15  C   UNL     1       1.067  10.240  19.439  0.00  0.00    +0.000 C 
BRANCH  15  16
ATOM     16  C   UNL     1      -0.468  10.426  19.369  0.00  0.00    +0.000 C 
BRANCH  16  17
ATOM     17  N   UNL     1      -0.974  10.901  18.065  0.00  0.00    +0.000 NA
ATOM     18  C   UNL     1      -2.010  11.939  18.149  0.00  0.00    +0.000 C 
ATOM     19  C   UNL     1      -3.321  11.189  18.256  0.00  0.00    +0.000 C 
ATOM     20  C   UNL     1      -3.108  10.010  17.328  0.00  0.00    +0.000 C 
ATOM     21  C   UNL     1      -1.594   9.802  17.296  0.00  0.00    +0.000 C 
ENDBRANCH  16  17
ENDBRANCH  15  16
ENDBRANCH   5  15
TORSDOF 5
ENDMDL
MODEL 3
REMARK VINA RESULT:      -6.2      5.249      6.808
REMARK  Name = 
REMARK  7 active torsions:
REMARK  status: ('A' for Active; 'I' for Inactive)
REMARK    1  A    between atoms: C_1  and  O_2
REMARK    2  A    between atoms: O_2  and  C_3
REMARK    3  A    between atoms: N_7  and  C_8
REMARK    4  A    between atoms: C_8  and  C_9
REMARK    5  A    between atoms: C_9  and  N_10
REMARK    6  A    between atoms: C_19  and  O_20
REMARK    7  A    between atoms: O_20  and  C_21
REMARK                            x       y       z     vdW  Elec       q    Type
REMARK                         _______ _______ _______ _____ _____    ______ ____
ROOT
ATOM      1  C   UNL     1       0.588  11.036  20.683  0.00  0.00    +0.000 A 
ATOM      2  C   UNL     1       1.005  10.505  19.457  0.00  0.00    +0.000 A 
ATOM      3  C   UNL     1       1.410   9.192  19.388  0.00  0.00    +0.000 A 
ATOM      4  S   UNL     1       2.112   8.417  17.978  0.00  0.00    +0.000 S 
ATOM      5  N   UNL     1       2.426   7.023  18.913  0.00  0.00    +0.000 N 
ATOM      6  C   UNL     1       1.929   7.054  20.211  0.00  0.00    +0.000 A 
ATOM      7  O   UNL     1       1.942   6.147  21.029  0.00  0.00    +0.000 OA
ATOM      8  C   UNL     1       1.352   8.385  20.507  0.00  0.00    +0.000 A 
ATOM      9  C   UNL     1       0.838   8.847  21.711  0.00  0.00    +0.000 A 
ATOM     10  C   UNL     1       0.431  10.193  21.800  0.00  0.00    +0.000 A 
ENDROOT
BRANCH   1  12
ATOM     11  C   UNL     1       0.987  13.141  19.726  0.00  0.00    +0.000 C 
ATOM     12  O   UNL     1       0.379  12.398  20.797  0.00  0.00    +0.000 OA
ENDBRANCH   1  12
BRANCH  10  13
ATOM     13  O   UNL     1      -0.016  10.546  23.049  0.00  0.00    +0.000 OA
ATOM     14  C   UNL     1      -1.359  11.012  23.143  0.00  0.00    +0.000 C 
ENDBRANCH  10  13
BRANCH   5  15
ATOM     15  C   UNL     1       2.943   5.824  18.259  0.00  0.00    +0.000 C 
BRANCH  15  16
ATOM     16  C   UNL     1       1.844   4.813  17.851  0.00  0.00    +0.000 C 
BRANCH  16  17
ATOM     17  N   UNL     1       2.144   3.406  18.187  0.00  0.00    +0.000 NA
ATOM     18  C   UNL     1       1.017   2.656  18.757  0.00  0.00    +0.000 C 
ATOM     19  C   UNL     1       1.084   2.907  20.249  0.00  0.00    +0.000 C 
ATOM     20  C   UNL     1       2.574   2.905  20.522  0.00  0.00    +0.000 C 
ATOM     21  C   UNL     1       3.219   3.312  19.196  0.00  0.00    +0.000 C 
ENDBRANCH  16  17
ENDBRANCH  15  16
ENDBRANCH   5  15
TORSDOF 5
ENDMDL
MODEL 4
REMARK VINA RESULT:      -6.2      4.792      6.397
REMARK  Name = 
REMARK  7 active torsions:
REMARK  status: ('A' for Active; 'I' for Inactive)
REMARK    1  A    between atoms: C_1  and  O_2
REMARK    2  A    between atoms: O_2  and  C_3
REMARK    3  A    between atoms: N_7  and  C_8
REMARK    4  A    between atoms: C_8  and  C_9
REMARK    5  A    between atoms: C_9  and  N_10
REMARK    6  A    between atoms: C_19  and  O_20
REMARK    7  A    between atoms: O_20  and  C_21
REMARK                            x       y       z     vdW  Elec       q    Type
REMARK                         _______ _______ _______ _____ _____    ______ ____
ROOT
ATOM      1  C   UNL     1       3.943   5.034  18.960  0.00  0.00    +0.000 A 
ATOM      2  C   UNL     1       3.070   5.619  19.884  0.00  0.00    +0.000 A 
ATOM      3  C   UNL     1       2.476   6.824  19.589  0.00  0.00    +0.000 A 
ATOM      4  S   UNL     1       1.491   7.770  20.692  0.00  0.00    +0.000 S 
ATOM      5  N   UNL     1       1.443   9.037  19.547  0.00  0.00    +0.000 N 
ATOM      6  C   UNL     1       2.033   8.752  18.321  0.00  0.00    +0.000 A 
ATOM      7  O   UNL     1       2.038   9.454  17.322  0.00  0.00    +0.000 OA
ATOM      8  C   UNL     1       2.694   7.428  18.366  0.00  0.00    +0.000 A 
ATOM      9  C   UNL     1       3.463   6.820  17.383  0.00  0.00    +0.000 A 
ATOM     10  C   UNL     1       4.088   5.591  17.675  0.00  0.00    +0.000 A 
ENDROOT
BRANCH   1  12
ATOM     11  C   UNL     1       3.884   2.777  19.600  0.00  0.00    +0.000 C 
ATOM     12  O   UNL     1       4.694   3.935  19.337  0.00  0.00    +0.000 OA
ENDBRANCH   1  12
BRANCH  10  13
ATOM     13  O   UNL     1       4.857   5.112  16.645  0.00  0.00    +0.000 OA
ATOM     14  C   UNL     1       6.202   5.576  16.578  0.00  0.00    +0.000 C 
ENDBRANCH  10  13
BRANCH   5  15
ATOM     15  C   UNL     1       0.601  10.202  19.803  0.00  0.00    +0.000 C 
BRANCH  15  16
ATOM     16  C   UNL     1      -0.856  10.038  19.305  0.00  0.00    +0.000 C 
BRANCH  16  17
ATOM     17  N   UNL     1      -1.156  10.734  18.037  0.00  0.00    +0.000 NA
ATOM     18  C   UNL     1      -1.985  11.938  18.177  0.00  0.00    +0.000 C 
ATOM     19  C   UNL     1      -3.417  11.447  18.115  0.00  0.00    +0.000 C 
ATOM     20  C   UNL     1      -3.350  10.351  17.071  0.00  0.00    +0.000 C 
ATOM     21  C   UNL     1      -1.903   9.859  17.108  0.00  0.00    +0.000 C 
ENDBRANCH  16  17
ENDBRANCH  15  16
ENDBRANCH   5  15
TORSDOF 5
ENDMDL
MODEL 5
REMARK VINA RESULT:      -6.2      4.798      6.730
REMARK  Name = 
REMARK  7 active torsions:
REMARK  status: ('A' for Active; 'I' for Inactive)
REMARK    1  A    between atoms: C_1  and  O_2
REMARK    2  A    between atoms: O_2  and  C_3
REMARK    3  A    between atoms: N_7  and  C_8
REMARK    4  A    between atoms: C_8  and  C_9
REMARK    5  A    between atoms: C_9  and  N_10
REMARK    6  A    between atoms: C_19  and  O_20
REMARK    7  A    between atoms: O_20  and  C_21
REMARK                            x       y       z     vdW  Elec       q    Type
REMARK                         _______ _______ _______ _____ _____    ______ ____
ROOT
ATOM      1  C   UNL     1       2.890   4.706  19.799  0.00  0.00    +0.000 A 
ATOM      2  C   UNL     1       2.167   5.608  20.588  0.00  0.00    +0.000 A 
ATOM      3  C   UNL     1       1.880   6.860  20.098  0.00  0.00    +0.000 A 
ATOM      4  S   UNL     1       1.130   8.161  21.007  0.00  0.00    +0.000 S 
ATOM      5  N   UNL     1       1.400   9.221  19.694  0.00  0.00    +0.000 N 
ATOM      6  C   UNL     1       1.923   8.628  18.551  0.00  0.00    +0.000 A 
ATOM      7  O   UNL     1       2.108   9.154  17.464  0.00  0.00    +0.000 OA
ATOM      8  C   UNL     1       2.251   7.209  18.814  0.00  0.00    +0.000 A 
ATOM      9  C   UNL     1       2.869   6.301  17.965  0.00  0.00    +0.000 A 
ATOM     10  C   UNL     1       3.182   5.018  18.458  0.00  0.00    +0.000 A 
ENDROOT
BRANCH   1  12
ATOM     11  C   UNL     1       2.464   3.011  21.364  0.00  0.00    +0.000 C 
ATOM     12  O   UNL     1       3.355   3.532  20.364  0.00  0.00    +0.000 OA
ENDBRANCH   1  12
BRANCH  10  13
ATOM     13  O   UNL     1       3.831   4.226  17.544  0.00  0.00    +0.000 OA
ATOM     14  C   UNL     1       5.249   4.343  17.486  0.00  0.00    +0.000 C 
ENDBRANCH  10  13
BRANCH   5  15
ATOM     15  C   UNL     1       0.853  10.574  19.742  0.00  0.00    +0.000 C 
BRANCH  15  16
ATOM     16  C   UNL     1      -0.677  10.636  19.511  0.00  0.00    +0.000 C 
BRANCH  16  17
ATOM     17  N   UNL     1      -1.079  11.010  18.139  0.00  0.00    +0.000 NA
ATOM     18  C   UNL     1      -2.229  11.920  18.062  0.00  0.00    +0.000 C 
ATOM     19  C   UNL     1      -3.450  11.023  18.055  0.00  0.00    +0.000 C 
ATOM     20  C   UNL     1      -2.998   9.851  17.208  0.00  0.00    +0.000 C 
ATOM     21  C   UNL     1      -1.476   9.823  17.354  0.00  0.00    +0.000 C 
ENDBRANCH  16  17
ENDBRANCH  15  16
ENDBRANCH   5  15
TORSDOF 5
ENDMDL
MODEL 6
REMARK VINA RESULT:      -6.2      4.520      6.703
REMARK  Name = 
REMARK  7 active torsions:
REMARK  status: ('A' for Active; 'I' for Inactive)
REMARK    1  A    between atoms: C_1  and  O_2
REMARK    2  A    between atoms: O_2  and  C_3
REMARK    3  A    between atoms: N_7  and  C_8
REMARK    4  A    between atoms: C_8  and  C_9
REMARK    5  A    between atoms: C_9  and  N_10
REMARK    6  A    between atoms: C_19  and  O_20
REMARK    7  A    between atoms: O_20  and  C_21
REMARK                            x       y       z     vdW  Elec       q    Type
REMARK                         _______ _______ _______ _____ _____    ______ ____
ROOT
ATOM      1  C   UNL     1       1.043  10.177  19.238  0.00  0.00    +0.000 A 
ATOM      2  C   UNL     1       1.799   9.501  18.274  0.00  0.00    +0.000 A 
ATOM      3  C   UNL     1       2.259   8.232  18.539  0.00  0.00    +0.000 A 
ATOM      4  S   UNL     1       3.349   7.311  17.516  0.00  0.00    +0.000 S 
ATOM      5  N   UNL     1       3.451   6.108  18.725  0.00  0.00    +0.000 N 
ATOM      6  C   UNL     1       2.618   6.297  19.822  0.00  0.00    +0.000 A 
ATOM      7  O   UNL     1       2.444   5.532  20.758  0.00  0.00    +0.000 OA
ATOM      8  C   UNL     1       1.931   7.605  19.725  0.00  0.00    +0.000 A 
ATOM      9  C   UNL     1       1.090   8.202  20.654  0.00  0.00    +0.000 A 
ATOM     10  C   UNL     1       0.621   9.506  20.402  0.00  0.00    +0.000 A 
ENDROOT
BRANCH   1  12
ATOM     11  C   UNL     1      -0.561  11.735  18.526  0.00  0.00    +0.000 C 
ATOM     12  O   UNL     1       0.757  11.519  19.059  0.00  0.00    +0.000 OA
ENDBRANCH   1  12
BRANCH  10  13
ATOM     13  O   UNL     1      -0.163  10.008  21.411  0.00  0.00    +0.000 OA
ATOM     14  C   UNL     1      -0.399   9.155  22.526  0.00  0.00    +0.000 C 
ENDBRANCH  10  13
BRANCH   5  15
ATOM     15  C   UNL     1       4.174   4.871  18.445  0.00  0.00    +0.000 C 
BRANCH  15  16
ATOM     16  C   UNL     1       5.460   4.697  19.289  0.00  0.00    +0.000 C 
BRANCH  16  17
ATOM     17  N   UNL     1       6.700   4.539  18.499  0.00  0.00    +0.000 NA
ATOM     18  C   UNL     1       7.748   5.524  18.795  0.00  0.00    +0.000 C 
ATOM     19  C   UNL     1       7.456   6.702  17.889  0.00  0.00    +0.000 C 
ATOM     20  C   UNL     1       6.994   6.034  16.611  0.00  0.00    +0.000 C 
ATOM     21  C   UNL     1       6.437   4.680  17.052  0.00  0.00    +0.000 C 
ENDBRANCH  16  17
ENDBRANCH  15  16
ENDBRANCH   5  15
TORSDOF 5
ENDMDL
MODEL 7
REMARK VINA RESULT:      -6.1      4.158      6.499
REMARK  Name = 
REMARK  7 active torsions:
REMARK  status: ('A' for Active; 'I' for Inactive)
REMARK    1  A    between atoms: C_1  and  O_2
REMARK    2  A    between atoms: O_2  and  C_3
REMARK    3  A    between atoms: N_7  and  C_8
REMARK    4  A    between atoms: C_8  and  C_9
REMARK    5  A    between atoms: C_9  and  N_10
REMARK    6  A    between atoms: C_19  and  O_20
REMARK    7  A    between atoms: O_20  and  C_21
REMARK                            x       y       z     vdW  Elec       q    Type
REMARK                         _______ _______ _______ _____ _____    ______ ____
ROOT
ATOM      1  C   UNL     1       0.608   8.659  20.671  0.00  0.00    +0.000 A 
ATOM      2  C   UNL     1       1.211   7.421  20.918  0.00  0.00    +0.000 A 
ATOM      3  C   UNL     1       2.094   6.901  20.001  0.00  0.00    +0.000 A 
ATOM      4  S   UNL     1       2.811   5.300  20.073  0.00  0.00    +0.000 S 
ATOM      5  N   UNL     1       3.492   5.545  18.526  0.00  0.00    +0.000 N 
ATOM      6  C   UNL     1       3.311   6.816  17.992  0.00  0.00    +0.000 A 
ATOM      7  O   UNL     1       3.784   7.257  16.956  0.00  0.00    +0.000 OA
ATOM      8  C   UNL     1       2.428   7.619  18.869  0.00  0.00    +0.000 A 
ATOM      9  C   UNL     1       1.935   8.898  18.649  0.00  0.00    +0.000 A 
ATOM     10  C   UNL     1       1.020   9.439  19.574  0.00  0.00    +0.000 A 
ENDROOT
BRANCH   1  12
ATOM     11  C   UNL     1       0.040   9.636  22.727  0.00  0.00    +0.000 C 
ATOM     12  O   UNL     1      -0.427   9.085  21.484  0.00  0.00    +0.000 OA
ENDBRANCH   1  12
BRANCH  10  13
ATOM     13  O   UNL     1       0.569  10.688  19.227  0.00  0.00    +0.000 OA
ATOM     14  C   UNL     1      -0.626  10.747  18.453  0.00  0.00    +0.000 C 
ENDBRANCH  10  13
BRANCH   5  15
ATOM     15  C   UNL     1       4.409   4.548  17.981  0.00  0.00    +0.000 C 
BRANCH  15  16
ATOM     16  C   UNL     1       5.618   4.246  18.898  0.00  0.00    +0.000 C 
BRANCH  16  17
ATOM     17  N   UNL     1       6.938   4.412  18.255  0.00  0.00    +0.000 NA
ATOM     18  C   UNL     1       7.751   5.511  18.793  0.00  0.00    +0.000 C 
ATOM     19  C   UNL     1       7.339   6.737  18.005  0.00  0.00    +0.000 C 
ATOM     20  C   UNL     1       7.138   6.184  16.609  0.00  0.00    +0.000 C 
ATOM     21  C   UNL     1       6.800   4.707  16.814  0.00  0.00    +0.000 C 
ENDBRANCH  16  17
ENDBRANCH  15  16
ENDBRANCH   5  15
TORSDOF 5
ENDMDL
MODEL 8
REMARK VINA RESULT:      -6.1      5.246      6.673
REMARK  Name = 
REMARK  7 active torsions:
REMARK  status: ('A' for Active; 'I' for Inactive)
REMARK    1  A    between atoms: C_1  and  O_2
REMARK    2  A    between atoms: O_2  and  C_3
REMARK    3  A    between atoms: N_7  and  C_8
REMARK    4  A    between atoms: C_8  and  C_9
REMARK    5  A    between atoms: C_9  and  N_10
REMARK    6  A    between atoms: C_19  and  O_20
REMARK    7  A    between atoms: O_20  and  C_21
REMARK                            x       y       z     vdW  Elec       q    Type
REMARK                         _______ _______ _______ _____ _____    ______ ____
ROOT
ATOM      1  C   UNL     1       0.070  10.685  20.843  0.00  0.00    +0.000 A 
ATOM      2  C   UNL     1       0.555   9.428  21.223  0.00  0.00    +0.000 A 
ATOM      3  C   UNL     1       1.276   8.679  20.323  0.00  0.00    +0.000 A 
ATOM      4  S   UNL     1       1.814   7.027  20.577  0.00  0.00    +0.000 S 
ATOM      5  N   UNL     1       2.358   6.966  18.958  0.00  0.00    +0.000 N 
ATOM      6  C   UNL     1       2.264   8.162  18.256  0.00  0.00    +0.000 A 
ATOM      7  O   UNL     1       2.675   8.391  17.128  0.00  0.00    +0.000 OA
ATOM      8  C   UNL     1       1.570   9.183  19.072  0.00  0.00    +0.000 A 
ATOM      9  C   UNL     1       1.203  10.471  18.703  0.00  0.00    +0.000 A 
ATOM     10  C   UNL     1       0.452  11.246  19.610  0.00  0.00    +0.000 A 
ENDROOT
BRANCH   1  12
ATOM     11  C   UNL     1      -0.999  10.684  22.932  0.00  0.00    +0.000 C 
ATOM     12  O   UNL     1      -0.823  11.346  21.667  0.00  0.00    +0.000 OA
ENDBRANCH   1  12
BRANCH  10  13
ATOM     13  O   UNL     1       0.109  12.480  19.117  0.00  0.00    +0.000 OA
ATOM     14  C   UNL     1      -1.018  12.534  18.247  0.00  0.00    +0.000 C 
ENDBRANCH  10  13
BRANCH   5  15
ATOM     15  C   UNL     1       3.097   5.796  18.495  0.00  0.00    +0.000 C 
BRANCH  15  16
ATOM     16  C   UNL     1       3.561   4.859  19.637  0.00  0.00    +0.000 C 
BRANCH  16  17
ATOM     17  N   UNL     1       3.040   3.479  19.553  0.00  0.00    +0.000 NA
ATOM     18  C   UNL     1       1.669   3.368  19.039  0.00  0.00    +0.000 C 
ATOM     19  C   UNL     1       0.774   3.511  20.253  0.00  0.00    +0.000 C 
ATOM     20  C   UNL     1       1.543   2.764  21.324  0.00  0.00    +0.000 C 
ATOM     21  C   UNL     1       3.005   2.837  20.884  0.00  0.00    +0.000 C 
ENDBRANCH  16  17
ENDBRANCH  15  16
ENDBRANCH   5  15
TORSDOF 5
ENDMDL
MODEL 9
REMARK VINA RESULT:      -6.1      1.754      3.234
REMARK  Name = 
REMARK  7 active torsions:
REMARK  status: ('A' for Active; 'I' for Inactive)
REMARK    1  A    between atoms: C_1  and  O_2
REMARK    2  A    between atoms: O_2  and  C_3
REMARK    3  A    between atoms: N_7  and  C_8
REMARK    4  A    between atoms: C_8  and  C_9
REMARK    5  A    between atoms: C_9  and  N_10
REMARK    6  A    between atoms: C_19  and  O_20
REMARK    7  A    between atoms: O_20  and  C_21
REMARK                            x       y       z     vdW  Elec       q    Type
REMARK                         _______ _______ _______ _____ _____    ______ ____
ROOT
ATOM      1  C   UNL     1       6.578   5.304  15.341  0.00  0.00    +0.000 A 
ATOM      2  C   UNL     1       5.602   4.309  15.458  0.00  0.00    +0.000 A 
ATOM      3  C   UNL     1       5.170   3.925  16.706  0.00  0.00    +0.000 A 
ATOM      4  S   UNL     1       4.080   2.590  17.040  0.00  0.00    +0.000 S 
ATOM      5  N   UNL     1       4.342   2.807  18.714  0.00  0.00    +0.000 N 
ATOM      6  C   UNL     1       5.119   3.908  19.055  0.00  0.00    +0.000 A 
ATOM      7  O   UNL     1       5.362   4.322  20.179  0.00  0.00    +0.000 OA
ATOM      8  C   UNL     1       5.653   4.556  17.836  0.00  0.00    +0.000 A 
ATOM      9  C   UNL     1       6.537   5.623  17.750  0.00  0.00    +0.000 A 
ATOM     10  C   UNL     1       6.998   6.019  16.479  0.00  0.00    +0.000 A 
ENDROOT
BRANCH   1  12
ATOM     11  C   UNL     1       6.821   4.540  13.136  0.00  0.00    +0.000 C 
ATOM     12  O   UNL     1       7.159   5.543  14.108  0.00  0.00    +0.000 OA
ENDBRANCH   1  12
BRANCH  10  13
ATOM     13  O   UNL     1       7.901   7.051  16.523  0.00  0.00    +0.000 OA
ATOM     14  C   UNL     1       7.706   8.031  17.538  0.00  0.00    +0.000 C 
ENDBRANCH  10  13
BRANCH   5  15
ATOM     15  C   UNL     1       3.562   2.023  19.668  0.00  0.00    +0.000 C 
BRANCH  15  16
ATOM     16  C   UNL     1       2.041   2.026  19.381  0.00  0.00    +0.000 C 
BRANCH  16  17
ATOM     17  N   UNL     1       1.221   2.711  20.402  0.00  0.00    +0.000 NA
ATOM     18  C   UNL     1       0.593   3.959  19.950  0.00  0.00    +0.000 C 
ATOM     19  C   UNL     1       1.620   5.042  20.212  0.00  0.00    +0.000 C 
ATOM     20  C   UNL     1       2.234   4.608  21.528  0.00  0.00    +0.000 C 
ATOM     21  C   UNL     1       2.034   3.093  21.576  0.00  0.00    +0.000 C 
ENDBRANCH  16  17
ENDBRANCH  15  16
ENDBRANCH   5  15
TORSDOF 5
ENDMDL
