MODEL 1
REMARK VINA RESULT:      -7.2      0.000      0.000
REMARK  Name = 
REMARK  7 active torsions:
REMARK  status: ('A' for Active; 'I' for Inactive)
REMARK    1  A    between atoms: C_1  and  C_2
REMARK    2  A    between atoms: C_2  and  C_3
REMARK    3  A    between atoms: C_2  and  C_17
REMARK    4  A    between atoms: C_3  and  N_4
REMARK    5  A    between atoms: C_5  and  C_7
REMARK    6  A    between atoms: C_7  and  C_8
REMARK    7  A    between atoms: C_17  and  N_18
REMARK                            x       y       z     vdW  Elec       q    Type
REMARK                         _______ _______ _______ _____ _____    ______ ____
ROOT
ATOM      1  N   UNL     1       1.918   8.354  18.482  0.00  0.00    +0.000 N 
ATOM      2  C   UNL     1       1.522   9.657  18.303  0.00  0.00    +0.000 C 
ATOM      3  O   UNL     1       2.045  10.445  17.528  0.00  0.00    +0.000 OA
ATOM      4  H   UNL     1       1.462   7.775  19.183  0.00  0.00    +0.000 HD
ENDROOT
BRANCH   2   5
ATOM      5  C   UNL     1       0.376  10.090  19.183  0.00  0.00    +0.000 C 
ATOM      6  C   UNL     1       0.290   9.497  20.590  0.00  0.00    +0.000 C 
ATOM      7  C   UNL     1       0.742  10.910  20.422  0.00  0.00    +0.000 C 
BRANCH   5   8
ATOM      8  C   UNL     1      -0.937  10.427  18.482  0.00  0.00    +0.000 A 
ATOM      9  C   UNL     1      -1.342   9.735  17.324  0.00  0.00    +0.000 A 
ATOM     10  C   UNL     1      -2.582   9.976  16.729  0.00  0.00    +0.000 A 
ATOM     11  C   UNL     1      -3.432  10.925  17.281  0.00  0.00    +0.000 A 
ATOM     12  F   UNL     1      -4.636  11.133  16.733  0.00  0.00    +0.000 F 
ATOM     13  C   UNL     1      -3.052  11.656  18.398  0.00  0.00    +0.000 A 
ATOM     14  C   UNL     1      -1.807  11.414  18.986  0.00  0.00    +0.000 A 
ENDBRANCH   5   8
ENDBRANCH   2   5
BRANCH   1  15
ATOM     15  C   UNL     1       3.062   7.794  17.798  0.00  0.00    +0.000 C 
BRANCH  15  17
ATOM     16  C   UNL     1       4.525   5.800  17.398  0.00  0.00    +0.000 C 
ATOM     17  C   UNL     1       3.343   6.338  18.208  0.00  0.00    +0.000 C 
BRANCH  17  18
ATOM     18  C   UNL     1       2.108   5.419  18.099  0.00  0.00    +0.000 C 
BRANCH  18  19
ATOM     19  N   UNL     1       1.910   4.554  19.251  0.00  0.00    +0.000 N 
ATOM     20  C   UNL     1       1.789   5.049  20.599  0.00  0.00    +0.000 C 
ATOM     21  C   UNL     1       2.110   3.824  21.430  0.00  0.00    +0.000 C 
ATOM     22  C   UNL     1       1.559   2.673  20.593  0.00  0.00    +0.000 C 
ATOM     23  C   UNL     1       1.726   3.181  19.179  0.00  0.00    +0.000 C 
ATOM     24  O   UNL     1       1.691   2.503  18.162  0.00  0.00    +0.000 OA
ENDBRANCH  18  19
ENDBRANCH  17  18
ENDBRANCH  15  17
ENDBRANCH   1  15
TORSDOF 6
ENDMDL
MODEL 2
REMARK VINA RESULT:      -7.2      2.177      3.425
REMARK  Name = 
REMARK  7 active torsions:
REMARK  status: ('A' for Active; 'I' for Inactive)
REMARK    1  A    between atoms: C_1  and  C_2
REMARK    2  A    between atoms: C_2  and  C_3
REMARK    3  A    between atoms: C_2  and  C_17
REMARK    4  A    between atoms: C_3  and  N_4
REMARK    5  A    between atoms: C_5  and  C_7
REMARK    6  A    between atoms: C_7  and  C_8
REMARK    7  A    between atoms: C_17  and  N_18
REMARK                            x       y       z     vdW  Elec       q    Type
REMARK                         _______ _______ _______ _____ _____    ______ ____
ROOT
ATOM      1  N   UNL     1       1.773   8.446  18.042  0.00  0.00    +0.000 N 
ATOM      2  C   UNL     1       1.572   9.804  18.076  0.00  0.00    +0.000 C 
ATOM      3  O   UNL     1       2.333  10.635  17.601  0.00  0.00    +0.000 OA
ATOM      4  H   UNL     1       1.116   7.822  18.504  0.00  0.00    +0.000 HD
ENDROOT
BRANCH   2   5
ATOM      5  C   UNL     1       0.319  10.234  18.800  0.00  0.00    +0.000 C 
ATOM      6  C   UNL     1      -0.454  11.430  18.243  0.00  0.00    +0.000 C 
ATOM      7  C   UNL     1      -0.998  10.054  18.044  0.00  0.00    +0.000 C 
BRANCH   5   8
ATOM      8  C   UNL     1       0.296  10.026  20.312  0.00  0.00    +0.000 A 
ATOM      9  C   UNL     1      -0.481  10.851  21.148  0.00  0.00    +0.000 A 
ATOM     10  C   UNL     1      -0.578  10.611  22.520  0.00  0.00    +0.000 A 
ATOM     11  C   UNL     1       0.114   9.544  23.077  0.00  0.00    +0.000 A 
ATOM     12  F   UNL     1      -0.004   9.291  24.387  0.00  0.00    +0.000 F 
ATOM     13  C   UNL     1       0.923   8.734  22.293  0.00  0.00    +0.000 A 
ATOM     14  C   UNL     1       1.020   8.982  20.921  0.00  0.00    +0.000 A 
ENDBRANCH   5   8
ENDBRANCH   2   5
BRANCH   1  15
ATOM     15  C   UNL     1       2.968   7.857  17.479  0.00  0.00    +0.000 C 
BRANCH  15  17
ATOM     16  C   UNL     1       4.712   6.068  17.650  0.00  0.00    +0.000 C 
ATOM     17  C   UNL     1       3.334   6.517  18.141  0.00  0.00    +0.000 C 
BRANCH  17  18
ATOM     18  C   UNL     1       2.268   5.420  17.940  0.00  0.00    +0.000 C 
BRANCH  18  19
ATOM     19  N   UNL     1       1.930   4.692  19.152  0.00  0.00    +0.000 N 
ATOM     20  C   UNL     1       2.120   5.232  20.476  0.00  0.00    +0.000 C 
ATOM     21  C   UNL     1       2.122   3.989  21.341  0.00  0.00    +0.000 C 
ATOM     22  C   UNL     1       1.144   3.059  20.628  0.00  0.00    +0.000 C 
ATOM     23  C   UNL     1       1.311   3.452  19.178  0.00  0.00    +0.000 C 
ATOM     24  O   UNL     1       0.951   2.797  18.210  0.00  0.00    +0.000 OA
ENDBRANCH  18  19
ENDBRANCH  17  18
ENDBRANCH  15  17
ENDBRANCH   1  15
TORSDOF 6
ENDMDL
MODEL 3
REMARK VINA RESULT:      -7.2      4.537      7.795
REMARK  Name = 
REMARK  7 active torsions:
REMARK  status: ('A' for Active; 'I' for Inactive)
REMARK    1  A    between atoms: C_1  and  C_2
REMARK    2  A    between atoms: C_2  and  C_3
REMARK    3  A    between atoms: C_2  and  C_17
REMARK    4  A    between atoms: C_3  and  N_4
REMARK    5  A    between atoms: C_5  and  C_7
REMARK    6  A    between atoms: C_7  and  C_8
REMARK    7  A    between atoms: C_17  and  N_18
REMARK                            x       y       z     vdW  Elec       q    Type
REMARK                         _______ _______ _______ _____ _____    ______ ____
ROOT
ATOM      1  N   UNL     1       4.414   6.635  17.449  0.00  0.00    +0.000 N 
ATOM      2  C   UNL     1       5.062   6.525  16.242  0.00  0.00    +0.000 C 
ATOM      3  O   UNL     1       4.809   7.194  15.251  0.00  0.00    +0.000 OA
ATOM      4  H   UNL     1       4.650   6.006  18.213  0.00  0.00    +0.000 HD
ENDROOT
BRANCH   2   5
ATOM      5  C   UNL     1       6.125   5.456  16.198  0.00  0.00    +0.000 C 
ATOM      6  C   UNL     1       7.233   5.502  17.251  0.00  0.00    +0.000 C 
ATOM      7  C   UNL     1       6.155   4.475  17.371  0.00  0.00    +0.000 C 
BRANCH   5   8
ATOM      8  C   UNL     1       6.491   4.911  14.819  0.00  0.00    +0.000 A 
ATOM      9  C   UNL     1       5.711   3.914  14.201  0.00  0.00    +0.000 A 
ATOM     10  C   UNL     1       5.988   3.475  12.905  0.00  0.00    +0.000 A 
ATOM     11  C   UNL     1       7.059   4.021  12.212  0.00  0.00    +0.000 A 
ATOM     12  F   UNL     1       7.305   3.627  10.955  0.00  0.00    +0.000 F 
ATOM     13  C   UNL     1       7.875   4.976  12.802  0.00  0.00    +0.000 A 
ATOM     14  C   UNL     1       7.597   5.408  14.102  0.00  0.00    +0.000 A 
ENDBRANCH   5   8
ENDBRANCH   2   5
BRANCH   1  15
ATOM     15  C   UNL     1       3.301   7.536  17.647  0.00  0.00    +0.000 C 
BRANCH  15  17
ATOM     16  C   UNL     1       1.903   8.209  19.614  0.00  0.00    +0.000 C 
ATOM     17  C   UNL     1       2.321   7.037  18.723  0.00  0.00    +0.000 C 
BRANCH  17  18
ATOM     18  C   UNL     1       2.867   5.854  19.551  0.00  0.00    +0.000 C 
BRANCH  18  19
ATOM     19  N   UNL     1       2.066   4.644  19.457  0.00  0.00    +0.000 N 
ATOM     20  C   UNL     1       1.105   4.254  20.457  0.00  0.00    +0.000 C 
ATOM     21  C   UNL     1       0.934   2.773  20.190  0.00  0.00    +0.000 C 
ATOM     22  C   UNL     1       1.101   2.664  18.677  0.00  0.00    +0.000 C 
ATOM     23  C   UNL     1       2.066   3.785  18.368  0.00  0.00    +0.000 C 
ATOM     24  O   UNL     1       2.714   3.914  17.339  0.00  0.00    +0.000 OA
ENDBRANCH  18  19
ENDBRANCH  17  18
ENDBRANCH  15  17
ENDBRANCH   1  15
TORSDOF 6
ENDMDL
MODEL 4
REMARK VINA RESULT:      -7.2      4.045      6.996
REMARK  Name = 
REMARK  7 active torsions:
REMARK  status: ('A' for Active; 'I' for Inactive)
REMARK    1  A    between atoms: C_1  and  C_2
REMARK    2  A    between atoms: C_2  and  C_3
REMARK    3  A    between atoms: C_2  and  C_17
REMARK    4  A    between atoms: C_3  and  N_4
REMARK    5  A    between atoms: C_5  and  C_7
REMARK    6  A    between atoms: C_7  and  C_8
REMARK    7  A    between atoms: C_17  and  N_18
REMARK                            x       y       z     vdW  Elec       q    Type
REMARK                         _______ _______ _______ _____ _____    ______ ____
ROOT
ATOM      1  N   UNL     1       4.956   4.125  17.405  0.00  0.00    +0.000 N 
ATOM      2  C   UNL     1       4.399   3.917  18.643  0.00  0.00    +0.000 C 
ATOM      3  O   UNL     1       5.018   3.566  19.638  0.00  0.00    +0.000 OA
ATOM      4  H   UNL     1       4.364   4.369  16.614  0.00  0.00    +0.000 HD
ENDROOT
BRANCH   2   5
ATOM      5  C   UNL     1       2.905   4.121  18.701  0.00  0.00    +0.000 C 
ATOM      6  C   UNL     1       2.039   3.356  17.699  0.00  0.00    +0.000 C 
ATOM      7  C   UNL     1       2.069   2.912  19.125  0.00  0.00    +0.000 C 
BRANCH   5   8
ATOM      8  C   UNL     1       2.418   5.499  19.140  0.00  0.00    +0.000 A 
ATOM      9  C   UNL     1       1.883   5.706  20.426  0.00  0.00    +0.000 A 
ATOM     10  C   UNL     1       1.519   6.980  20.866  0.00  0.00    +0.000 A 
ATOM     11  C   UNL     1       1.674   8.067  20.017  0.00  0.00    +0.000 A 
ATOM     12  F   UNL     1       1.358   9.295  20.448  0.00  0.00    +0.000 F 
ATOM     13  C   UNL     1       2.159   7.897  18.727  0.00  0.00    +0.000 A 
ATOM     14  C   UNL     1       2.517   6.619  18.291  0.00  0.00    +0.000 A 
ENDBRANCH   5   8
ENDBRANCH   2   5
BRANCH   1  15
ATOM     15  C   UNL     1       6.356   3.880  17.138  0.00  0.00    +0.000 C 
BRANCH  15  17
ATOM     16  C   UNL     1       7.341   6.133  17.616  0.00  0.00    +0.000 C 
ATOM     17  C   UNL     1       7.061   5.101  16.522  0.00  0.00    +0.000 C 
BRANCH  17  18
ATOM     18  C   UNL     1       6.295   5.720  15.333  0.00  0.00    +0.000 C 
BRANCH  18  19
ATOM     19  N   UNL     1       6.428   4.976  14.091  0.00  0.00    +0.000 N 
ATOM     20  C   UNL     1       5.403   4.099  13.583  0.00  0.00    +0.000 C 
ATOM     21  C   UNL     1       6.171   3.217  12.620  0.00  0.00    +0.000 C 
ATOM     22  C   UNL     1       7.241   4.151  12.061  0.00  0.00    +0.000 C 
ATOM     23  C   UNL     1       7.499   5.090  13.217  0.00  0.00    +0.000 C 
ATOM     24  O   UNL     1       8.469   5.824  13.345  0.00  0.00    +0.000 OA
ENDBRANCH  18  19
ENDBRANCH  17  18
ENDBRANCH  15  17
ENDBRANCH   1  15
TORSDOF 6
ENDMDL
MODEL 5
REMARK VINA RESULT:      -7.2      3.628      6.062
REMARK  Name = 
REMARK  7 active torsions:
REMARK  status: ('A' for Active; 'I' for Inactive)
REMARK    1  A    between atoms: C_1  and  C_2
REMARK    2  A    between atoms: C_2  and  C_3
REMARK    3  A    between atoms: C_2  and  C_17
REMARK    4  A    between atoms: C_3  and  N_4
REMARK    5  A    between atoms: C_5  and  C_7
REMARK    6  A    between atoms: C_7  and  C_8
REMARK    7  A    between atoms: C_17  and  N_18
REMARK                            x       y       z     vdW  Elec       q    Type
REMARK                         _______ _______ _______ _____ _____    ______ ____
ROOT
ATOM      1  N   UNL     1       4.903   5.422  18.906  0.00  0.00    +0.000 N 
ATOM      2  C   UNL     1       3.949   4.505  19.275  0.00  0.00    +0.000 C 
ATOM      3  O   UNL     1       4.181   3.440  19.831  0.00  0.00    +0.000 OA
ATOM      4  H   UNL     1       4.633   6.263  18.403  0.00  0.00    +0.000 HD
ENDROOT
BRANCH   2   5
ATOM      5  C   UNL     1       2.537   4.888  18.907  0.00  0.00    +0.000 C 
ATOM      6  C   UNL     1       1.884   4.166  17.728  0.00  0.00    +0.000 C 
ATOM      7  C   UNL     1       1.465   3.817  19.118  0.00  0.00    +0.000 C 
BRANCH   5   8
ATOM      8  C   UNL     1       2.135   6.340  19.151  0.00  0.00    +0.000 A 
ATOM      9  C   UNL     1       1.731   6.779  20.426  0.00  0.00    +0.000 A 
ATOM     10  C   UNL     1       1.448   8.123  20.677  0.00  0.00    +0.000 A 
ATOM     11  C   UNL     1       1.555   9.047  19.647  0.00  0.00    +0.000 A 
ATOM     12  F   UNL     1       1.318  10.343  19.893  0.00  0.00    +0.000 F 
ATOM     13  C   UNL     1       1.911   8.647  18.367  0.00  0.00    +0.000 A 
ATOM     14  C   UNL     1       2.188   7.300  18.121  0.00  0.00    +0.000 A 
ENDBRANCH   5   8
ENDBRANCH   2   5
BRANCH   1  15
ATOM     15  C   UNL     1       6.317   5.179  19.088  0.00  0.00    +0.000 C 
BRANCH  15  17
ATOM     16  C   UNL     1       8.017   6.945  18.573  0.00  0.00    +0.000 C 
ATOM     17  C   UNL     1       7.173   5.815  17.979  0.00  0.00    +0.000 C 
BRANCH  17  18
ATOM     18  C   UNL     1       6.350   6.292  16.764  0.00  0.00    +0.000 C 
BRANCH  18  19
ATOM     19  N   UNL     1       6.140   5.270  15.752  0.00  0.00    +0.000 N 
ATOM     20  C   UNL     1       4.965   4.437  15.703  0.00  0.00    +0.000 C 
ATOM     21  C   UNL     1       5.426   3.265  14.861  0.00  0.00    +0.000 C 
ATOM     22  C   UNL     1       6.405   3.899  13.877  0.00  0.00    +0.000 C 
ATOM     23  C   UNL     1       6.988   5.040  14.679  0.00  0.00    +0.000 C 
ATOM     24  O   UNL     1       8.013   5.654  14.416  0.00  0.00    +0.000 OA
ENDBRANCH  18  19
ENDBRANCH  17  18
ENDBRANCH  15  17
ENDBRANCH   1  15
TORSDOF 6
ENDMDL
MODEL 6
REMARK VINA RESULT:      -7.2      3.318      7.644
REMARK  Name = 
REMARK  7 active torsions:
REMARK  status: ('A' for Active; 'I' for Inactive)
REMARK    1  A    between atoms: C_1  and  C_2
REMARK    2  A    between atoms: C_2  and  C_3
REMARK    3  A    between atoms: C_2  and  C_17
REMARK    4  A    between atoms: C_3  and  N_4
REMARK    5  A    between atoms: C_5  and  C_7
REMARK    6  A    between atoms: C_7  and  C_8
REMARK    7  A    between atoms: C_17  and  N_18
REMARK                            x       y       z     vdW  Elec       q    Type
REMARK                         _______ _______ _______ _____ _____    ______ ____
ROOT
ATOM      1  N   UNL     1       4.209   6.727  17.462  0.00  0.00    +0.000 N 
ATOM      2  C   UNL     1       4.892   6.163  16.412  0.00  0.00    +0.000 C 
ATOM      3  O   UNL     1       5.179   6.742  15.373  0.00  0.00    +0.000 OA
ATOM      4  H   UNL     1       3.965   6.164  18.272  0.00  0.00    +0.000 HD
ENDROOT
BRANCH   2   5
ATOM      5  C   UNL     1       5.253   4.711  16.607  0.00  0.00    +0.000 C 
ATOM      6  C   UNL     1       5.928   3.978  15.446  0.00  0.00    +0.000 C 
ATOM      7  C   UNL     1       6.745   4.378  16.630  0.00  0.00    +0.000 C 
BRANCH   5   8
ATOM      8  C   UNL     1       4.337   3.894  17.514  0.00  0.00    +0.000 A 
ATOM      9  C   UNL     1       4.675   3.650  18.859  0.00  0.00    +0.000 A 
ATOM     10  C   UNL     1       3.802   2.981  19.719  0.00  0.00    +0.000 A 
ATOM     11  C   UNL     1       2.579   2.534  19.239  0.00  0.00    +0.000 A 
ATOM     12  F   UNL     1       1.725   1.922  20.070  0.00  0.00    +0.000 F 
ATOM     13  C   UNL     1       2.227   2.719  17.909  0.00  0.00    +0.000 A 
ATOM     14  C   UNL     1       3.107   3.386  17.052  0.00  0.00    +0.000 A 
ENDBRANCH   5   8
ENDBRANCH   2   5
BRANCH   1  15
ATOM     15  C   UNL     1       3.696   8.078  17.411  0.00  0.00    +0.000 C 
BRANCH  15  17
ATOM     16  C   UNL     1       2.149   6.968  19.038  0.00  0.00    +0.000 C 
ATOM     17  C   UNL     1       2.492   8.288  18.345  0.00  0.00    +0.000 C 
BRANCH  17  18
ATOM     18  C   UNL     1       1.264   8.900  17.637  0.00  0.00    +0.000 C 
BRANCH  18  19
ATOM     19  N   UNL     1       0.470   9.778  18.481  0.00  0.00    +0.000 N 
ATOM     20  C   UNL     1       0.979  10.390  19.683  0.00  0.00    +0.000 C 
ATOM     21  C   UNL     1      -0.288  10.750  20.432  0.00  0.00    +0.000 C 
ATOM     22  C   UNL     1      -1.273  11.091  19.317  0.00  0.00    +0.000 C 
ATOM     23  C   UNL     1      -0.820  10.196  18.187  0.00  0.00    +0.000 C 
ATOM     24  O   UNL     1      -1.469   9.908  17.192  0.00  0.00    +0.000 OA
ENDBRANCH  18  19
ENDBRANCH  17  18
ENDBRANCH  15  17
ENDBRANCH   1  15
TORSDOF 6
ENDMDL
MODEL 7
REMARK VINA RESULT:      -7.2      3.993      6.819
REMARK  Name = 
REMARK  7 active torsions:
REMARK  status: ('A' for Active; 'I' for Inactive)
REMARK    1  A    between atoms: C_1  and  C_2
REMARK    2  A    between atoms: C_2  and  C_3
REMARK    3  A    between atoms: C_2  and  C_17
REMARK    4  A    between atoms: C_3  and  N_4
REMARK    5  A    between atoms: C_5  and  C_7
REMARK    6  A    between atoms: C_7  and  C_8
REMARK    7  A    between atoms: C_17  and  N_18
REMARK                            x       y       z     vdW  Elec       q    Type
REMARK                         _______ _______ _______ _____ _____    ______ ____
ROOT
ATOM      1  N   UNL     1       4.850   4.424  17.602  0.00  0.00    +0.000 N 
ATOM      2  C   UNL     1       4.222   4.028  18.758  0.00  0.00    +0.000 C 
ATOM      3  O   UNL     1       4.762   3.420  19.672  0.00  0.00    +0.000 OA
ATOM      4  H   UNL     1       4.319   4.883  16.865  0.00  0.00    +0.000 HD
ENDROOT
BRANCH   2   5
ATOM      5  C   UNL     1       2.754   4.367  18.822  0.00  0.00    +0.000 C 
ATOM      6  C   UNL     1       1.811   3.658  17.849  0.00  0.00    +0.000 C 
ATOM      7  C   UNL     1       1.817   3.250  19.285  0.00  0.00    +0.000 C 
BRANCH   5   8
ATOM      8  C   UNL     1       2.398   5.795  19.227  0.00  0.00    +0.000 A 
ATOM      9  C   UNL     1       2.546   6.866  18.325  0.00  0.00    +0.000 A 
ATOM     10  C   UNL     1       2.139   8.159  18.658  0.00  0.00    +0.000 A 
ATOM     11  C   UNL     1       1.587   8.401  19.908  0.00  0.00    +0.000 A 
ATOM     12  F   UNL     1       1.165   9.634  20.218  0.00  0.00    +0.000 F 
ATOM     13  C   UNL     1       1.463   7.380  20.840  0.00  0.00    +0.000 A 
ATOM     14  C   UNL     1       1.876   6.089  20.503  0.00  0.00    +0.000 A 
ENDBRANCH   5   8
ENDBRANCH   2   5
BRANCH   1  15
ATOM     15  C   UNL     1       6.231   4.097  17.323  0.00  0.00    +0.000 C 
BRANCH  15  17
ATOM     16  C   UNL     1       7.376   6.324  17.319  0.00  0.00    +0.000 C 
ATOM     17  C   UNL     1       6.922   5.154  16.444  0.00  0.00    +0.000 C 
BRANCH  17  18
ATOM     18  C   UNL     1       6.058   5.628  15.256  0.00  0.00    +0.000 C 
BRANCH  18  19
ATOM     19  N   UNL     1       6.298   4.900  14.021  0.00  0.00    +0.000 N 
ATOM     20  C   UNL     1       5.329   4.015  13.425  0.00  0.00    +0.000 C 
ATOM     21  C   UNL     1       6.183   3.154  12.517  0.00  0.00    +0.000 C 
ATOM     22  C   UNL     1       7.280   4.108  12.053  0.00  0.00    +0.000 C 
ATOM     23  C   UNL     1       7.433   5.038  13.235  0.00  0.00    +0.000 C 
ATOM     24  O   UNL     1       8.379   5.784  13.447  0.00  0.00    +0.000 OA
ENDBRANCH  18  19
ENDBRANCH  17  18
ENDBRANCH  15  17
ENDBRANCH   1  15
TORSDOF 6
ENDMDL
MODEL 8
REMARK VINA RESULT:      -7.2      3.855      6.461
REMARK  Name = 
REMARK  7 active torsions:
REMARK  status: ('A' for Active; 'I' for Inactive)
REMARK    1  A    between atoms: C_1  and  C_2
REMARK    2  A    between atoms: C_2  and  C_3
REMARK    3  A    between atoms: C_2  and  C_17
REMARK    4  A    between atoms: C_3  and  N_4
REMARK    5  A    between atoms: C_5  and  C_7
REMARK    6  A    between atoms: C_7  and  C_8
REMARK    7  A    between atoms: C_17  and  N_18
REMARK                            x       y       z     vdW  Elec       q    Type
REMARK                         _______ _______ _______ _____ _____    ______ ____
ROOT
ATOM      1  N   UNL     1       4.002   4.453  18.043  0.00  0.00    +0.000 N 
ATOM      2  C   UNL     1       2.635   4.406  18.169  0.00  0.00    +0.000 C 
ATOM      3  O   UNL     1       1.868   4.007  17.304  0.00  0.00    +0.000 OA
ATOM      4  H   UNL     1       4.569   4.846  18.791  0.00  0.00    +0.000 HD
ENDROOT
BRANCH   2   5
ATOM      5  C   UNL     1       2.107   4.933  19.480  0.00  0.00    +0.000 C 
ATOM      6  C   UNL     1       1.123   4.060  20.259  0.00  0.00    +0.000 C 
ATOM      7  C   UNL     1       2.532   4.174  20.739  0.00  0.00    +0.000 C 
BRANCH   5   8
ATOM      8  C   UNL     1       1.945   6.446  19.595  0.00  0.00    +0.000 A 
ATOM      9  C   UNL     1       2.282   7.297  18.524  0.00  0.00    +0.000 A 
ATOM     10  C   UNL     1       2.054   8.673  18.589  0.00  0.00    +0.000 A 
ATOM     11  C   UNL     1       1.492   9.219  19.735  0.00  0.00    +0.000 A 
ATOM     12  F   UNL     1       1.239  10.534  19.786  0.00  0.00    +0.000 F 
ATOM     13  C   UNL     1       1.184   8.419  20.826  0.00  0.00    +0.000 A 
ATOM     14  C   UNL     1       1.420   7.044  20.758  0.00  0.00    +0.000 A 
ENDBRANCH   5   8
ENDBRANCH   2   5
BRANCH   1  15
ATOM     15  C   UNL     1       4.678   4.084  16.819  0.00  0.00    +0.000 C 
BRANCH  15  17
ATOM     16  C   UNL     1       5.171   6.204  15.580  0.00  0.00    +0.000 C 
ATOM     17  C   UNL     1       5.779   5.083  16.427  0.00  0.00    +0.000 C 
BRANCH  17  18
ATOM     18  C   UNL     1       6.986   4.426  15.725  0.00  0.00    +0.000 C 
BRANCH  18  19
ATOM     19  N   UNL     1       6.872   4.371  14.276  0.00  0.00    +0.000 N 
ATOM     20  C   UNL     1       5.839   3.632  13.593  0.00  0.00    +0.000 C 
ATOM     21  C   UNL     1       6.420   3.460  12.205  0.00  0.00    +0.000 C 
ATOM     22  C   UNL     1       7.223   4.742  11.996  0.00  0.00    +0.000 C 
ATOM     23  C   UNL     1       7.673   5.084  13.397  0.00  0.00    +0.000 C 
ATOM     24  O   UNL     1       8.570   5.860  13.696  0.00  0.00    +0.000 OA
ENDBRANCH  18  19
ENDBRANCH  17  18
ENDBRANCH  15  17
ENDBRANCH   1  15
TORSDOF 6
ENDMDL
MODEL 9
REMARK VINA RESULT:      -7.2      3.589      6.098
REMARK  Name = 
REMARK  7 active torsions:
REMARK  status: ('A' for Active; 'I' for Inactive)
REMARK    1  A    between atoms: C_1  and  C_2
REMARK    2  A    between atoms: C_2  and  C_3
REMARK    3  A    between atoms: C_2  and  C_17
REMARK    4  A    between atoms: C_3  and  N_4
REMARK    5  A    between atoms: C_5  and  C_7
REMARK    6  A    between atoms: C_7  and  C_8
REMARK    7  A    between atoms: C_17  and  N_18
REMARK                            x       y       z     vdW  Elec       q    Type
REMARK                         _______ _______ _______ _____ _____    ______ ____
ROOT
ATOM      1  N   UNL     1       3.794   4.083  17.942  0.00  0.00    +0.000 N 
ATOM      2  C   UNL     1       2.500   3.820  18.323  0.00  0.00    +0.000 C 
ATOM      3  O   UNL     1       1.725   3.098  17.711  0.00  0.00    +0.000 OA
ATOM      4  H   UNL     1       4.360   4.736  18.479  0.00  0.00    +0.000 HD
ENDROOT
BRANCH   2   5
ATOM      5  C   UNL     1       2.057   4.536  19.574  0.00  0.00    +0.000 C 
ATOM      6  C   UNL     1       1.134   3.790  20.538  0.00  0.00    +0.000 C 
ATOM      7  C   UNL     1       2.572   3.972  20.899  0.00  0.00    +0.000 C 
BRANCH   5   8
ATOM      8  C   UNL     1       1.890   6.050  19.474  0.00  0.00    +0.000 A 
ATOM      9  C   UNL     1       1.451   6.808  20.578  0.00  0.00    +0.000 A 
ATOM     10  C   UNL     1       1.381   8.201  20.521  0.00  0.00    +0.000 A 
ATOM     11  C   UNL     1       1.740   8.857  19.351  0.00  0.00    +0.000 A 
ATOM     12  F   UNL     1       1.707  10.195  19.306  0.00  0.00    +0.000 F 
ATOM     13  C   UNL     1       2.137   8.142  18.230  0.00  0.00    +0.000 A 
ATOM     14  C   UNL     1       2.201   6.748  18.290  0.00  0.00    +0.000 A 
ENDBRANCH   5   8
ENDBRANCH   2   5
BRANCH   1  15
ATOM     15  C   UNL     1       4.357   3.564  16.716  0.00  0.00    +0.000 C 
BRANCH  15  17
ATOM     16  C   UNL     1       5.988   3.891  14.843  0.00  0.00    +0.000 C 
ATOM     17  C   UNL     1       5.568   4.381  16.231  0.00  0.00    +0.000 C 
BRANCH  17  18
ATOM     18  C   UNL     1       6.751   4.376  17.222  0.00  0.00    +0.000 C 
BRANCH  18  19
ATOM     19  N   UNL     1       7.169   5.700  17.652  0.00  0.00    +0.000 N 
ATOM     20  C   UNL     1       6.712   6.915  17.025  0.00  0.00    +0.000 C 
ATOM     21  C   UNL     1       7.763   7.920  17.449  0.00  0.00    +0.000 C 
ATOM     22  C   UNL     1       8.163   7.448  18.844  0.00  0.00    +0.000 C 
ATOM     23  C   UNL     1       7.972   5.951  18.755  0.00  0.00    +0.000 C 
ATOM     24  O   UNL     1       8.432   5.120  19.525  0.00  0.00    +0.000 OA
ENDBRANCH  18  19
ENDBRANCH  17  18
ENDBRANCH  15  17
ENDBRANCH   1  15
TORSDOF 6
ENDMDL
