MODEL 1
REMARK VINA RESULT:      -7.7      0.000      0.000
REMARK  Name = 
REMARK  4 active torsions:
REMARK  status: ('A' for Active; 'I' for Inactive)
REMARK    1  A    between atoms: C_2  and  C_3
REMARK    2  A    between atoms: C_8  and  N_9
REMARK    3  A    between atoms: N_9  and  C_10
REMARK    4  A    between atoms: C_18  and  O_19
REMARK                            x       y       z     vdW  Elec       q    Type
REMARK                         _______ _______ _______ _____ _____    ______ ____
ROOT
ATOM      1  C   UNL     1       3.752   4.619  17.734  0.00  0.00    +0.000 C 
ATOM      2  C   UNL     1       2.661   3.872  18.487  0.00  0.00    +0.000 A 
ATOM      3  C   UNL     1       2.092   2.631  18.221  0.00  0.00    +0.000 A 
ATOM      4  C   UNL     1       1.021   2.193  19.011  0.00  0.00    +0.000 A 
ATOM      5  C   UNL     1       0.516   2.995  20.046  0.00  0.00    +0.000 A 
ATOM      6  C   UNL     1       1.076   4.246  20.303  0.00  0.00    +0.000 A 
ATOM      7  C   UNL     1       2.143   4.667  19.521  0.00  0.00    +0.000 A 
ATOM      8  C   UNL     1       2.845   5.994  19.584  0.00  0.00    +0.000 C 
ATOM      9  C   UNL     1       4.137   5.708  18.791  0.00  0.00    +0.000 C 
ENDROOT
BRANCH   1  10
ATOM     10  N   UNL     1       4.833   3.713  17.329  0.00  0.00    +0.000 N 
ATOM     11  H   UNL     1       4.454   2.779  17.179  0.00  0.00    +0.000 HD
BRANCH  10  17
ATOM     12  C   UNL     1       6.902   4.568  16.304  0.00  0.00    +0.000 A 
ATOM     13  N   UNL     1       7.680   4.927  15.239  0.00  0.00    +0.000 NA
ATOM     14  C   UNL     1       7.097   4.807  14.033  0.00  0.00    +0.000 A 
ATOM     15  C   UNL     1       5.804   4.339  13.896  0.00  0.00    +0.000 A 
ATOM     16  N   UNL     1       5.038   3.949  14.952  0.00  0.00    +0.000 NA
ATOM     17  C   UNL     1       5.585   4.061  16.185  0.00  0.00    +0.000 A 
BRANCH  12  19
ATOM     18  N   UNL     1       8.019   4.760  18.630  0.00  0.00    +0.000 NA
ATOM     19  C   UNL     1       7.536   4.693  17.581  0.00  0.00    +0.000 C 
ENDBRANCH  12  19
ENDBRANCH  10  17
ENDBRANCH   1  10
BRANCH   9  20
ATOM     20  O   UNL     1       5.161   5.306  19.717  0.00  0.00    +0.000 OA
ATOM     21  H   UNL     1       5.373   4.377  19.523  0.00  0.00    +0.000 HD
ENDBRANCH   9  20
TORSDOF 4
ENDMDL
MODEL 2
REMARK VINA RESULT:      -7.4      1.445      1.638
REMARK  Name = 
REMARK  4 active torsions:
REMARK  status: ('A' for Active; 'I' for Inactive)
REMARK    1  A    between atoms: C_2  and  C_3
REMARK    2  A    between atoms: C_8  and  N_9
REMARK    3  A    between atoms: N_9  and  C_10
REMARK    4  A    between atoms: C_18  and  O_19
REMARK                            x       y       z     vdW  Elec       q    Type
REMARK                         _______ _______ _______ _____ _____    ______ ____
ROOT
ATOM      1  C   UNL     1       3.780   3.431  17.892  0.00  0.00    +0.000 C 
ATOM      2  C   UNL     1       3.183   3.226  19.276  0.00  0.00    +0.000 A 
ATOM      3  C   UNL     1       3.693   2.530  20.367  0.00  0.00    +0.000 A 
ATOM      4  C   UNL     1       2.905   2.400  21.516  0.00  0.00    +0.000 A 
ATOM      5  C   UNL     1       1.614   2.949  21.569  0.00  0.00    +0.000 A 
ATOM      6  C   UNL     1       1.096   3.634  20.470  0.00  0.00    +0.000 A 
ATOM      7  C   UNL     1       1.889   3.766  19.339  0.00  0.00    +0.000 A 
ATOM      8  C   UNL     1       1.506   4.402  18.033  0.00  0.00    +0.000 C 
ATOM      9  C   UNL     1       2.879   4.595  17.359  0.00  0.00    +0.000 C 
ENDROOT
BRANCH   1  10
ATOM     10  N   UNL     1       5.216   3.719  17.970  0.00  0.00    +0.000 N 
ATOM     11  H   UNL     1       5.703   2.912  18.354  0.00  0.00    +0.000 HD
BRANCH  10  17
ATOM     12  C   UNL     1       6.897   5.073  16.784  0.00  0.00    +0.000 A 
ATOM     13  N   UNL     1       7.569   5.482  15.666  0.00  0.00    +0.000 NA
ATOM     14  C   UNL     1       7.170   4.915  14.514  0.00  0.00    +0.000 A 
ATOM     15  C   UNL     1       6.157   3.976  14.481  0.00  0.00    +0.000 A 
ATOM     16  N   UNL     1       5.508   3.541  15.597  0.00  0.00    +0.000 NA
ATOM     17  C   UNL     1       5.875   4.094  16.777  0.00  0.00    +0.000 A 
BRANCH  12  19
ATOM     18  N   UNL     1       7.701   6.124  19.008  0.00  0.00    +0.000 NA
ATOM     19  C   UNL     1       7.336   5.679  18.004  0.00  0.00    +0.000 C 
ENDBRANCH  12  19
ENDBRANCH  10  17
ENDBRANCH   1  10
BRANCH   9  20
ATOM     20  O   UNL     1       3.360   5.914  17.673  0.00  0.00    +0.000 OA
ATOM     21  H   UNL     1       3.487   6.380  16.829  0.00  0.00    +0.000 HD
ENDBRANCH   9  20
TORSDOF 4
ENDMDL
MODEL 3
REMARK VINA RESULT:      -7.0      1.953      3.148
REMARK  Name = 
REMARK  4 active torsions:
REMARK  status: ('A' for Active; 'I' for Inactive)
REMARK    1  A    between atoms: C_2  and  C_3
REMARK    2  A    between atoms: C_8  and  N_9
REMARK    3  A    between atoms: N_9  and  C_10
REMARK    4  A    between atoms: C_18  and  O_19
REMARK                            x       y       z     vdW  Elec       q    Type
REMARK                         _______ _______ _______ _____ _____    ______ ____
ROOT
ATOM      1  C   UNL     1       4.744   3.653  19.500  0.00  0.00    +0.000 C 
ATOM      2  C   UNL     1       3.327   3.596  18.950  0.00  0.00    +0.000 A 
ATOM      3  C   UNL     1       2.774   4.256  17.858  0.00  0.00    +0.000 A 
ATOM      4  C   UNL     1       1.403   4.116  17.606  0.00  0.00    +0.000 A 
ATOM      5  C   UNL     1       0.593   3.335  18.445  0.00  0.00    +0.000 A 
ATOM      6  C   UNL     1       1.145   2.685  19.548  0.00  0.00    +0.000 A 
ATOM      7  C   UNL     1       2.506   2.823  19.785  0.00  0.00    +0.000 A 
ATOM      8  C   UNL     1       3.284   2.268  20.943  0.00  0.00    +0.000 C 
ATOM      9  C   UNL     1       4.738   2.404  20.444  0.00  0.00    +0.000 C 
ENDROOT
BRANCH   1  10
ATOM     10  N   UNL     1       5.735   3.629  18.418  0.00  0.00    +0.000 N 
ATOM     11  H   UNL     1       5.280   3.359  17.548  0.00  0.00    +0.000 HD
BRANCH  10  17
ATOM     12  C   UNL     1       6.555   5.360  16.869  0.00  0.00    +0.000 A 
ATOM     13  N   UNL     1       7.248   6.498  16.565  0.00  0.00    +0.000 NA
ATOM     14  C   UNL     1       7.896   7.071  17.595  0.00  0.00    +0.000 A 
ATOM     15  C   UNL     1       7.843   6.540  18.870  0.00  0.00    +0.000 A 
ATOM     16  N   UNL     1       7.126   5.426  19.183  0.00  0.00    +0.000 NA
ATOM     17  C   UNL     1       6.466   4.814  18.172  0.00  0.00    +0.000 A 
BRANCH  12  19
ATOM     18  N   UNL     1       5.348   4.281  14.850  0.00  0.00    +0.000 NA
ATOM     19  C   UNL     1       5.864   4.764  15.766  0.00  0.00    +0.000 C 
ENDBRANCH  12  19
ENDBRANCH  10  17
ENDBRANCH   1  10
BRANCH   9  20
ATOM     20  O   UNL     1       5.119   1.172  19.808  0.00  0.00    +0.000 OA
ATOM     21  H   UNL     1       5.559   0.627  20.483  0.00  0.00    +0.000 HD
ENDBRANCH   9  20
TORSDOF 4
ENDMDL
MODEL 4
REMARK VINA RESULT:      -6.9      2.430      5.650
REMARK  Name = 
REMARK  4 active torsions:
REMARK  status: ('A' for Active; 'I' for Inactive)
REMARK    1  A    between atoms: C_2  and  C_3
REMARK    2  A    between atoms: C_8  and  N_9
REMARK    3  A    between atoms: N_9  and  C_10
REMARK    4  A    between atoms: C_18  and  O_19
REMARK                            x       y       z     vdW  Elec       q    Type
REMARK                         _______ _______ _______ _____ _____    ______ ____
ROOT
ATOM      1  C   UNL     1       4.639   4.255  16.963  0.00  0.00    +0.000 C 
ATOM      2  C   UNL     1       5.764   4.931  17.732  0.00  0.00    +0.000 A 
ATOM      3  C   UNL     1       5.957   5.044  19.104  0.00  0.00    +0.000 A 
ATOM      4  C   UNL     1       7.032   5.807  19.577  0.00  0.00    +0.000 A 
ATOM      5  C   UNL     1       7.897   6.461  18.686  0.00  0.00    +0.000 A 
ATOM      6  C   UNL     1       7.695   6.360  17.309  0.00  0.00    +0.000 A 
ATOM      7  C   UNL     1       6.632   5.594  16.850  0.00  0.00    +0.000 A 
ATOM      8  C   UNL     1       6.200   5.407  15.424  0.00  0.00    +0.000 C 
ATOM      9  C   UNL     1       5.269   4.182  15.532  0.00  0.00    +0.000 C 
ENDROOT
BRANCH   1  10
ATOM     10  N   UNL     1       4.280   2.968  17.569  0.00  0.00    +0.000 N 
ATOM     11  H   UNL     1       5.031   2.664  18.187  0.00  0.00    +0.000 HD
BRANCH  10  17
ATOM     12  C   UNL     1       3.045   2.430  19.631  0.00  0.00    +0.000 A 
ATOM     13  N   UNL     1       1.909   2.336  20.385  0.00  0.00    +0.000 NA
ATOM     14  C   UNL     1       0.771   2.687  19.759  0.00  0.00    +0.000 A 
ATOM     15  C   UNL     1       0.770   3.124  18.448  0.00  0.00    +0.000 A 
ATOM     16  N   UNL     1       1.903   3.251  17.705  0.00  0.00    +0.000 NA
ATOM     17  C   UNL     1       3.069   2.899  18.296  0.00  0.00    +0.000 A 
BRANCH  12  19
ATOM     18  N   UNL     1       5.198   1.759  20.901  0.00  0.00    +0.000 NA
ATOM     19  C   UNL     1       4.249   2.060  20.310  0.00  0.00    +0.000 C 
ENDBRANCH  12  19
ENDBRANCH  10  17
ENDBRANCH   1  10
BRANCH   9  20
ATOM     20  O   UNL     1       6.045   2.997  15.281  0.00  0.00    +0.000 OA
ATOM     21  H   UNL     1       5.876   2.384  16.017  0.00  0.00    +0.000 HD
ENDBRANCH   9  20
TORSDOF 4
ENDMDL
MODEL 5
REMARK VINA RESULT:      -6.7      1.782      3.379
REMARK  Name = 
REMARK  4 active torsions:
REMARK  status: ('A' for Active; 'I' for Inactive)
REMARK    1  A    between atoms: C_2  and  C_3
REMARK    2  A    between atoms: C_8  and  N_9
REMARK    3  A    between atoms: N_9  and  C_10
REMARK    4  A    between atoms: C_18  and  O_19
REMARK                            x       y       z     vdW  Elec       q    Type
REMARK                         _______ _______ _______ _____ _____    ______ ____
ROOT
ATOM      1  C   UNL     1       4.380   3.172  19.119  0.00  0.00    +0.000 C 
ATOM      2  C   UNL     1       3.333   4.207  19.503  0.00  0.00    +0.000 A 
ATOM      3  C   UNL     1       3.414   5.596  19.495  0.00  0.00    +0.000 A 
ATOM      4  C   UNL     1       2.337   6.340  19.991  0.00  0.00    +0.000 A 
ATOM      5  C   UNL     1       1.197   5.702  20.503  0.00  0.00    +0.000 A 
ATOM      6  C   UNL     1       1.120   4.310  20.525  0.00  0.00    +0.000 A 
ATOM      7  C   UNL     1       2.189   3.580  20.022  0.00  0.00    +0.000 A 
ATOM      8  C   UNL     1       2.341   2.086  20.011  0.00  0.00    +0.000 C 
ATOM      9  C   UNL     1       3.489   1.891  19.000  0.00  0.00    +0.000 C 
ENDROOT
BRANCH   1  10
ATOM     10  N   UNL     1       5.095   3.568  17.901  0.00  0.00    +0.000 N 
ATOM     11  H   UNL     1       4.422   3.837  17.185  0.00  0.00    +0.000 HD
BRANCH  10  17
ATOM     12  C   UNL     1       6.460   5.340  16.870  0.00  0.00    +0.000 A 
ATOM     13  N   UNL     1       7.380   6.350  16.906  0.00  0.00    +0.000 NA
ATOM     14  C   UNL     1       7.921   6.595  18.112  0.00  0.00    +0.000 A 
ATOM     15  C   UNL     1       7.552   5.873  19.232  0.00  0.00    +0.000 A 
ATOM     16  N   UNL     1       6.612   4.888  19.206  0.00  0.00    +0.000 NA
ATOM     17  C   UNL     1       6.049   4.606  18.008  0.00  0.00    +0.000 A 
BRANCH  12  19
ATOM     18  N   UNL     1       5.459   4.866  14.531  0.00  0.00    +0.000 NA
ATOM     19  C   UNL     1       5.887   5.095  15.581  0.00  0.00    +0.000 C 
ENDBRANCH  12  19
ENDBRANCH  10  17
ENDBRANCH   1  10
BRANCH   9  20
ATOM     20  O   UNL     1       2.917   1.679  17.697  0.00  0.00    +0.000 OA
ATOM     21  H   UNL     1       3.626   1.825  17.047  0.00  0.00    +0.000 HD
ENDBRANCH   9  20
TORSDOF 4
ENDMDL
MODEL 6
REMARK VINA RESULT:      -6.6      1.067      1.135
REMARK  Name = 
REMARK  4 active torsions:
REMARK  status: ('A' for Active; 'I' for Inactive)
REMARK    1  A    between atoms: C_2  and  C_3
REMARK    2  A    between atoms: C_8  and  N_9
REMARK    3  A    between atoms: N_9  and  C_10
REMARK    4  A    between atoms: C_18  and  O_19
REMARK                            x       y       z     vdW  Elec       q    Type
REMARK                         _______ _______ _______ _____ _____    ______ ____
ROOT
ATOM      1  C   UNL     1       3.726   5.099  17.707  0.00  0.00    +0.000 C 
ATOM      2  C   UNL     1       2.836   3.941  18.133  0.00  0.00    +0.000 A 
ATOM      3  C   UNL     1       2.887   2.602  17.762  0.00  0.00    +0.000 A 
ATOM      4  C   UNL     1       1.887   1.734  18.217  0.00  0.00    +0.000 A 
ATOM      5  C   UNL     1       0.838   2.205  19.023  0.00  0.00    +0.000 A 
ATOM      6  C   UNL     1       0.778   3.551  19.383  0.00  0.00    +0.000 A 
ATOM      7  C   UNL     1       1.780   4.401  18.934  0.00  0.00    +0.000 A 
ATOM      8  C   UNL     1       1.870   5.885  19.147  0.00  0.00    +0.000 C 
ATOM      9  C   UNL     1       3.343   6.168  18.785  0.00  0.00    +0.000 C 
ENDROOT
BRANCH   1  10
ATOM     10  N   UNL     1       5.138   4.701  17.677  0.00  0.00    +0.000 N 
ATOM     11  H   UNL     1       5.237   3.776  18.091  0.00  0.00    +0.000 HD
BRANCH  10  17
ATOM     12  C   UNL     1       6.857   5.568  16.142  0.00  0.00    +0.000 A 
ATOM     13  N   UNL     1       7.523   5.605  14.949  0.00  0.00    +0.000 NA
ATOM     14  C   UNL     1       7.069   4.757  14.009  0.00  0.00    +0.000 A 
ATOM     15  C   UNL     1       6.010   3.903  14.253  0.00  0.00    +0.000 A 
ATOM     16  N   UNL     1       5.366   3.840  15.451  0.00  0.00    +0.000 NA
ATOM     17  C   UNL     1       5.787   4.684  16.422  0.00  0.00    +0.000 A 
BRANCH  12  19
ATOM     18  N   UNL     1       7.742   7.236  17.912  0.00  0.00    +0.000 NA
ATOM     19  C   UNL     1       7.354   6.470  17.136  0.00  0.00    +0.000 C 
ENDBRANCH  12  19
ENDBRANCH  10  17
ENDBRANCH   1  10
BRANCH   9  20
ATOM     20  O   UNL     1       4.128   6.112  19.988  0.00  0.00    +0.000 OA
ATOM     21  H   UNL     1       3.519   6.250  20.733  0.00  0.00    +0.000 HD
ENDBRANCH   9  20
TORSDOF 4
ENDMDL
MODEL 7
REMARK VINA RESULT:      -6.5      1.884      2.095
REMARK  Name = 
REMARK  4 active torsions:
REMARK  status: ('A' for Active; 'I' for Inactive)
REMARK    1  A    between atoms: C_2  and  C_3
REMARK    2  A    between atoms: C_8  and  N_9
REMARK    3  A    between atoms: N_9  and  C_10
REMARK    4  A    between atoms: C_18  and  O_19
REMARK                            x       y       z     vdW  Elec       q    Type
REMARK                         _______ _______ _______ _____ _____    ______ ____
ROOT
ATOM      1  C   UNL     1       3.246   5.345  18.659  0.00  0.00    +0.000 C 
ATOM      2  C   UNL     1       3.398   4.173  19.617  0.00  0.00    +0.000 A 
ATOM      3  C   UNL     1       4.396   3.206  19.682  0.00  0.00    +0.000 A 
ATOM      4  C   UNL     1       4.264   2.158  20.601  0.00  0.00    +0.000 A 
ATOM      5  C   UNL     1       3.139   2.070  21.436  0.00  0.00    +0.000 A 
ATOM      6  C   UNL     1       2.131   3.030  21.360  0.00  0.00    +0.000 A 
ATOM      7  C   UNL     1       2.275   4.071  20.452  0.00  0.00    +0.000 A 
ATOM      8  C   UNL     1       1.287   5.165  20.163  0.00  0.00    +0.000 C 
ATOM      9  C   UNL     1       2.158   6.187  19.405  0.00  0.00    +0.000 C 
ENDROOT
BRANCH   1  10
ATOM     10  N   UNL     1       4.531   6.017  18.434  0.00  0.00    +0.000 N 
ATOM     11  H   UNL     1       5.080   5.993  19.292  0.00  0.00    +0.000 HD
BRANCH  10  17
ATOM     12  C   UNL     1       6.709   5.221  17.606  0.00  0.00    +0.000 A 
ATOM     13  N   UNL     1       7.552   4.757  16.635  0.00  0.00    +0.000 NA
ATOM     14  C   UNL     1       7.013   4.650  15.408  0.00  0.00    +0.000 A 
ATOM     15  C   UNL     1       5.692   4.977  15.165  0.00  0.00    +0.000 A 
ATOM     16  N   UNL     1       4.841   5.407  16.136  0.00  0.00    +0.000 NA
ATOM     17  C   UNL     1       5.347   5.537  17.385  0.00  0.00    +0.000 A 
BRANCH  12  19
ATOM     18  N   UNL     1       7.761   5.455  19.959  0.00  0.00    +0.000 NA
ATOM     19  C   UNL     1       7.293   5.324  18.909  0.00  0.00    +0.000 C 
ENDBRANCH  12  19
ENDBRANCH  10  17
ENDBRANCH   1  10
BRANCH   9  20
ATOM     20  O   UNL     1       2.681   7.133  20.354  0.00  0.00    +0.000 OA
ATOM     21  H   UNL     1       3.083   6.621  21.076  0.00  0.00    +0.000 HD
ENDBRANCH   9  20
TORSDOF 4
ENDMDL
MODEL 8
REMARK VINA RESULT:      -6.4      1.583      2.297
REMARK  Name = 
REMARK  4 active torsions:
REMARK  status: ('A' for Active; 'I' for Inactive)
REMARK    1  A    between atoms: C_2  and  C_3
REMARK    2  A    between atoms: C_8  and  N_9
REMARK    3  A    between atoms: N_9  and  C_10
REMARK    4  A    between atoms: C_18  and  O_19
REMARK                            x       y       z     vdW  Elec       q    Type
REMARK                         _______ _______ _______ _____ _____    ______ ____
ROOT
ATOM      1  C   UNL     1       4.301   3.639  18.157  0.00  0.00    +0.000 C 
ATOM      2  C   UNL     1       3.306   3.847  19.289  0.00  0.00    +0.000 A 
ATOM      3  C   UNL     1       3.153   4.933  20.145  0.00  0.00    +0.000 A 
ATOM      4  C   UNL     1       2.218   4.849  21.184  0.00  0.00    +0.000 A 
ATOM      5  C   UNL     1       1.455   3.686  21.373  0.00  0.00    +0.000 A 
ATOM      6  C   UNL     1       1.619   2.592  20.525  0.00  0.00    +0.000 A 
ATOM      7  C   UNL     1       2.541   2.688  19.491  0.00  0.00    +0.000 A 
ATOM      8  C   UNL     1       2.920   1.614  18.512  0.00  0.00    +0.000 C 
ATOM      9  C   UNL     1       3.647   2.423  17.418  0.00  0.00    +0.000 C 
ENDROOT
BRANCH   1  10
ATOM     10  N   UNL     1       4.459   4.860  17.358  0.00  0.00    +0.000 N 
ATOM     11  H   UNL     1       4.738   5.628  17.966  0.00  0.00    +0.000 HD
BRANCH  10  17
ATOM     12  C   UNL     1       6.674   5.339  16.394  0.00  0.00    +0.000 A 
ATOM     13  N   UNL     1       7.593   5.334  15.382  0.00  0.00    +0.000 NA
ATOM     14  C   UNL     1       7.161   4.829  14.213  0.00  0.00    +0.000 A 
ATOM     15  C   UNL     1       5.877   4.340  14.065  0.00  0.00    +0.000 A 
ATOM     16  N   UNL     1       4.970   4.312  15.080  0.00  0.00    +0.000 NA
ATOM     17  C   UNL     1       5.363   4.819  16.272  0.00  0.00    +0.000 A 
BRANCH  12  19
ATOM     18  N   UNL     1       7.530   6.349  18.618  0.00  0.00    +0.000 NA
ATOM     19  C   UNL     1       7.149   5.873  17.634  0.00  0.00    +0.000 C 
ENDBRANCH  12  19
ENDBRANCH  10  17
ENDBRANCH   1  10
BRANCH   9  20
ATOM     20  O   UNL     1       2.690   2.782  16.406  0.00  0.00    +0.000 OA
ATOM     21  H   UNL     1       3.180   2.875  15.571  0.00  0.00    +0.000 HD
ENDBRANCH   9  20
TORSDOF 4
ENDMDL
MODEL 9
REMARK VINA RESULT:      -6.3      1.247      1.506
REMARK  Name = 
REMARK  4 active torsions:
REMARK  status: ('A' for Active; 'I' for Inactive)
REMARK    1  A    between atoms: C_2  and  C_3
REMARK    2  A    between atoms: C_8  and  N_9
REMARK    3  A    between atoms: N_9  and  C_10
REMARK    4  A    between atoms: C_18  and  O_19
REMARK                            x       y       z     vdW  Elec       q    Type
REMARK                         _______ _______ _______ _____ _____    ______ ____
ROOT
ATOM      1  C   UNL     1       3.353   5.604  17.881  0.00  0.00    +0.000 C 
ATOM      2  C   UNL     1       3.045   4.163  18.258  0.00  0.00    +0.000 A 
ATOM      3  C   UNL     1       3.692   2.991  17.880  0.00  0.00    +0.000 A 
ATOM      4  C   UNL     1       3.156   1.762  18.283  0.00  0.00    +0.000 A 
ATOM      5  C   UNL     1       1.977   1.705  19.043  0.00  0.00    +0.000 A 
ATOM      6  C   UNL     1       1.320   2.879  19.408  0.00  0.00    +0.000 A 
ATOM      7  C   UNL     1       1.864   4.093  19.013  0.00  0.00    +0.000 A 
ATOM      8  C   UNL     1       1.287   5.461  19.240  0.00  0.00    +0.000 C 
ATOM      9  C   UNL     1       2.499   6.369  18.948  0.00  0.00    +0.000 C 
ENDROOT
BRANCH   1  10
ATOM     10  N   UNL     1       4.796   5.865  17.914  0.00  0.00    +0.000 N 
ATOM     11  H   UNL     1       5.197   5.445  18.750  0.00  0.00    +0.000 HD
BRANCH  10  17
ATOM     12  C   UNL     1       6.925   5.079  16.957  0.00  0.00    +0.000 A 
ATOM     13  N   UNL     1       7.722   4.662  15.927  0.00  0.00    +0.000 NA
ATOM     14  C   UNL     1       7.138   4.647  14.716  0.00  0.00    +0.000 A 
ATOM     15  C   UNL     1       5.818   5.017  14.543  0.00  0.00    +0.000 A 
ATOM     16  N   UNL     1       5.011   5.400  15.571  0.00  0.00    +0.000 NA
ATOM     17  C   UNL     1       5.564   5.437  16.806  0.00  0.00    +0.000 A 
BRANCH  12  19
ATOM     18  N   UNL     1       8.023   5.091  19.300  0.00  0.00    +0.000 NA
ATOM     19  C   UNL     1       7.557   5.084  18.241  0.00  0.00    +0.000 C 
ENDBRANCH  12  19
ENDBRANCH  10  17
ENDBRANCH   1  10
BRANCH   9  20
ATOM     20  O   UNL     1       3.183   6.630  20.186  0.00  0.00    +0.000 OA
ATOM     21  H   UNL     1       3.476   7.557  20.160  0.00  0.00    +0.000 HD
ENDBRANCH   9  20
TORSDOF 4
ENDMDL
