MODEL 1
REMARK VINA RESULT:      -7.2      0.000      0.000
REMARK  Name = 
REMARK  5 active torsions:
REMARK  status: ('A' for Active; 'I' for Inactive)
REMARK    1  A    between atoms: C_1  and  O_2
REMARK    2  A    between atoms: O_2  and  C_3
REMARK    3  A    between atoms: C_6  and  N_7
REMARK    4  A    between atoms: C_9  and  C_10
REMARK    5  A    between atoms: N_18  and  C_19
REMARK                            x       y       z     vdW  Elec       q    Type
REMARK                         _______ _______ _______ _____ _____    ______ ____
ROOT
ATOM      1  N   UNL     1       0.556  10.507  19.032  0.00  0.00    +0.000 N 
ATOM      2  C   UNL     1      -0.792  10.616  19.291  0.00  0.00    +0.000 A 
ATOM      3  C   UNL     1      -1.168  11.946  19.295  0.00  0.00    +0.000 A 
ATOM      4  C   UNL     1       0.005  12.709  18.968  0.00  0.00    +0.000 A 
ATOM      5  C   UNL     1       0.335  14.080  18.807  0.00  0.00    +0.000 A 
ATOM      6  N   UNL     1      -0.616  15.093  18.937  0.00  0.00    +0.000 N 
ATOM      7  N   UNL     1       1.615  14.394  18.494  0.00  0.00    +0.000 NA
ATOM      8  C   UNL     1       2.509  13.407  18.327  0.00  0.00    +0.000 A 
ATOM      9  N   UNL     1       2.320  12.092  18.476  0.00  0.00    +0.000 NA
ATOM     10  C   UNL     1       1.053  11.787  18.818  0.00  0.00    +0.000 A 
ATOM     11  H   UNL     1      -1.335  14.968  18.228  0.00  0.00    +0.000 HD
ENDROOT
BRANCH   1  15
ATOM     12  C   UNL     1       2.571   6.770  19.027  0.00  0.00    +0.000 A 
ATOM     13  C   UNL     1       2.464   7.521  17.857  0.00  0.00    +0.000 A 
ATOM     14  C   UNL     1       1.818   8.760  17.862  0.00  0.00    +0.000 A 
ATOM     15  C   UNL     1       1.270   9.269  19.050  0.00  0.00    +0.000 A 
ATOM     16  C   UNL     1       1.384   8.517  20.225  0.00  0.00    +0.000 A 
ATOM     17  C   UNL     1       2.020   7.267  20.208  0.00  0.00    +0.000 A 
BRANCH  12  19
ATOM     18  C   UNL     1       4.520   5.480  19.380  0.00  0.00    +0.000 C 
ATOM     19  O   UNL     1       3.189   5.559  18.884  0.00  0.00    +0.000 OA
ENDBRANCH  12  19
ENDBRANCH   1  15
BRANCH   3  20
ATOM     20  C   UNL     1      -2.530  12.347  19.652  0.00  0.00    +0.000 A 
ATOM     21  C   UNL     1      -3.619  11.928  18.886  0.00  0.00    +0.000 A 
ATOM     22  C   UNL     1      -4.933  12.253  19.235  0.00  0.00    +0.000 A 
ATOM     23  C   UNL     1      -5.173  13.079  20.328  0.00  0.00    +0.000 A 
ATOM     24  C   UNL     1      -4.097  13.565  21.065  0.00  0.00    +0.000 A 
ATOM     25  C   UNL     1      -2.788  13.192  20.740  0.00  0.00    +0.000 A 
ENDBRANCH   3  20
BRANCH   6  26
ATOM     26  C   UNL     1      -0.178  16.472  19.157  0.00  0.00    +0.000 C 
ATOM     27  C   UNL     1      -1.184  17.456  18.534  0.00  0.00    +0.000 C 
ATOM     28  C   UNL     1      -2.488  17.587  19.314  0.00  0.00    +0.000 C 
ATOM     29  C   UNL     1      -2.237  17.963  20.768  0.00  0.00    +0.000 C 
ATOM     30  C   UNL     1      -1.296  16.981  21.451  0.00  0.00    +0.000 C 
ATOM     31  C   UNL     1      -0.002  16.734  20.667  0.00  0.00    +0.000 C 
ENDBRANCH   6  26
TORSDOF 4
ENDMDL
MODEL 2
REMARK VINA RESULT:      -7.1      0.484      1.001
REMARK  Name = 
REMARK  5 active torsions:
REMARK  status: ('A' for Active; 'I' for Inactive)
REMARK    1  A    between atoms: C_1  and  O_2
REMARK    2  A    between atoms: O_2  and  C_3
REMARK    3  A    between atoms: C_6  and  N_7
REMARK    4  A    between atoms: C_9  and  C_10
REMARK    5  A    between atoms: N_18  and  C_19
REMARK                            x       y       z     vdW  Elec       q    Type
REMARK                         _______ _______ _______ _____ _____    ______ ____
ROOT
ATOM      1  N   UNL     1       0.505  10.631  19.037  0.00  0.00    +0.000 N 
ATOM      2  C   UNL     1      -0.850  10.702  19.265  0.00  0.00    +0.000 A 
ATOM      3  C   UNL     1      -1.259  12.022  19.289  0.00  0.00    +0.000 A 
ATOM      4  C   UNL     1      -0.098  12.820  19.010  0.00  0.00    +0.000 A 
ATOM      5  C   UNL     1       0.202  14.202  18.888  0.00  0.00    +0.000 A 
ATOM      6  N   UNL     1      -0.777  15.188  19.017  0.00  0.00    +0.000 N 
ATOM      7  N   UNL     1       1.481  14.554  18.615  0.00  0.00    +0.000 NA
ATOM      8  C   UNL     1       2.403  13.593  18.448  0.00  0.00    +0.000 A 
ATOM      9  N   UNL     1       2.243  12.271  18.563  0.00  0.00    +0.000 NA
ATOM     10  C   UNL     1       0.976  11.927  18.865  0.00  0.00    +0.000 A 
ATOM     11  H   UNL     1      -1.475  15.063  18.288  0.00  0.00    +0.000 HD
ENDROOT
BRANCH   1  15
ATOM     12  C   UNL     1       2.612   6.946  18.997  0.00  0.00    +0.000 A 
ATOM     13  C   UNL     1       2.523   7.725  17.845  0.00  0.00    +0.000 A 
ATOM     14  C   UNL     1       1.846   8.947  17.862  0.00  0.00    +0.000 A 
ATOM     15  C   UNL     1       1.249   9.410  19.045  0.00  0.00    +0.000 A 
ATOM     16  C   UNL     1       1.346   8.631  20.203  0.00  0.00    +0.000 A 
ATOM     17  C   UNL     1       2.013   7.397  20.174  0.00  0.00    +0.000 A 
BRANCH  12  19
ATOM     18  C   UNL     1       2.560   4.751  18.121  0.00  0.00    +0.000 C 
ATOM     19  O   UNL     1       3.264   5.754  18.843  0.00  0.00    +0.000 OA
ENDBRANCH  12  19
ENDBRANCH   1  15
BRANCH   3  20
ATOM     20  C   UNL     1      -2.639  12.381  19.621  0.00  0.00    +0.000 A 
ATOM     21  C   UNL     1      -2.921  13.164  20.741  0.00  0.00    +0.000 A 
ATOM     22  C   UNL     1      -4.225  13.564  21.050  0.00  0.00    +0.000 A 
ATOM     23  C   UNL     1      -5.288  13.114  20.274  0.00  0.00    +0.000 A 
ATOM     24  C   UNL     1      -5.036  12.274  19.193  0.00  0.00    +0.000 A 
ATOM     25  C   UNL     1      -3.723  11.922  18.859  0.00  0.00    +0.000 A 
ENDBRANCH   3  20
BRANCH   6  26
ATOM     26  C   UNL     1      -0.379  16.572  19.279  0.00  0.00    +0.000 C 
ATOM     27  C   UNL     1      -1.393  17.546  18.653  0.00  0.00    +0.000 C 
ATOM     28  C   UNL     1      -2.719  17.627  19.402  0.00  0.00    +0.000 C 
ATOM     29  C   UNL     1      -2.514  17.975  20.870  0.00  0.00    +0.000 C 
ATOM     30  C   UNL     1      -1.566  17.001  21.555  0.00  0.00    +0.000 C 
ATOM     31  C   UNL     1      -0.247  16.804  20.799  0.00  0.00    +0.000 C 
ENDBRANCH   6  26
TORSDOF 4
ENDMDL
MODEL 3
REMARK VINA RESULT:      -7.0      1.565      2.178
REMARK  Name = 
REMARK  5 active torsions:
REMARK  status: ('A' for Active; 'I' for Inactive)
REMARK    1  A    between atoms: C_1  and  O_2
REMARK    2  A    between atoms: O_2  and  C_3
REMARK    3  A    between atoms: C_6  and  N_7
REMARK    4  A    between atoms: C_9  and  C_10
REMARK    5  A    between atoms: N_18  and  C_19
REMARK                            x       y       z     vdW  Elec       q    Type
REMARK                         _______ _______ _______ _____ _____    ______ ____
ROOT
ATOM      1  N   UNL     1       0.120  10.534  19.106  0.00  0.00    +0.000 N 
ATOM      2  C   UNL     1      -1.156  10.481  18.595  0.00  0.00    +0.000 A 
ATOM      3  C   UNL     1      -1.837  11.646  18.898  0.00  0.00    +0.000 A 
ATOM      4  C   UNL     1      -0.913  12.495  19.597  0.00  0.00    +0.000 A 
ATOM      5  C   UNL     1      -0.937  13.788  20.184  0.00  0.00    +0.000 A 
ATOM      6  N   UNL     1      -2.071  14.601  20.141  0.00  0.00    +0.000 N 
ATOM      7  N   UNL     1       0.192  14.237  20.780  0.00  0.00    +0.000 NA
ATOM      8  C   UNL     1       1.289  13.463  20.773  0.00  0.00    +0.000 A 
ATOM      9  N   UNL     1       1.421  12.229  20.277  0.00  0.00    +0.000 NA
ATOM     10  C   UNL     1       0.285  11.773  19.712  0.00  0.00    +0.000 A 
ATOM     11  H   UNL     1      -2.295  14.810  19.171  0.00  0.00    +0.000 HD
ENDROOT
BRANCH   1  15
ATOM     12  C   UNL     1       2.783   7.238  18.839  0.00  0.00    +0.000 A 
ATOM     13  C   UNL     1       2.618   8.106  17.761  0.00  0.00    +0.000 A 
ATOM     14  C   UNL     1       1.756   9.203  17.854  0.00  0.00    +0.000 A 
ATOM     15  C   UNL     1       1.047   9.447  19.041  0.00  0.00    +0.000 A 
ATOM     16  C   UNL     1       1.219   8.579  20.125  0.00  0.00    +0.000 A 
ATOM     17  C   UNL     1       2.073   7.471  20.017  0.00  0.00    +0.000 A 
BRANCH  12  19
ATOM     18  C   UNL     1       3.698   5.214  19.650  0.00  0.00    +0.000 C 
ATOM     19  O   UNL     1       3.621   6.182  18.610  0.00  0.00    +0.000 OA
ENDBRANCH  12  19
ENDBRANCH   1  15
BRANCH   3  20
ATOM     20  C   UNL     1      -3.253  11.804  18.562  0.00  0.00    +0.000 A 
ATOM     21  C   UNL     1      -4.169  12.236  19.523  0.00  0.00    +0.000 A 
ATOM     22  C   UNL     1      -5.516  12.444  19.215  0.00  0.00    +0.000 A 
ATOM     23  C   UNL     1      -5.987  12.145  17.941  0.00  0.00    +0.000 A 
ATOM     24  C   UNL     1      -5.105  11.646  16.987  0.00  0.00    +0.000 A 
ATOM     25  C   UNL     1      -3.748  11.490  17.289  0.00  0.00    +0.000 A 
ENDBRANCH   3  20
BRANCH   6  26
ATOM     26  C   UNL     1      -2.191  15.723  21.073  0.00  0.00    +0.000 C 
ATOM     27  C   UNL     1      -3.064  16.833  20.462  0.00  0.00    +0.000 C 
ATOM     28  C   UNL     1      -4.553  16.504  20.431  0.00  0.00    +0.000 C 
ATOM     29  C   UNL     1      -5.077  16.143  21.814  0.00  0.00    +0.000 C 
ATOM     30  C   UNL     1      -4.286  15.003  22.439  0.00  0.00    +0.000 C 
ATOM     31  C   UNL     1      -2.770  15.232  22.417  0.00  0.00    +0.000 C 
ENDBRANCH   6  26
TORSDOF 4
ENDMDL
MODEL 4
REMARK VINA RESULT:      -6.9      0.619      1.591
REMARK  Name = 
REMARK  5 active torsions:
REMARK  status: ('A' for Active; 'I' for Inactive)
REMARK    1  A    between atoms: C_1  and  O_2
REMARK    2  A    between atoms: O_2  and  C_3
REMARK    3  A    between atoms: C_6  and  N_7
REMARK    4  A    between atoms: C_9  and  C_10
REMARK    5  A    between atoms: N_18  and  C_19
REMARK                            x       y       z     vdW  Elec       q    Type
REMARK                         _______ _______ _______ _____ _____    ______ ____
ROOT
ATOM      1  N   UNL     1       0.484  10.539  19.022  0.00  0.00    +0.000 N 
ATOM      2  C   UNL     1      -0.887  10.595  19.131  0.00  0.00    +0.000 A 
ATOM      3  C   UNL     1      -1.298  11.909  19.263  0.00  0.00    +0.000 A 
ATOM      4  C   UNL     1      -0.117  12.723  19.180  0.00  0.00    +0.000 A 
ATOM      5  C   UNL     1       0.190  14.107  19.238  0.00  0.00    +0.000 A 
ATOM      6  N   UNL     1      -0.798  15.082  19.384  0.00  0.00    +0.000 N 
ATOM      7  N   UNL     1       1.488  14.476  19.124  0.00  0.00    +0.000 NA
ATOM      8  C   UNL     1       2.424  13.532  18.937  0.00  0.00    +0.000 A 
ATOM      9  N   UNL     1       2.255  12.206  18.891  0.00  0.00    +0.000 NA
ATOM     10  C   UNL     1       0.966  11.842  19.037  0.00  0.00    +0.000 A 
ATOM     11  H   UNL     1      -1.426  15.043  18.585  0.00  0.00    +0.000 HD
ENDROOT
BRANCH   1  15
ATOM     12  C   UNL     1       2.787   6.973  18.923  0.00  0.00    +0.000 A 
ATOM     13  C   UNL     1       2.094   7.339  20.077  0.00  0.00    +0.000 A 
ATOM     14  C   UNL     1       1.320   8.503  20.104  0.00  0.00    +0.000 A 
ATOM     15  C   UNL     1       1.226   9.318  18.965  0.00  0.00    +0.000 A 
ATOM     16  C   UNL     1       1.916   8.946  17.806  0.00  0.00    +0.000 A 
ATOM     17  C   UNL     1       2.704   7.786  17.792  0.00  0.00    +0.000 A 
BRANCH  12  19
ATOM     18  C   UNL     1       2.963   4.784  19.797  0.00  0.00    +0.000 C 
ATOM     19  O   UNL     1       3.539   5.838  19.035  0.00  0.00    +0.000 OA
ENDBRANCH  12  19
ENDBRANCH   1  15
BRANCH   3  20
ATOM     20  C   UNL     1      -2.703  12.241  19.504  0.00  0.00    +0.000 A 
ATOM     21  C   UNL     1      -3.083  12.936  20.654  0.00  0.00    +0.000 A 
ATOM     22  C   UNL     1      -4.411  13.310  20.882  0.00  0.00    +0.000 A 
ATOM     23  C   UNL     1      -5.402  12.921  19.988  0.00  0.00    +0.000 A 
ATOM     24  C   UNL     1      -5.055  12.167  18.870  0.00  0.00    +0.000 A 
ATOM     25  C   UNL     1      -3.717  11.841  18.622  0.00  0.00    +0.000 A 
ENDBRANCH   3  20
BRANCH   6  26
ATOM     26  C   UNL     1      -0.428  16.425  19.832  0.00  0.00    +0.000 C 
ATOM     27  C   UNL     1       0.171  17.230  18.665  0.00  0.00    +0.000 C 
ATOM     28  C   UNL     1      -0.857  17.692  17.638  0.00  0.00    +0.000 C 
ATOM     29  C   UNL     1      -1.979  18.491  18.287  0.00  0.00    +0.000 C 
ATOM     30  C   UNL     1      -2.650  17.712  19.410  0.00  0.00    +0.000 C 
ATOM     31  C   UNL     1      -1.659  17.139  20.429  0.00  0.00    +0.000 C 
ENDBRANCH   6  26
TORSDOF 4
ENDMDL
MODEL 5
REMARK VINA RESULT:      -6.9      1.336      1.921
REMARK  Name = 
REMARK  5 active torsions:
REMARK  status: ('A' for Active; 'I' for Inactive)
REMARK    1  A    between atoms: C_1  and  O_2
REMARK    2  A    between atoms: O_2  and  C_3
REMARK    3  A    between atoms: C_6  and  N_7
REMARK    4  A    between atoms: C_9  and  C_10
REMARK    5  A    between atoms: N_18  and  C_19
REMARK                            x       y       z     vdW  Elec       q    Type
REMARK                         _______ _______ _______ _____ _____    ______ ____
ROOT
ATOM      1  N   UNL     1       0.095  10.521  19.247  0.00  0.00    +0.000 N 
ATOM      2  C   UNL     1      -1.193  10.487  18.763  0.00  0.00    +0.000 A 
ATOM      3  C   UNL     1      -1.818  11.699  18.992  0.00  0.00    +0.000 A 
ATOM      4  C   UNL     1      -0.846  12.556  19.611  0.00  0.00    +0.000 A 
ATOM      5  C   UNL     1      -0.805  13.887  20.102  0.00  0.00    +0.000 A 
ATOM      6  N   UNL     1      -1.904  14.743  20.019  0.00  0.00    +0.000 N 
ATOM      7  N   UNL     1       0.355  14.330  20.645  0.00  0.00    +0.000 NA
ATOM      8  C   UNL     1       1.418  13.511  20.676  0.00  0.00    +0.000 A 
ATOM      9  N   UNL     1       1.488  12.239  20.268  0.00  0.00    +0.000 NA
ATOM     10  C   UNL     1       0.323  11.794  19.758  0.00  0.00    +0.000 A 
ATOM     11  H   UNL     1      -2.139  14.892  19.041  0.00  0.00    +0.000 HD
ENDROOT
BRANCH   1  15
ATOM     12  C   UNL     1       2.610   7.103  19.179  0.00  0.00    +0.000 A 
ATOM     13  C   UNL     1       2.435   7.878  18.033  0.00  0.00    +0.000 A 
ATOM     14  C   UNL     1       1.622   9.014  18.060  0.00  0.00    +0.000 A 
ATOM     15  C   UNL     1       0.973   9.394  19.246  0.00  0.00    +0.000 A 
ATOM     16  C   UNL     1       1.156   8.619  20.397  0.00  0.00    +0.000 A 
ATOM     17  C   UNL     1       1.960   7.470  20.357  0.00  0.00    +0.000 A 
BRANCH  12  19
ATOM     18  C   UNL     1       3.800   5.714  17.680  0.00  0.00    +0.000 C 
ATOM     19  O   UNL     1       3.395   5.995  19.015  0.00  0.00    +0.000 OA
ENDBRANCH  12  19
ENDBRANCH   1  15
BRANCH   3  20
ATOM     20  C   UNL     1      -3.233  11.893  18.669  0.00  0.00    +0.000 A 
ATOM     21  C   UNL     1      -4.123  12.371  19.632  0.00  0.00    +0.000 A 
ATOM     22  C   UNL     1      -5.468  12.614  19.335  0.00  0.00    +0.000 A 
ATOM     23  C   UNL     1      -5.964  12.304  18.074  0.00  0.00    +0.000 A 
ATOM     24  C   UNL     1      -5.108  11.761  17.119  0.00  0.00    +0.000 A 
ATOM     25  C   UNL     1      -3.752  11.570  17.408  0.00  0.00    +0.000 A 
ENDBRANCH   3  20
BRANCH   6  26
ATOM     26  C   UNL     1      -1.958  15.934  20.869  0.00  0.00    +0.000 C 
ATOM     27  C   UNL     1      -1.417  17.157  20.109  0.00  0.00    +0.000 C 
ATOM     28  C   UNL     1      -2.364  17.692  19.040  0.00  0.00    +0.000 C 
ATOM     29  C   UNL     1      -3.736  18.014  19.617  0.00  0.00    +0.000 C 
ATOM     30  C   UNL     1      -4.346  16.814  20.327  0.00  0.00    +0.000 C 
ATOM     31  C   UNL     1      -3.405  16.171  21.352  0.00  0.00    +0.000 C 
ENDBRANCH   6  26
TORSDOF 4
ENDMDL
MODEL 6
REMARK VINA RESULT:      -6.9      0.593      1.018
REMARK  Name = 
REMARK  5 active torsions:
REMARK  status: ('A' for Active; 'I' for Inactive)
REMARK    1  A    between atoms: C_1  and  O_2
REMARK    2  A    between atoms: O_2  and  C_3
REMARK    3  A    between atoms: C_6  and  N_7
REMARK    4  A    between atoms: C_9  and  C_10
REMARK    5  A    between atoms: N_18  and  C_19
REMARK                            x       y       z     vdW  Elec       q    Type
REMARK                         _______ _______ _______ _____ _____    ______ ____
ROOT
ATOM      1  N   UNL     1       0.548  10.592  19.086  0.00  0.00    +0.000 N 
ATOM      2  C   UNL     1      -0.823  10.639  19.193  0.00  0.00    +0.000 A 
ATOM      3  C   UNL     1      -1.246  11.951  19.300  0.00  0.00    +0.000 A 
ATOM      4  C   UNL     1      -0.072  12.773  19.204  0.00  0.00    +0.000 A 
ATOM      5  C   UNL     1       0.225  14.161  19.237  0.00  0.00    +0.000 A 
ATOM      6  N   UNL     1      -0.772  15.130  19.364  0.00  0.00    +0.000 N 
ATOM      7  N   UNL     1       1.520  14.539  19.117  0.00  0.00    +0.000 NA
ATOM      8  C   UNL     1       2.463  13.599  18.949  0.00  0.00    +0.000 A 
ATOM      9  N   UNL     1       2.306  12.272  18.927  0.00  0.00    +0.000 NA
ATOM     10  C   UNL     1       1.020  11.899  19.078  0.00  0.00    +0.000 A 
ATOM     11  H   UNL     1      -1.399  15.071  18.566  0.00  0.00    +0.000 HD
ENDROOT
BRANCH   1  15
ATOM     12  C   UNL     1       2.682   6.926  18.913  0.00  0.00    +0.000 A 
ATOM     13  C   UNL     1       2.615   7.762  17.799  0.00  0.00    +0.000 A 
ATOM     14  C   UNL     1       1.929   8.978  17.861  0.00  0.00    +0.000 A 
ATOM     15  C   UNL     1       1.301   9.377  19.052  0.00  0.00    +0.000 A 
ATOM     16  C   UNL     1       1.375   8.541  20.171  0.00  0.00    +0.000 A 
ATOM     17  C   UNL     1       2.051   7.314  20.096  0.00  0.00    +0.000 A 
BRANCH  12  19
ATOM     18  C   UNL     1       3.301   4.821  19.794  0.00  0.00    +0.000 C 
ATOM     19  O   UNL     1       3.346   5.748  18.715  0.00  0.00    +0.000 OA
ENDBRANCH  12  19
ENDBRANCH   1  15
BRANCH   3  20
ATOM     20  C   UNL     1      -2.654  12.276  19.534  0.00  0.00    +0.000 A 
ATOM     21  C   UNL     1      -3.634  11.895  18.616  0.00  0.00    +0.000 A 
ATOM     22  C   UNL     1      -4.991  12.147  18.841  0.00  0.00    +0.000 A 
ATOM     23  C   UNL     1      -5.383  12.863  19.968  0.00  0.00    +0.000 A 
ATOM     24  C   UNL     1      -4.415  13.313  20.861  0.00  0.00    +0.000 A 
ATOM     25  C   UNL     1      -3.064  13.011  20.655  0.00  0.00    +0.000 A 
ENDBRANCH   3  20
BRANCH   6  26
ATOM     26  C   UNL     1      -0.414  16.484  19.788  0.00  0.00    +0.000 C 
ATOM     27  C   UNL     1       0.227  17.256  18.621  0.00  0.00    +0.000 C 
ATOM     28  C   UNL     1      -0.765  17.692  17.548  0.00  0.00    +0.000 C 
ATOM     29  C   UNL     1      -1.906  18.510  18.137  0.00  0.00    +0.000 C 
ATOM     30  C   UNL     1      -2.617  17.763  19.257  0.00  0.00    +0.000 C 
ATOM     31  C   UNL     1      -1.662  17.217  20.324  0.00  0.00    +0.000 C 
ENDBRANCH   6  26
TORSDOF 4
ENDMDL
MODEL 7
REMARK VINA RESULT:      -6.9      1.047      1.356
REMARK  Name = 
REMARK  5 active torsions:
REMARK  status: ('A' for Active; 'I' for Inactive)
REMARK    1  A    between atoms: C_1  and  O_2
REMARK    2  A    between atoms: O_2  and  C_3
REMARK    3  A    between atoms: C_6  and  N_7
REMARK    4  A    between atoms: C_9  and  C_10
REMARK    5  A    between atoms: N_18  and  C_19
REMARK                            x       y       z     vdW  Elec       q    Type
REMARK                         _______ _______ _______ _____ _____    ______ ____
ROOT
ATOM      1  N   UNL     1       0.224  10.613  19.167  0.00  0.00    +0.000 N 
ATOM      2  C   UNL     1      -1.132  10.574  18.931  0.00  0.00    +0.000 A 
ATOM      3  C   UNL     1      -1.684  11.826  19.132  0.00  0.00    +0.000 A 
ATOM      4  C   UNL     1      -0.600  12.708  19.464  0.00  0.00    +0.000 A 
ATOM      5  C   UNL     1      -0.446  14.082  19.787  0.00  0.00    +0.000 A 
ATOM      6  N   UNL     1      -1.527  14.964  19.809  0.00  0.00    +0.000 N 
ATOM      7  N   UNL     1       0.800  14.537  20.057  0.00  0.00    +0.000 NA
ATOM      8  C   UNL     1       1.837  13.687  19.987  0.00  0.00    +0.000 A 
ATOM      9  N   UNL     1       1.810  12.378  19.719  0.00  0.00    +0.000 NA
ATOM     10  C   UNL     1       0.564  11.923  19.482  0.00  0.00    +0.000 A 
ATOM     11  H   UNL     1      -1.936  15.015  18.879  0.00  0.00    +0.000 HD
ENDROOT
BRANCH   1  15
ATOM     12  C   UNL     1       2.636   7.124  19.000  0.00  0.00    +0.000 A 
ATOM     13  C   UNL     1       2.487   7.938  17.878  0.00  0.00    +0.000 A 
ATOM     14  C   UNL     1       1.709   9.097  17.938  0.00  0.00    +0.000 A 
ATOM     15  C   UNL     1       1.069   9.460  19.134  0.00  0.00    +0.000 A 
ATOM     16  C   UNL     1       1.225   8.646  20.261  0.00  0.00    +0.000 A 
ATOM     17  C   UNL     1       1.994   7.475  20.188  0.00  0.00    +0.000 A 
BRANCH  12  19
ATOM     18  C   UNL     1       4.154   5.965  17.606  0.00  0.00    +0.000 C 
ATOM     19  O   UNL     1       3.388   5.999  18.804  0.00  0.00    +0.000 OA
ENDBRANCH  12  19
ENDBRANCH   1  15
BRANCH   3  20
ATOM     20  C   UNL     1      -3.130  12.037  19.052  0.00  0.00    +0.000 A 
ATOM     21  C   UNL     1      -3.841  11.668  17.908  0.00  0.00    +0.000 A 
ATOM     22  C   UNL     1      -5.229  11.811  17.826  0.00  0.00    +0.000 A 
ATOM     23  C   UNL     1      -5.925  12.404  18.874  0.00  0.00    +0.000 A 
ATOM     24  C   UNL     1      -5.227  12.843  19.996  0.00  0.00    +0.000 A 
ATOM     25  C   UNL     1      -3.844  12.648  20.092  0.00  0.00    +0.000 A 
ENDBRANCH   3  20
BRANCH   6  26
ATOM     26  C   UNL     1      -1.405  16.240  20.515  0.00  0.00    +0.000 C 
ATOM     27  C   UNL     1      -0.807  17.310  19.584  0.00  0.00    +0.000 C 
ATOM     28  C   UNL     1      -1.776  17.819  18.523  0.00  0.00    +0.000 C 
ATOM     29  C   UNL     1      -3.064  18.343  19.143  0.00  0.00    +0.000 C 
ATOM     30  C   UNL     1      -3.731  17.298  20.026  0.00  0.00    +0.000 C 
ATOM     31  C   UNL     1      -2.782  16.678  21.057  0.00  0.00    +0.000 C 
ENDBRANCH   6  26
TORSDOF 4
ENDMDL
MODEL 8
REMARK VINA RESULT:      -6.8      0.592      1.065
REMARK  Name = 
REMARK  5 active torsions:
REMARK  status: ('A' for Active; 'I' for Inactive)
REMARK    1  A    between atoms: C_1  and  O_2
REMARK    2  A    between atoms: O_2  and  C_3
REMARK    3  A    between atoms: C_6  and  N_7
REMARK    4  A    between atoms: C_9  and  C_10
REMARK    5  A    between atoms: N_18  and  C_19
REMARK                            x       y       z     vdW  Elec       q    Type
REMARK                         _______ _______ _______ _____ _____    ______ ____
ROOT
ATOM      1  N   UNL     1       0.471  10.516  19.199  0.00  0.00    +0.000 N 
ATOM      2  C   UNL     1      -0.823  10.614  19.655  0.00  0.00    +0.000 A 
ATOM      3  C   UNL     1      -1.204  11.942  19.720  0.00  0.00    +0.000 A 
ATOM      4  C   UNL     1      -0.098  12.714  19.226  0.00  0.00    +0.000 A 
ATOM      5  C   UNL     1       0.195  14.088  19.023  0.00  0.00    +0.000 A 
ATOM      6  N   UNL     1      -0.734  15.093  19.296  0.00  0.00    +0.000 N 
ATOM      7  N   UNL     1       1.412  14.413  18.526  0.00  0.00    +0.000 NA
ATOM      8  C   UNL     1       2.278  13.433  18.224  0.00  0.00    +0.000 A 
ATOM      9  N   UNL     1       2.123  12.116  18.395  0.00  0.00    +0.000 NA
ATOM     10  C   UNL     1       0.922  11.800  18.919  0.00  0.00    +0.000 A 
ATOM     11  H   UNL     1      -1.550  14.965  18.701  0.00  0.00    +0.000 HD
ENDROOT
BRANCH   1  15
ATOM     12  C   UNL     1       2.706   6.912  18.992  0.00  0.00    +0.000 A 
ATOM     13  C   UNL     1       2.071   7.287  20.176  0.00  0.00    +0.000 A 
ATOM     14  C   UNL     1       1.319   8.463  20.239  0.00  0.00    +0.000 A 
ATOM     15  C   UNL     1       1.189   9.283  19.107  0.00  0.00    +0.000 A 
ATOM     16  C   UNL     1       1.821   8.903  17.918  0.00  0.00    +0.000 A 
ATOM     17  C   UNL     1       2.588   7.729  17.867  0.00  0.00    +0.000 A 
BRANCH  12  19
ATOM     18  C   UNL     1       2.701   4.558  19.214  0.00  0.00    +0.000 C 
ATOM     19  O   UNL     1       3.443   5.764  19.069  0.00  0.00    +0.000 OA
ENDBRANCH  12  19
ENDBRANCH   1  15
BRANCH   3  20
ATOM     20  C   UNL     1      -2.502  12.331  20.276  0.00  0.00    +0.000 A 
ATOM     21  C   UNL     1      -3.643  12.353  19.473  0.00  0.00    +0.000 A 
ATOM     22  C   UNL     1      -4.902  12.670  19.991  0.00  0.00    +0.000 A 
ATOM     23  C   UNL     1      -5.024  13.051  21.323  0.00  0.00    +0.000 A 
ATOM     24  C   UNL     1      -3.887  13.103  22.125  0.00  0.00    +0.000 A 
ATOM     25  C   UNL     1      -2.639  12.733  21.612  0.00  0.00    +0.000 A 
ENDBRANCH   3  20
BRANCH   6  26
ATOM     26  C   UNL     1      -0.279  16.475  19.454  0.00  0.00    +0.000 C 
ATOM     27  C   UNL     1      -1.170  17.427  18.638  0.00  0.00    +0.000 C 
ATOM     28  C   UNL     1      -2.551  17.655  19.243  0.00  0.00    +0.000 C 
ATOM     29  C   UNL     1      -2.460  18.146  20.681  0.00  0.00    +0.000 C 
ATOM     30  C   UNL     1      -1.639  17.203  21.549  0.00  0.00    +0.000 C 
ATOM     31  C   UNL     1      -0.272  16.860  20.949  0.00  0.00    +0.000 C 
ENDBRANCH   6  26
TORSDOF 4
ENDMDL
MODEL 9
REMARK VINA RESULT:      -6.8      0.840      1.508
REMARK  Name = 
REMARK  5 active torsions:
REMARK  status: ('A' for Active; 'I' for Inactive)
REMARK    1  A    between atoms: C_1  and  O_2
REMARK    2  A    between atoms: O_2  and  C_3
REMARK    3  A    between atoms: C_6  and  N_7
REMARK    4  A    between atoms: C_9  and  C_10
REMARK    5  A    between atoms: N_18  and  C_19
REMARK                            x       y       z     vdW  Elec       q    Type
REMARK                         _______ _______ _______ _____ _____    ______ ____
ROOT
ATOM      1  N   UNL     1       0.715  10.367  19.332  0.00  0.00    +0.000 N 
ATOM      2  C   UNL     1      -0.513  10.498  19.938  0.00  0.00    +0.000 A 
ATOM      3  C   UNL     1      -0.845  11.835  20.055  0.00  0.00    +0.000 A 
ATOM      4  C   UNL     1       0.218  12.580  19.439  0.00  0.00    +0.000 A 
ATOM      5  C   UNL     1       0.525  13.947  19.211  0.00  0.00    +0.000 A 
ATOM      6  N   UNL     1      -0.335  14.976  19.597  0.00  0.00    +0.000 N 
ATOM      7  N   UNL     1       1.684  14.242  18.575  0.00  0.00    +0.000 NA
ATOM      8  C   UNL     1       2.480  13.240  18.168  0.00  0.00    +0.000 A 
ATOM      9  N   UNL     1       2.307  11.927  18.348  0.00  0.00    +0.000 NA
ATOM     10  C   UNL     1       1.168  11.641  19.008  0.00  0.00    +0.000 A 
ATOM     11  H   UNL     1      -1.218  14.877  19.102  0.00  0.00    +0.000 HD
ENDROOT
BRANCH   1  15
ATOM     12  C   UNL     1       2.798   6.699  18.855  0.00  0.00    +0.000 A 
ATOM     13  C   UNL     1       2.208   7.027  20.075  0.00  0.00    +0.000 A 
ATOM     14  C   UNL     1       1.506   8.225  20.227  0.00  0.00    +0.000 A 
ATOM     15  C   UNL     1       1.381   9.116  19.149  0.00  0.00    +0.000 A 
ATOM     16  C   UNL     1       1.967   8.782  17.923  0.00  0.00    +0.000 A 
ATOM     17  C   UNL     1       2.684   7.584  17.782  0.00  0.00    +0.000 A 
BRANCH  12  19
ATOM     18  C   UNL     1       3.967   5.093  17.573  0.00  0.00    +0.000 C 
ATOM     19  O   UNL     1       3.490   5.520  18.844  0.00  0.00    +0.000 OA
ENDBRANCH  12  19
ENDBRANCH   1  15
BRANCH   3  20
ATOM     20  C   UNL     1      -2.055  12.256  20.763  0.00  0.00    +0.000 A 
ATOM     21  C   UNL     1      -2.100  12.256  22.158  0.00  0.00    +0.000 A 
ATOM     22  C   UNL     1      -3.226  12.702  22.858  0.00  0.00    +0.000 A 
ATOM     23  C   UNL     1      -4.365  13.087  22.160  0.00  0.00    +0.000 A 
ATOM     24  C   UNL     1      -4.366  13.028  20.769  0.00  0.00    +0.000 A 
ATOM     25  C   UNL     1      -3.218  12.631  20.075  0.00  0.00    +0.000 A 
ENDBRANCH   3  20
BRANCH   6  26
ATOM     26  C   UNL     1       0.176  16.343  19.709  0.00  0.00    +0.000 C 
ATOM     27  C   UNL     1      -0.478  17.245  18.648  0.00  0.00    +0.000 C 
ATOM     28  C   UNL     1      -1.930  17.604  18.950  0.00  0.00    +0.000 C 
ATOM     29  C   UNL     1      -2.076  18.240  20.325  0.00  0.00    +0.000 C 
ATOM     30  C   UNL     1      -1.500  17.356  21.422  0.00  0.00    +0.000 C 
ATOM     31  C   UNL     1      -0.071  16.884  21.133  0.00  0.00    +0.000 C 
ENDBRANCH   6  26
TORSDOF 4
ENDMDL
