MODEL 1
REMARK VINA RESULT:      -7.8      0.000      0.000
REMARK  Name = 
REMARK  9 active torsions:
REMARK  status: ('A' for Active; 'I' for Inactive)
REMARK    1  A    between atoms: C_1  and  O_2
REMARK    2  A    between atoms: O_2  and  C_3
REMARK    3  A    between atoms: C_6  and  N_7
REMARK    4  A    between atoms: C_11  and  C_12
REMARK    5  A    between atoms: C_12  and  C_13
REMARK    6  A    between atoms: N_15  and  C_16
REMARK    7  A    between atoms: C_19  and  O_20
REMARK    8  A    between atoms: O_20  and  C_21
REMARK    9  A    between atoms: N_27  and  C_28
REMARK                            x       y       z     vdW  Elec       q    Type
REMARK                         _______ _______ _______ _____ _____    ______ ____
ROOT
ATOM      1  C   UNL     1       7.958   6.857  18.361  0.00  0.00    +0.000 C 
ENDROOT
BRANCH   1   6
ATOM      2  N   UNL     1       4.357   3.892  16.500  0.00  0.00    +0.000 NA
ATOM      3  C   UNL     1       5.356   4.680  16.697  0.00  0.00    +0.000 A 
ATOM      4  S   UNL     1       6.316   4.980  15.182  0.00  0.00    +0.000 S 
ATOM      5  C   UNL     1       7.455   6.002  16.013  0.00  0.00    +0.000 A 
ATOM      6  C   UNL     1       7.161   6.114  17.324  0.00  0.00    +0.000 A 
ATOM      7  N   UNL     1       5.989   5.427  17.724  0.00  0.00    +0.000 N 
ATOM      8  C   UNL     1       5.533   5.520  19.104  0.00  0.00    +0.000 C 
BRANCH   2  12
ATOM      9  C   UNL     1       1.618   2.772  19.513  0.00  0.00    +0.000 A 
ATOM     10  C   UNL     1       1.320   3.834  18.658  0.00  0.00    +0.000 A 
ATOM     11  C   UNL     1       2.228   4.197  17.644  0.00  0.00    +0.000 A 
ATOM     12  C   UNL     1       3.411   3.474  17.444  0.00  0.00    +0.000 A 
ATOM     13  C   UNL     1       3.543   2.301  18.160  0.00  0.00    +0.000 A 
ATOM     14  C   UNL     1       2.758   2.024  19.269  0.00  0.00    +0.000 A 
BRANCH   9  16
ATOM     15  C   UNL     1       1.314   2.553  21.834  0.00  0.00    +0.000 C 
ATOM     16  O   UNL     1       0.739   2.499  20.526  0.00  0.00    +0.000 OA
ENDBRANCH   9  16
ENDBRANCH   2  12
ENDBRANCH   1   6
BRANCH   1  17
ATOM     17  C   UNL     1       8.086   8.350  18.254  0.00  0.00    +0.000 C 
ATOM     18  O   UNL     1       7.373   9.009  17.506  0.00  0.00    +0.000 OA
ATOM     19  N   UNL     1       9.064   8.859  19.081  0.00  0.00    +0.000 N 
ATOM     20  H   UNL     1       9.860   8.250  19.266  0.00  0.00    +0.000 HD
BRANCH  19  21
ATOM     21  C   UNL     1       9.296  10.230  19.186  0.00  0.00    +0.000 A 
ATOM     22  C   UNL     1       9.595  11.006  18.066  0.00  0.00    +0.000 A 
ATOM     23  C   UNL     1       9.747  12.399  18.223  0.00  0.00    +0.000 A 
ATOM     24  C   UNL     1       9.617  12.981  19.483  0.00  0.00    +0.000 A 
ATOM     25  C   UNL     1       9.423  12.164  20.600  0.00  0.00    +0.000 A 
ATOM     26  C   UNL     1       9.205  10.808  20.444  0.00  0.00    +0.000 A 
BRANCH  24  27
ATOM     27  O   UNL     1       9.749  14.334  19.530  0.00  0.00    +0.000 OA
BRANCH  27  28
ATOM     28  C   UNL     1       8.585  15.127  19.743  0.00  0.00    +0.000 C 
ATOM     29  F   UNL     1       8.629  16.362  19.195  0.00  0.00    +0.000 F 
ATOM     30  F   UNL     1       7.515  14.478  19.238  0.00  0.00    +0.000 F 
ATOM     31  F   UNL     1       8.401  15.283  21.072  0.00  0.00    +0.000 F 
ENDBRANCH  27  28
ENDBRANCH  24  27
ENDBRANCH  19  21
ENDBRANCH   1  17
TORSDOF 7
ENDMDL
MODEL 2
REMARK VINA RESULT:      -7.5      7.475      9.947
REMARK  Name = 
REMARK  9 active torsions:
REMARK  status: ('A' for Active; 'I' for Inactive)
REMARK    1  A    between atoms: C_1  and  O_2
REMARK    2  A    between atoms: O_2  and  C_3
REMARK    3  A    between atoms: C_6  and  N_7
REMARK    4  A    between atoms: C_11  and  C_12
REMARK    5  A    between atoms: C_12  and  C_13
REMARK    6  A    between atoms: N_15  and  C_16
REMARK    7  A    between atoms: C_19  and  O_20
REMARK    8  A    between atoms: O_20  and  C_21
REMARK    9  A    between atoms: N_27  and  C_28
REMARK                            x       y       z     vdW  Elec       q    Type
REMARK                         _______ _______ _______ _____ _____    ______ ____
ROOT
ATOM      1  C   UNL     1       1.605   8.981  19.414  0.00  0.00    +0.000 C 
ENDROOT
BRANCH   1   6
ATOM      2  N   UNL     1       3.896   4.533  18.975  0.00  0.00    +0.000 NA
ATOM      3  C   UNL     1       3.197   5.556  19.329  0.00  0.00    +0.000 A 
ATOM      4  S   UNL     1       2.113   5.201  20.746  0.00  0.00    +0.000 S 
ATOM      5  C   UNL     1       1.452   6.813  20.743  0.00  0.00    +0.000 A 
ATOM      6  C   UNL     1       1.984   7.567  19.760  0.00  0.00    +0.000 A 
ATOM      7  N   UNL     1       2.974   6.915  18.988  0.00  0.00    +0.000 N 
ATOM      8  C   UNL     1       3.665   7.644  17.934  0.00  0.00    +0.000 C 
BRANCH   2  12
ATOM      9  C   UNL     1       6.709   4.587  15.827  0.00  0.00    +0.000 A 
ATOM     10  C   UNL     1       7.140   4.697  17.149  0.00  0.00    +0.000 A 
ATOM     11  C   UNL     1       6.202   4.665  18.199  0.00  0.00    +0.000 A 
ATOM     12  C   UNL     1       4.838   4.471  17.942  0.00  0.00    +0.000 A 
ATOM     13  C   UNL     1       4.499   4.136  16.645  0.00  0.00    +0.000 A 
ATOM     14  C   UNL     1       5.369   4.333  15.584  0.00  0.00    +0.000 A 
BRANCH   9  16
ATOM     15  C   UNL     1       7.104   4.775  13.516  0.00  0.00    +0.000 C 
ATOM     16  O   UNL     1       7.648   4.693  14.836  0.00  0.00    +0.000 OA
ENDBRANCH   9  16
ENDBRANCH   2  12
ENDBRANCH   1   6
BRANCH   1  17
ATOM     17  C   UNL     1       0.187   9.431  19.622  0.00  0.00    +0.000 C 
ATOM     18  O   UNL     1      -0.370   9.333  20.709  0.00  0.00    +0.000 OA
ATOM     19  N   UNL     1      -0.377   9.956  18.478  0.00  0.00    +0.000 N 
ATOM     20  H   UNL     1      -0.045   9.571  17.595  0.00  0.00    +0.000 HD
BRANCH  19  21
ATOM     21  C   UNL     1      -1.662  10.495  18.475  0.00  0.00    +0.000 A 
ATOM     22  C   UNL     1      -1.979  11.629  19.222  0.00  0.00    +0.000 A 
ATOM     23  C   UNL     1      -3.275  12.173  19.121  0.00  0.00    +0.000 A 
ATOM     24  C   UNL     1      -4.226  11.570  18.299  0.00  0.00    +0.000 A 
ATOM     25  C   UNL     1      -3.911  10.375  17.647  0.00  0.00    +0.000 A 
ATOM     26  C   UNL     1      -2.622   9.875  17.687  0.00  0.00    +0.000 A 
BRANCH  24  27
ATOM     27  O   UNL     1      -5.438  12.183  18.243  0.00  0.00    +0.000 OA
BRANCH  27  28
ATOM     28  C   UNL     1      -6.555  11.547  18.860  0.00  0.00    +0.000 C 
ATOM     29  F   UNL     1      -7.053  10.489  18.183  0.00  0.00    +0.000 F 
ATOM     30  F   UNL     1      -6.195  11.130  20.092  0.00  0.00    +0.000 F 
ATOM     31  F   UNL     1      -7.552  12.448  18.989  0.00  0.00    +0.000 F 
ENDBRANCH  27  28
ENDBRANCH  24  27
ENDBRANCH  19  21
ENDBRANCH   1  17
TORSDOF 7
ENDMDL
MODEL 3
REMARK VINA RESULT:      -7.4      7.511      9.091
REMARK  Name = 
REMARK  9 active torsions:
REMARK  status: ('A' for Active; 'I' for Inactive)
REMARK    1  A    between atoms: C_1  and  O_2
REMARK    2  A    between atoms: O_2  and  C_3
REMARK    3  A    between atoms: C_6  and  N_7
REMARK    4  A    between atoms: C_11  and  C_12
REMARK    5  A    between atoms: C_12  and  C_13
REMARK    6  A    between atoms: N_15  and  C_16
REMARK    7  A    between atoms: C_19  and  O_20
REMARK    8  A    between atoms: O_20  and  C_21
REMARK    9  A    between atoms: N_27  and  C_28
REMARK                            x       y       z     vdW  Elec       q    Type
REMARK                         _______ _______ _______ _____ _____    ______ ____
ROOT
ATOM      1  C   UNL     1       1.468   9.196  18.951  0.00  0.00    +0.000 C 
ENDROOT
BRANCH   1   6
ATOM      2  N   UNL     1       3.905   4.805  19.009  0.00  0.00    +0.000 NA
ATOM      3  C   UNL     1       3.175   5.838  19.249  0.00  0.00    +0.000 A 
ATOM      4  S   UNL     1       2.115   5.616  20.711  0.00  0.00    +0.000 S 
ATOM      5  C   UNL     1       1.400   7.194  20.527  0.00  0.00    +0.000 A 
ATOM      6  C   UNL     1       1.897   7.845  19.456  0.00  0.00    +0.000 A 
ATOM      7  N   UNL     1       2.903   7.140  18.754  0.00  0.00    +0.000 N 
ATOM      8  C   UNL     1       3.560   7.763  17.614  0.00  0.00    +0.000 C 
BRANCH   2  12
ATOM      9  C   UNL     1       6.710   4.587  15.860  0.00  0.00    +0.000 A 
ATOM     10  C   UNL     1       7.149   4.733  17.176  0.00  0.00    +0.000 A 
ATOM     11  C   UNL     1       6.213   4.791  18.227  0.00  0.00    +0.000 A 
ATOM     12  C   UNL     1       4.841   4.653  17.979  0.00  0.00    +0.000 A 
ATOM     13  C   UNL     1       4.483   4.280  16.698  0.00  0.00    +0.000 A 
ATOM     14  C   UNL     1       5.358   4.389  15.628  0.00  0.00    +0.000 A 
BRANCH   9  16
ATOM     15  C   UNL     1       7.108   4.572  13.542  0.00  0.00    +0.000 C 
ATOM     16  O   UNL     1       7.651   4.605  14.864  0.00  0.00    +0.000 OA
ENDBRANCH   9  16
ENDBRANCH   2  12
ENDBRANCH   1   6
BRANCH   1  17
ATOM     17  C   UNL     1       0.300   9.883  19.602  0.00  0.00    +0.000 C 
ATOM     18  O   UNL     1      -0.845   9.743  19.189  0.00  0.00    +0.000 OA
ATOM     19  N   UNL     1       0.673  10.651  20.684  0.00  0.00    +0.000 N 
ATOM     20  H   UNL     1       1.604  11.064  20.645  0.00  0.00    +0.000 HD
BRANCH  19  21
ATOM     21  C   UNL     1      -0.267  11.315  21.470  0.00  0.00    +0.000 A 
ATOM     22  C   UNL     1      -0.832  10.714  22.595  0.00  0.00    +0.000 A 
ATOM     23  C   UNL     1      -1.721  11.462  23.393  0.00  0.00    +0.000 A 
ATOM     24  C   UNL     1      -2.041  12.773  23.048  0.00  0.00    +0.000 A 
ATOM     25  C   UNL     1      -1.543  13.310  21.858  0.00  0.00    +0.000 A 
ATOM     26  C   UNL     1      -0.617  12.608  21.108  0.00  0.00    +0.000 A 
BRANCH  24  27
ATOM     27  O   UNL     1      -2.883  13.424  23.894  0.00  0.00    +0.000 OA
BRANCH  27  28
ATOM     28  C   UNL     1      -4.244  13.007  23.959  0.00  0.00    +0.000 C 
ATOM     29  F   UNL     1      -4.504  12.051  24.880  0.00  0.00    +0.000 F 
ATOM     30  F   UNL     1      -5.017  14.079  24.232  0.00  0.00    +0.000 F 
ATOM     31  F   UNL     1      -4.606  12.515  22.755  0.00  0.00    +0.000 F 
ENDBRANCH  27  28
ENDBRANCH  24  27
ENDBRANCH  19  21
ENDBRANCH   1  17
TORSDOF 7
ENDMDL
MODEL 4
REMARK VINA RESULT:      -7.3      7.439      9.982
REMARK  Name = 
REMARK  9 active torsions:
REMARK  status: ('A' for Active; 'I' for Inactive)
REMARK    1  A    between atoms: C_1  and  O_2
REMARK    2  A    between atoms: O_2  and  C_3
REMARK    3  A    between atoms: C_6  and  N_7
REMARK    4  A    between atoms: C_11  and  C_12
REMARK    5  A    between atoms: C_12  and  C_13
REMARK    6  A    between atoms: N_15  and  C_16
REMARK    7  A    between atoms: C_19  and  O_20
REMARK    8  A    between atoms: O_20  and  C_21
REMARK    9  A    between atoms: N_27  and  C_28
REMARK                            x       y       z     vdW  Elec       q    Type
REMARK                         _______ _______ _______ _____ _____    ______ ____
ROOT
ATOM      1  C   UNL     1       1.550   9.081  19.503  0.00  0.00    +0.000 C 
ENDROOT
BRANCH   1   6
ATOM      2  N   UNL     1       3.863   4.671  18.851  0.00  0.00    +0.000 NA
ATOM      3  C   UNL     1       3.157   5.671  19.252  0.00  0.00    +0.000 A 
ATOM      4  S   UNL     1       2.064   5.238  20.640  0.00  0.00    +0.000 S 
ATOM      5  C   UNL     1       1.396   6.845  20.716  0.00  0.00    +0.000 A 
ATOM      6  C   UNL     1       1.932   7.652  19.778  0.00  0.00    +0.000 A 
ATOM      7  N   UNL     1       2.931   7.045  18.981  0.00  0.00    +0.000 N 
ATOM      8  C   UNL     1       3.627   7.831  17.972  0.00  0.00    +0.000 C 
BRANCH   2  12
ATOM      9  C   UNL     1       6.718   4.903  15.748  0.00  0.00    +0.000 A 
ATOM     10  C   UNL     1       7.136   4.827  17.077  0.00  0.00    +0.000 A 
ATOM     11  C   UNL     1       6.184   4.736  18.110  0.00  0.00    +0.000 A 
ATOM     12  C   UNL     1       4.814   4.667  17.823  0.00  0.00    +0.000 A 
ATOM     13  C   UNL     1       4.472   4.511  16.494  0.00  0.00    +0.000 A 
ATOM     14  C   UNL     1       5.367   4.771  15.469  0.00  0.00    +0.000 A 
BRANCH   9  16
ATOM     15  C   UNL     1       7.223   4.788  13.454  0.00  0.00    +0.000 C 
ATOM     16  O   UNL     1       7.676   5.061  14.782  0.00  0.00    +0.000 OA
ENDBRANCH   9  16
ENDBRANCH   2  12
ENDBRANCH   1   6
BRANCH   1  17
ATOM     17  C   UNL     1       0.104   9.481  19.588  0.00  0.00    +0.000 C 
ATOM     18  O   UNL     1      -0.530   9.399  20.634  0.00  0.00    +0.000 OA
ATOM     19  N   UNL     1      -0.391   9.941  18.386  0.00  0.00    +0.000 N 
ATOM     20  H   UNL     1       0.021   9.539  17.545  0.00  0.00    +0.000 HD
BRANCH  19  21
ATOM     21  C   UNL     1      -1.691  10.429  18.267  0.00  0.00    +0.000 A 
ATOM     22  C   UNL     1      -2.623   9.822  17.425  0.00  0.00    +0.000 A 
ATOM     23  C   UNL     1      -3.943  10.314  17.402  0.00  0.00    +0.000 A 
ATOM     24  C   UNL     1      -4.300  11.403  18.195  0.00  0.00    +0.000 A 
ATOM     25  C   UNL     1      -3.319  12.056  18.946  0.00  0.00    +0.000 A 
ATOM     26  C   UNL     1      -2.040  11.536  19.027  0.00  0.00    +0.000 A 
BRANCH  24  27
ATOM     27  O   UNL     1      -5.603  11.787  18.129  0.00  0.00    +0.000 OA
BRANCH  27  28
ATOM     28  C   UNL     1      -6.520  11.262  19.085  0.00  0.00    +0.000 C 
ATOM     29  F   UNL     1      -6.090  11.300  20.366  0.00  0.00    +0.000 F 
ATOM     30  F   UNL     1      -7.677  11.954  19.007  0.00  0.00    +0.000 F 
ATOM     31  F   UNL     1      -6.774   9.971  18.783  0.00  0.00    +0.000 F 
ENDBRANCH  27  28
ENDBRANCH  24  27
ENDBRANCH  19  21
ENDBRANCH   1  17
TORSDOF 7
ENDMDL
MODEL 5
REMARK VINA RESULT:      -7.2      7.620      9.832
REMARK  Name = 
REMARK  9 active torsions:
REMARK  status: ('A' for Active; 'I' for Inactive)
REMARK    1  A    between atoms: C_1  and  O_2
REMARK    2  A    between atoms: O_2  and  C_3
REMARK    3  A    between atoms: C_6  and  N_7
REMARK    4  A    between atoms: C_11  and  C_12
REMARK    5  A    between atoms: C_12  and  C_13
REMARK    6  A    between atoms: N_15  and  C_16
REMARK    7  A    between atoms: C_19  and  O_20
REMARK    8  A    between atoms: O_20  and  C_21
REMARK    9  A    between atoms: N_27  and  C_28
REMARK                            x       y       z     vdW  Elec       q    Type
REMARK                         _______ _______ _______ _____ _____    ______ ____
ROOT
ATOM      1  C   UNL     1       2.165   7.058  19.393  0.00  0.00    +0.000 C 
ENDROOT
BRANCH   1   6
ATOM      2  N   UNL     1       0.076  11.613  19.729  0.00  0.00    +0.000 NA
ATOM      3  C   UNL     1       0.775  10.571  19.438  0.00  0.00    +0.000 A 
ATOM      4  S   UNL     1       1.843  10.833  17.989  0.00  0.00    +0.000 S 
ATOM      5  C   UNL     1       2.464   9.207  18.056  0.00  0.00    +0.000 A 
ATOM      6  C   UNL     1       1.919   8.507  19.071  0.00  0.00    +0.000 A 
ATOM      7  N   UNL     1       1.013   9.241  19.873  0.00  0.00    +0.000 N 
ATOM      8  C   UNL     1       0.403   8.613  21.036  0.00  0.00    +0.000 C 
BRANCH   2  12
ATOM      9  C   UNL     1      -2.578  12.275  22.947  0.00  0.00    +0.000 A 
ATOM     10  C   UNL     1      -3.033  12.386  21.632  0.00  0.00    +0.000 A 
ATOM     11  C   UNL     1      -2.151  12.151  20.560  0.00  0.00    +0.000 A 
ATOM     12  C   UNL     1      -0.827  11.754  20.790  0.00  0.00    +0.000 A 
ATOM     13  C   UNL     1      -0.498  11.436  22.094  0.00  0.00    +0.000 A 
ATOM     14  C   UNL     1      -1.287  11.822  23.166  0.00  0.00    +0.000 A 
BRANCH   9  16
ATOM     15  C   UNL     1      -4.739  13.014  23.508  0.00  0.00    +0.000 C 
ATOM     16  O   UNL     1      -3.452  12.580  23.956  0.00  0.00    +0.000 OA
ENDBRANCH   9  16
ENDBRANCH   2  12
ENDBRANCH   1   6
BRANCH   1  17
ATOM     17  C   UNL     1       2.675   6.145  18.313  0.00  0.00    +0.000 C 
ATOM     18  O   UNL     1       1.933   5.383  17.706  0.00  0.00    +0.000 OA
ATOM     19  N   UNL     1       4.030   6.282  18.100  0.00  0.00    +0.000 N 
ATOM     20  H   UNL     1       4.590   6.543  18.911  0.00  0.00    +0.000 HD
BRANCH  19  21
ATOM     21  C   UNL     1       4.689   5.577  17.094  0.00  0.00    +0.000 A 
ATOM     22  C   UNL     1       4.873   4.197  17.171  0.00  0.00    +0.000 A 
ATOM     23  C   UNL     1       5.481   3.529  16.088  0.00  0.00    +0.000 A 
ATOM     24  C   UNL     1       5.905   4.245  14.971  0.00  0.00    +0.000 A 
ATOM     25  C   UNL     1       5.804   5.639  14.970  0.00  0.00    +0.000 A 
ATOM     26  C   UNL     1       5.147   6.293  15.996  0.00  0.00    +0.000 A 
BRANCH  24  27
ATOM     27  O   UNL     1       6.452   3.511  13.965  0.00  0.00    +0.000 OA
BRANCH  27  28
ATOM     28  C   UNL     1       5.816   3.519  12.690  0.00  0.00    +0.000 C 
ATOM     29  F   UNL     1       4.530   3.936  12.697  0.00  0.00    +0.000 F 
ATOM     30  F   UNL     1       6.516   4.319  11.858  0.00  0.00    +0.000 F 
ATOM     31  F   UNL     1       5.829   2.265  12.189  0.00  0.00    +0.000 F 
ENDBRANCH  27  28
ENDBRANCH  24  27
ENDBRANCH  19  21
ENDBRANCH   1  17
TORSDOF 7
ENDMDL
MODEL 6
REMARK VINA RESULT:      -7.1      7.375      9.819
REMARK  Name = 
REMARK  9 active torsions:
REMARK  status: ('A' for Active; 'I' for Inactive)
REMARK    1  A    between atoms: C_1  and  O_2
REMARK    2  A    between atoms: O_2  and  C_3
REMARK    3  A    between atoms: C_6  and  N_7
REMARK    4  A    between atoms: C_11  and  C_12
REMARK    5  A    between atoms: C_12  and  C_13
REMARK    6  A    between atoms: N_15  and  C_16
REMARK    7  A    between atoms: C_19  and  O_20
REMARK    8  A    between atoms: O_20  and  C_21
REMARK    9  A    between atoms: N_27  and  C_28
REMARK                            x       y       z     vdW  Elec       q    Type
REMARK                         _______ _______ _______ _____ _____    ______ ____
ROOT
ATOM      1  C   UNL     1       1.577   9.051  19.425  0.00  0.00    +0.000 C 
ENDROOT
BRANCH   1   6
ATOM      2  N   UNL     1       3.884   4.642  18.747  0.00  0.00    +0.000 NA
ATOM      3  C   UNL     1       3.179   5.640  19.153  0.00  0.00    +0.000 A 
ATOM      4  S   UNL     1       2.080   5.198  20.534  0.00  0.00    +0.000 S 
ATOM      5  C   UNL     1       1.415   6.806  20.620  0.00  0.00    +0.000 A 
ATOM      6  C   UNL     1       1.955   7.619  19.690  0.00  0.00    +0.000 A 
ATOM      7  N   UNL     1       2.956   7.016  18.892  0.00  0.00    +0.000 N 
ATOM      8  C   UNL     1       3.656   7.809  17.891  0.00  0.00    +0.000 C 
BRANCH   2  12
ATOM      9  C   UNL     1       6.743   4.892  15.649  0.00  0.00    +0.000 A 
ATOM     10  C   UNL     1       7.159   4.848  16.980  0.00  0.00    +0.000 A 
ATOM     11  C   UNL     1       6.205   4.750  18.012  0.00  0.00    +0.000 A 
ATOM     12  C   UNL     1       4.838   4.644  17.722  0.00  0.00    +0.000 A 
ATOM     13  C   UNL     1       4.504   4.458  16.395  0.00  0.00    +0.000 A 
ATOM     14  C   UNL     1       5.397   4.724  15.368  0.00  0.00    +0.000 A 
BRANCH   9  16
ATOM     15  C   UNL     1       7.264   4.734  13.361  0.00  0.00    +0.000 C 
ATOM     16  O   UNL     1       7.701   5.057  14.684  0.00  0.00    +0.000 OA
ENDBRANCH   9  16
ENDBRANCH   2  12
ENDBRANCH   1   6
BRANCH   1  17
ATOM     17  C   UNL     1       0.151   9.480  19.629  0.00  0.00    +0.000 C 
ATOM     18  O   UNL     1      -0.417   9.347  20.707  0.00  0.00    +0.000 OA
ATOM     19  N   UNL     1      -0.405  10.030  18.494  0.00  0.00    +0.000 N 
ATOM     20  H   UNL     1      -0.059   9.672  17.604  0.00  0.00    +0.000 HD
BRANCH  19  21
ATOM     21  C   UNL     1      -1.695  10.556  18.490  0.00  0.00    +0.000 A 
ATOM     22  C   UNL     1      -2.739   9.924  17.814  0.00  0.00    +0.000 A 
ATOM     23  C   UNL     1      -4.038  10.463  17.907  0.00  0.00    +0.000 A 
ATOM     24  C   UNL     1      -4.265  11.621  18.650  0.00  0.00    +0.000 A 
ATOM     25  C   UNL     1      -3.183  12.290  19.227  0.00  0.00    +0.000 A 
ATOM     26  C   UNL     1      -1.918  11.730  19.197  0.00  0.00    +0.000 A 
BRANCH  24  27
ATOM     27  O   UNL     1      -5.555  12.048  18.706  0.00  0.00    +0.000 OA
BRANCH  27  28
ATOM     28  C   UNL     1      -6.120  12.668  17.554  0.00  0.00    +0.000 C 
ATOM     29  F   UNL     1      -5.333  12.654  16.456  0.00  0.00    +0.000 F 
ATOM     30  F   UNL     1      -7.281  12.050  17.251  0.00  0.00    +0.000 F 
ATOM     31  F   UNL     1      -6.387  13.960  17.842  0.00  0.00    +0.000 F 
ENDBRANCH  27  28
ENDBRANCH  24  27
ENDBRANCH  19  21
ENDBRANCH   1  17
TORSDOF 7
ENDMDL
MODEL 7
REMARK VINA RESULT:      -7.0      0.700      1.291
REMARK  Name = 
REMARK  9 active torsions:
REMARK  status: ('A' for Active; 'I' for Inactive)
REMARK    1  A    between atoms: C_1  and  O_2
REMARK    2  A    between atoms: O_2  and  C_3
REMARK    3  A    between atoms: C_6  and  N_7
REMARK    4  A    between atoms: C_11  and  C_12
REMARK    5  A    between atoms: C_12  and  C_13
REMARK    6  A    between atoms: N_15  and  C_16
REMARK    7  A    between atoms: C_19  and  O_20
REMARK    8  A    between atoms: O_20  and  C_21
REMARK    9  A    between atoms: N_27  and  C_28
REMARK                            x       y       z     vdW  Elec       q    Type
REMARK                         _______ _______ _______ _____ _____    ______ ____
ROOT
ATOM      1  C   UNL     1       7.982   7.139  18.406  0.00  0.00    +0.000 C 
ENDROOT
BRANCH   1   6
ATOM      2  N   UNL     1       4.453   4.079  16.560  0.00  0.00    +0.000 NA
ATOM      3  C   UNL     1       5.410   4.920  16.753  0.00  0.00    +0.000 A 
ATOM      4  S   UNL     1       6.225   5.413  15.203  0.00  0.00    +0.000 S 
ATOM      5  C   UNL     1       7.354   6.445  16.036  0.00  0.00    +0.000 A 
ATOM      6  C   UNL     1       7.157   6.426  17.369  0.00  0.00    +0.000 A 
ATOM      7  N   UNL     1       6.070   5.625  17.792  0.00  0.00    +0.000 N 
ATOM      8  C   UNL     1       5.718   5.571  19.204  0.00  0.00    +0.000 C 
BRANCH   2  12
ATOM      9  C   UNL     1       2.095   2.435  19.654  0.00  0.00    +0.000 A 
ATOM     10  C   UNL     1       1.914   3.764  19.269  0.00  0.00    +0.000 A 
ATOM     11  C   UNL     1       2.691   4.307  18.228  0.00  0.00    +0.000 A 
ATOM     12  C   UNL     1       3.615   3.517  17.530  0.00  0.00    +0.000 A 
ATOM     13  C   UNL     1       3.586   2.161  17.794  0.00  0.00    +0.000 A 
ATOM     14  C   UNL     1       2.964   1.644  18.920  0.00  0.00    +0.000 A 
BRANCH   9  16
ATOM     15  C   UNL     1       1.311   2.867  21.829  0.00  0.00    +0.000 C 
ATOM     16  O   UNL     1       1.367   1.970  20.717  0.00  0.00    +0.000 OA
ENDBRANCH   9  16
ENDBRANCH   2  12
ENDBRANCH   1   6
BRANCH   1  17
ATOM     17  C   UNL     1       8.149   8.629  18.311  0.00  0.00    +0.000 C 
ATOM     18  O   UNL     1       7.411   9.320  17.618  0.00  0.00    +0.000 OA
ATOM     19  N   UNL     1       9.191   9.096  19.082  0.00  0.00    +0.000 N 
ATOM     20  H   UNL     1       9.978   8.461  19.210  0.00  0.00    +0.000 HD
BRANCH  19  21
ATOM     21  C   UNL     1       9.471  10.457  19.190  0.00  0.00    +0.000 A 
ATOM     22  C   UNL     1       9.178  11.173  20.351  0.00  0.00    +0.000 A 
ATOM     23  C   UNL     1       9.551  12.529  20.429  0.00  0.00    +0.000 A 
ATOM     24  C   UNL     1      10.187  13.145  19.353  0.00  0.00    +0.000 A 
ATOM     25  C   UNL     1      10.372  12.432  18.165  0.00  0.00    +0.000 A 
ATOM     26  C   UNL     1      10.071  11.083  18.106  0.00  0.00    +0.000 A 
BRANCH  24  27
ATOM     27  O   UNL     1      10.537  14.447  19.533  0.00  0.00    +0.000 OA
BRANCH  27  28
ATOM     28  C   UNL     1       9.665  15.462  19.043  0.00  0.00    +0.000 C 
ATOM     29  F   UNL     1       9.249  16.353  19.971  0.00  0.00    +0.000 F 
ATOM     30  F   UNL     1      10.292  16.139  18.057  0.00  0.00    +0.000 F 
ATOM     31  F   UNL     1       8.563  14.877  18.524  0.00  0.00    +0.000 F 
ENDBRANCH  27  28
ENDBRANCH  24  27
ENDBRANCH  19  21
ENDBRANCH   1  17
TORSDOF 7
ENDMDL
MODEL 8
REMARK VINA RESULT:      -7.0      9.474     11.781
REMARK  Name = 
REMARK  9 active torsions:
REMARK  status: ('A' for Active; 'I' for Inactive)
REMARK    1  A    between atoms: C_1  and  O_2
REMARK    2  A    between atoms: O_2  and  C_3
REMARK    3  A    between atoms: C_6  and  N_7
REMARK    4  A    between atoms: C_11  and  C_12
REMARK    5  A    between atoms: C_12  and  C_13
REMARK    6  A    between atoms: N_15  and  C_16
REMARK    7  A    between atoms: C_19  and  O_20
REMARK    8  A    between atoms: O_20  and  C_21
REMARK    9  A    between atoms: N_27  and  C_28
REMARK                            x       y       z     vdW  Elec       q    Type
REMARK                         _______ _______ _______ _____ _____    ______ ____
ROOT
ATOM      1  C   UNL     1       0.784   9.889  22.061  0.00  0.00    +0.000 C 
ENDROOT
BRANCH   1   6
ATOM      2  N   UNL     1      -2.006  13.811  20.626  0.00  0.00    +0.000 NA
ATOM      3  C   UNL     1      -1.101  12.911  20.801  0.00  0.00    +0.000 A 
ATOM      4  S   UNL     1       0.256  13.048  19.598  0.00  0.00    +0.000 S 
ATOM      5  C   UNL     1       1.084  11.666  20.259  0.00  0.00    +0.000 A 
ATOM      6  C   UNL     1       0.408  11.127  21.293  0.00  0.00    +0.000 A 
ATOM      7  N   UNL     1      -0.781  11.813  21.640  0.00  0.00    +0.000 N 
ATOM      8  C   UNL     1      -1.569  11.362  22.778  0.00  0.00    +0.000 C 
BRANCH   2  12
ATOM      9  C   UNL     1      -5.433  14.197  23.064  0.00  0.00    +0.000 A 
ATOM     10  C   UNL     1      -4.311  14.991  23.306  0.00  0.00    +0.000 A 
ATOM     11  C   UNL     1      -3.174  14.871  22.484  0.00  0.00    +0.000 A 
ATOM     12  C   UNL     1      -3.167  14.000  21.386  0.00  0.00    +0.000 A 
ATOM     13  C   UNL     1      -4.375  13.417  21.056  0.00  0.00    +0.000 A 
ATOM     14  C   UNL     1      -5.442  13.385  21.941  0.00  0.00    +0.000 A 
BRANCH   9  16
ATOM     15  C   UNL     1      -7.202  13.075  24.132  0.00  0.00    +0.000 C 
ATOM     16  O   UNL     1      -6.489  14.298  23.930  0.00  0.00    +0.000 OA
ENDBRANCH   9  16
ENDBRANCH   2  12
ENDBRANCH   1   6
BRANCH   1  17
ATOM     17  C   UNL     1       0.653   8.548  21.397  0.00  0.00    +0.000 C 
ATOM     18  O   UNL     1      -0.428   7.981  21.290  0.00  0.00    +0.000 OA
ATOM     19  N   UNL     1       1.859   8.065  20.936  0.00  0.00    +0.000 N 
ATOM     20  H   UNL     1       2.687   8.341  21.463  0.00  0.00    +0.000 HD
BRANCH  19  21
ATOM     21  C   UNL     1       1.947   6.869  20.226  0.00  0.00    +0.000 A 
ATOM     22  C   UNL     1       1.604   5.649  20.808  0.00  0.00    +0.000 A 
ATOM     23  C   UNL     1       1.642   4.481  20.019  0.00  0.00    +0.000 A 
ATOM     24  C   UNL     1       2.036   4.550  18.684  0.00  0.00    +0.000 A 
ATOM     25  C   UNL     1       2.476   5.768  18.160  0.00  0.00    +0.000 A 
ATOM     26  C   UNL     1       2.376   6.928  18.907  0.00  0.00    +0.000 A 
BRANCH  24  27
ATOM     27  O   UNL     1       2.013   3.378  17.996  0.00  0.00    +0.000 OA
BRANCH  27  28
ATOM     28  C   UNL     1       2.706   2.255  18.534  0.00  0.00    +0.000 C 
ATOM     29  F   UNL     1       3.765   2.561  19.317  0.00  0.00    +0.000 F 
ATOM     30  F   UNL     1       1.842   1.516  19.262  0.00  0.00    +0.000 F 
ATOM     31  F   UNL     1       3.164   1.496  17.515  0.00  0.00    +0.000 F 
ENDBRANCH  27  28
ENDBRANCH  24  27
ENDBRANCH  19  21
ENDBRANCH   1  17
TORSDOF 7
ENDMDL
MODEL 9
REMARK VINA RESULT:      -7.0      8.349     10.560
REMARK  Name = 
REMARK  9 active torsions:
REMARK  status: ('A' for Active; 'I' for Inactive)
REMARK    1  A    between atoms: C_1  and  O_2
REMARK    2  A    between atoms: O_2  and  C_3
REMARK    3  A    between atoms: C_6  and  N_7
REMARK    4  A    between atoms: C_11  and  C_12
REMARK    5  A    between atoms: C_12  and  C_13
REMARK    6  A    between atoms: N_15  and  C_16
REMARK    7  A    between atoms: C_19  and  O_20
REMARK    8  A    between atoms: O_20  and  C_21
REMARK    9  A    between atoms: N_27  and  C_28
REMARK                            x       y       z     vdW  Elec       q    Type
REMARK                         _______ _______ _______ _____ _____    ______ ____
ROOT
ATOM      1  C   UNL     1       1.325   8.799  19.951  0.00  0.00    +0.000 C 
ENDROOT
BRANCH   1   6
ATOM      2  N   UNL     1      -2.109  12.435  20.402  0.00  0.00    +0.000 NA
ATOM      3  C   UNL     1      -1.281  11.534  20.002  0.00  0.00    +0.000 A 
ATOM      4  S   UNL     1      -1.411  11.213  18.217  0.00  0.00    +0.000 S 
ATOM      5  C   UNL     1      -0.175   9.987  18.268  0.00  0.00    +0.000 A 
ATOM      6  C   UNL     1       0.303   9.813  19.517  0.00  0.00    +0.000 A 
ATOM      7  N   UNL     1      -0.260  10.676  20.488  0.00  0.00    +0.000 N 
ATOM      8  C   UNL     1       0.216  10.626  21.862  0.00  0.00    +0.000 C 
BRANCH   2  12
ATOM      9  C   UNL     1      -2.681  14.113  24.235  0.00  0.00    +0.000 A 
ATOM     10  C   UNL     1      -3.542  13.116  23.774  0.00  0.00    +0.000 A 
ATOM     11  C   UNL     1      -3.342  12.548  22.501  0.00  0.00    +0.000 A 
ATOM     12  C   UNL     1      -2.255  12.931  21.704  0.00  0.00    +0.000 A 
ATOM     13  C   UNL     1      -1.311  13.743  22.300  0.00  0.00    +0.000 A 
ATOM     14  C   UNL     1      -1.574  14.442  23.469  0.00  0.00    +0.000 A 
BRANCH   9  16
ATOM     15  C   UNL     1      -2.385  15.986  25.627  0.00  0.00    +0.000 C 
ATOM     16  O   UNL     1      -2.955  14.686  25.448  0.00  0.00    +0.000 OA
ENDBRANCH   9  16
ENDBRANCH   2  12
ENDBRANCH   1   6
BRANCH   1  17
ATOM     17  C   UNL     1       2.081   8.028  18.906  0.00  0.00    +0.000 C 
ATOM     18  O   UNL     1       2.341   8.509  17.809  0.00  0.00    +0.000 OA
ATOM     19  N   UNL     1       2.436   6.766  19.331  0.00  0.00    +0.000 N 
ATOM     20  H   UNL     1       1.805   6.320  19.995  0.00  0.00    +0.000 HD
BRANCH  19  21
ATOM     21  C   UNL     1       3.204   5.914  18.538  0.00  0.00    +0.000 A 
ATOM     22  C   UNL     1       2.626   4.868  17.820  0.00  0.00    +0.000 A 
ATOM     23  C   UNL     1       3.442   4.086  16.978  0.00  0.00    +0.000 A 
ATOM     24  C   UNL     1       4.807   4.348  16.883  0.00  0.00    +0.000 A 
ATOM     25  C   UNL     1       5.375   5.334  17.695  0.00  0.00    +0.000 A 
ATOM     26  C   UNL     1       4.571   6.149  18.471  0.00  0.00    +0.000 A 
BRANCH  24  27
ATOM     27  O   UNL     1       5.507   3.561  16.023  0.00  0.00    +0.000 OA
BRANCH  27  28
ATOM     28  C   UNL     1       6.126   4.168  14.892  0.00  0.00    +0.000 C 
ATOM     29  F   UNL     1       7.394   4.592  15.096  0.00  0.00    +0.000 F 
ATOM     30  F   UNL     1       6.135   3.284  13.872  0.00  0.00    +0.000 F 
ATOM     31  F   UNL     1       5.397   5.242  14.520  0.00  0.00    +0.000 F 
ENDBRANCH  27  28
ENDBRANCH  24  27
ENDBRANCH  19  21
ENDBRANCH   1  17
TORSDOF 7
ENDMDL
