MODEL 1
REMARK VINA RESULT:      -5.3      0.000      0.000
REMARK  Name = 
REMARK  17 active torsions:
REMARK  status: ('A' for Active; 'I' for Inactive)
REMARK    1  A    between atoms: C_1  and  O_2
REMARK    2  A    between atoms: O_2  and  C_3
REMARK    3  A    between atoms: C_4  and  O_5
REMARK    4  A    between atoms: O_5  and  C_6
REMARK    5  A    between atoms: C_7  and  O_8
REMARK    6  A    between atoms: O_8  and  C_9
REMARK    7  A    between atoms: C_9  and  C_11
REMARK    8  A    between atoms: C_11  and  C_12
REMARK    9  A    between atoms: C_11  and  C_13
REMARK   10  A    between atoms: C_11  and  C_14
REMARK   11  A    between atoms: C_17  and  C_18
REMARK   12  A    between atoms: C_22  and  O_23
REMARK   13  A    between atoms: O_23  and  C_24
REMARK   14  A    between atoms: C_24  and  C_26
REMARK   15  A    between atoms: C_26  and  C_27
REMARK   16  A    between atoms: C_26  and  C_28
REMARK   17  A    between atoms: C_26  and  C_29
REMARK                            x       y       z     vdW  Elec       q    Type
REMARK                         _______ _______ _______ _____ _____    ______ ____
ROOT
ATOM      1  C   UNL     1      -1.115  12.927  21.583  0.00  0.00    +0.000 A 
ATOM      2  C   UNL     1      -2.228  13.590  22.114  0.00  0.00    +0.000 A 
ATOM      3  C   UNL     1      -3.497  13.355  21.534  0.00  0.00    +0.000 A 
ATOM      4  C   UNL     1      -3.672  12.650  20.323  0.00  0.00    +0.000 A 
ATOM      5  C   UNL     1      -4.917  12.615  19.647  0.00  0.00    +0.000 A 
ATOM      6  C   UNL     1      -5.053  12.080  18.363  0.00  0.00    +0.000 A 
ATOM      7  C   UNL     1      -6.355  12.182  17.620  0.00  0.00    +0.000 C 
ATOM      8  C   UNL     1      -3.938  11.493  17.766  0.00  0.00    +0.000 A 
ATOM      9  C   UNL     1      -2.705  11.461  18.443  0.00  0.00    +0.000 A 
ATOM     10  C   UNL     1      -2.541  12.052  19.724  0.00  0.00    +0.000 A 
ATOM     11  C   UNL     1      -1.286  12.152  20.408  0.00  0.00    +0.000 A 
ENDROOT
BRANCH   1  13
ATOM     12  C   UNL     1       0.685  14.438  21.474  0.00  0.00    +0.000 C 
ATOM     13  O   UNL     1       0.175  13.200  21.976  0.00  0.00    +0.000 OA
ENDBRANCH   1  13
BRANCH   2  14
ATOM     14  O   UNL     1      -2.264  14.616  23.025  0.00  0.00    +0.000 OA
ATOM     15  C   UNL     1      -1.898  14.412  24.369  0.00  0.00    +0.000 C 
ENDBRANCH   2  14
BRANCH   3  16
ATOM     16  O   UNL     1      -4.617  14.057  22.068  0.00  0.00    +0.000 OA
BRANCH  16  17
ATOM     17  C   UNL     1      -5.428  13.360  22.964  0.00  0.00    +0.000 C 
ATOM     18  O   UNL     1      -5.064  12.420  23.665  0.00  0.00    +0.000 OA
BRANCH  17  19
ATOM     19  C   UNL     1      -6.856  13.934  22.995  0.00  0.00    +0.000 C 
ATOM     20  C   UNL     1      -7.594  13.662  24.315  0.00  0.00    +0.000 C 
ATOM     21  C   UNL     1      -6.752  15.453  22.788  0.00  0.00    +0.000 C 
ATOM     22  C   UNL     1      -7.660  13.314  21.841  0.00  0.00    +0.000 C 
ENDBRANCH  17  19
ENDBRANCH  16  17
ENDBRANCH   3  16
BRANCH  11  23
ATOM     23  O   UNL     1      -0.120  11.674  19.744  0.00  0.00    +0.000 OA
BRANCH  23  24
ATOM     24  C   UNL     1       0.250  10.342  19.965  0.00  0.00    +0.000 C 
ATOM     25  O   UNL     1       0.041   9.715  20.993  0.00  0.00    +0.000 OA
BRANCH  24  26
ATOM     26  C   UNL     1       1.030   9.802  18.746  0.00  0.00    +0.000 C 
ATOM     27  C   UNL     1       2.012  10.877  18.256  0.00  0.00    +0.000 C 
ATOM     28  C   UNL     1       1.829   8.551  19.143  0.00  0.00    +0.000 C 
ATOM     29  C   UNL     1       0.070   9.428  17.606  0.00  0.00    +0.000 C 
ENDBRANCH  24  26
ENDBRANCH  23  24
ENDBRANCH  11  23
TORSDOF 8
ENDMDL
MODEL 2
REMARK VINA RESULT:      -5.0      2.099      6.071
REMARK  Name = 
REMARK  17 active torsions:
REMARK  status: ('A' for Active; 'I' for Inactive)
REMARK    1  A    between atoms: C_1  and  O_2
REMARK    2  A    between atoms: O_2  and  C_3
REMARK    3  A    between atoms: C_4  and  O_5
REMARK    4  A    between atoms: O_5  and  C_6
REMARK    5  A    between atoms: C_7  and  O_8
REMARK    6  A    between atoms: O_8  and  C_9
REMARK    7  A    between atoms: C_9  and  C_11
REMARK    8  A    between atoms: C_11  and  C_12
REMARK    9  A    between atoms: C_11  and  C_13
REMARK   10  A    between atoms: C_11  and  C_14
REMARK   11  A    between atoms: C_17  and  C_18
REMARK   12  A    between atoms: C_22  and  O_23
REMARK   13  A    between atoms: O_23  and  C_24
REMARK   14  A    between atoms: C_24  and  C_26
REMARK   15  A    between atoms: C_26  and  C_27
REMARK   16  A    between atoms: C_26  and  C_28
REMARK   17  A    between atoms: C_26  and  C_29
REMARK                            x       y       z     vdW  Elec       q    Type
REMARK                         _______ _______ _______ _____ _____    ______ ____
ROOT
ATOM      1  C   UNL     1       0.248  13.032  21.189  0.00  0.00    +0.000 A 
ATOM      2  C   UNL     1      -0.204  12.127  20.222  0.00  0.00    +0.000 A 
ATOM      3  C   UNL     1      -1.592  12.057  19.954  0.00  0.00    +0.000 A 
ATOM      4  C   UNL     1      -2.563  12.700  20.752  0.00  0.00    +0.000 A 
ATOM      5  C   UNL     1      -3.948  12.442  20.603  0.00  0.00    +0.000 A 
ATOM      6  C   UNL     1      -4.899  12.929  21.505  0.00  0.00    +0.000 A 
ATOM      7  C   UNL     1      -6.341  12.524  21.397  0.00  0.00    +0.000 C 
ATOM      8  C   UNL     1      -4.468  13.761  22.537  0.00  0.00    +0.000 A 
ATOM      9  C   UNL     1      -3.106  14.082  22.669  0.00  0.00    +0.000 A 
ATOM     10  C   UNL     1      -2.125  13.547  21.793  0.00  0.00    +0.000 A 
ATOM     11  C   UNL     1      -0.713  13.744  21.950  0.00  0.00    +0.000 A 
ENDROOT
BRANCH   1  13
ATOM     12  C   UNL     1       2.436  13.783  20.759  0.00  0.00    +0.000 C 
ATOM     13  O   UNL     1       1.551  13.069  21.627  0.00  0.00    +0.000 OA
ENDBRANCH   1  13
BRANCH   2  14
ATOM     14  O   UNL     1       0.489  11.121  19.595  0.00  0.00    +0.000 OA
ATOM     15  C   UNL     1       0.851   9.947  20.281  0.00  0.00    +0.000 C 
ENDBRANCH   2  14
BRANCH   3  16
ATOM     16  O   UNL     1      -2.040  11.112  18.985  0.00  0.00    +0.000 OA
BRANCH  16  17
ATOM     17  C   UNL     1      -2.138  11.560  17.668  0.00  0.00    +0.000 C 
ATOM     18  O   UNL     1      -1.396  12.384  17.142  0.00  0.00    +0.000 OA
BRANCH  17  19
ATOM     19  C   UNL     1      -3.293  10.867  16.922  0.00  0.00    +0.000 C 
ATOM     20  C   UNL     1      -4.612  11.652  16.978  0.00  0.00    +0.000 C 
ATOM     21  C   UNL     1      -2.871  10.709  15.453  0.00  0.00    +0.000 C 
ATOM     22  C   UNL     1      -3.517   9.479  17.544  0.00  0.00    +0.000 C 
ENDBRANCH  17  19
ENDBRANCH  16  17
ENDBRANCH   3  16
BRANCH  11  23
ATOM     23  O   UNL     1      -0.262  14.483  23.081  0.00  0.00    +0.000 OA
BRANCH  23  24
ATOM     24  C   UNL     1      -0.111  15.867  22.932  0.00  0.00    +0.000 C 
ATOM     25  O   UNL     1       0.427  16.418  21.984  0.00  0.00    +0.000 OA
BRANCH  24  26
ATOM     26  C   UNL     1      -0.659  16.593  24.180  0.00  0.00    +0.000 C 
ATOM     27  C   UNL     1      -1.072  15.552  25.232  0.00  0.00    +0.000 C 
ATOM     28  C   UNL     1       0.427  17.498  24.784  0.00  0.00    +0.000 C 
ATOM     29  C   UNL     1      -1.873  17.462  23.817  0.00  0.00    +0.000 C 
ENDBRANCH  24  26
ENDBRANCH  23  24
ENDBRANCH  11  23
TORSDOF 8
ENDMDL
MODEL 3
REMARK VINA RESULT:      -5.0      1.728      2.491
REMARK  Name = 
REMARK  17 active torsions:
REMARK  status: ('A' for Active; 'I' for Inactive)
REMARK    1  A    between atoms: C_1  and  O_2
REMARK    2  A    between atoms: O_2  and  C_3
REMARK    3  A    between atoms: C_4  and  O_5
REMARK    4  A    between atoms: O_5  and  C_6
REMARK    5  A    between atoms: C_7  and  O_8
REMARK    6  A    between atoms: O_8  and  C_9
REMARK    7  A    between atoms: C_9  and  C_11
REMARK    8  A    between atoms: C_11  and  C_12
REMARK    9  A    between atoms: C_11  and  C_13
REMARK   10  A    between atoms: C_11  and  C_14
REMARK   11  A    between atoms: C_17  and  C_18
REMARK   12  A    between atoms: C_22  and  O_23
REMARK   13  A    between atoms: O_23  and  C_24
REMARK   14  A    between atoms: C_24  and  C_26
REMARK   15  A    between atoms: C_26  and  C_27
REMARK   16  A    between atoms: C_26  and  C_28
REMARK   17  A    between atoms: C_26  and  C_29
REMARK                            x       y       z     vdW  Elec       q    Type
REMARK                         _______ _______ _______ _____ _____    ______ ____
ROOT
ATOM      1  C   UNL     1      -1.490  13.798  21.947  0.00  0.00    +0.000 A 
ATOM      2  C   UNL     1      -2.756  14.158  22.424  0.00  0.00    +0.000 A 
ATOM      3  C   UNL     1      -3.897  13.565  21.832  0.00  0.00    +0.000 A 
ATOM      4  C   UNL     1      -3.839  12.789  20.655  0.00  0.00    +0.000 A 
ATOM      5  C   UNL     1      -5.007  12.391  19.958  0.00  0.00    +0.000 A 
ATOM      6  C   UNL     1      -4.955  11.785  18.700  0.00  0.00    +0.000 A 
ATOM      7  C   UNL     1      -6.213  11.500  17.930  0.00  0.00    +0.000 C 
ATOM      8  C   UNL     1      -3.705  11.496  18.154  0.00  0.00    +0.000 A 
ATOM      9  C   UNL     1      -2.531  11.825  18.854  0.00  0.00    +0.000 A 
ATOM     10  C   UNL     1      -2.571  12.493  20.107  0.00  0.00    +0.000 A 
ATOM     11  C   UNL     1      -1.411  12.957  20.809  0.00  0.00    +0.000 A 
ENDROOT
BRANCH   1  13
ATOM     12  C   UNL     1      -0.290  15.820  22.033  0.00  0.00    +0.000 C 
ATOM     13  O   UNL     1      -0.335  14.426  22.349  0.00  0.00    +0.000 OA
ENDBRANCH   1  13
BRANCH   2  14
ATOM     14  O   UNL     1      -3.095  15.174  23.282  0.00  0.00    +0.000 OA
ATOM     15  C   UNL     1      -2.902  15.051  24.671  0.00  0.00    +0.000 C 
ENDBRANCH   2  14
BRANCH   3  16
ATOM     16  O   UNL     1      -5.181  13.961  22.311  0.00  0.00    +0.000 OA
BRANCH  16  17
ATOM     17  C   UNL     1      -5.816  13.094  23.200  0.00  0.00    +0.000 C 
ATOM     18  O   UNL     1      -5.247  12.347  23.990  0.00  0.00    +0.000 OA
BRANCH  17  19
ATOM     19  C   UNL     1      -7.348  13.202  23.094  0.00  0.00    +0.000 C 
ATOM     20  C   UNL     1      -7.822  13.938  21.831  0.00  0.00    +0.000 C 
ATOM     21  C   UNL     1      -7.916  11.775  23.078  0.00  0.00    +0.000 C 
ATOM     22  C   UNL     1      -7.875  13.950  24.329  0.00  0.00    +0.000 C 
ENDBRANCH  17  19
ENDBRANCH  16  17
ENDBRANCH   3  16
BRANCH  11  23
ATOM     23  O   UNL     1      -0.140  12.783  20.190  0.00  0.00    +0.000 OA
BRANCH  23  24
ATOM     24  C   UNL     1       0.307  13.796  19.332  0.00  0.00    +0.000 C 
ATOM     25  O   UNL     1      -0.415  14.545  18.692  0.00  0.00    +0.000 OA
BRANCH  24  26
ATOM     26  C   UNL     1       1.849  13.779  19.256  0.00  0.00    +0.000 C 
ATOM     27  C   UNL     1       2.295  12.711  18.245  0.00  0.00    +0.000 C 
ATOM     28  C   UNL     1       2.369  15.147  18.785  0.00  0.00    +0.000 C 
ATOM     29  C   UNL     1       2.461  13.470  20.631  0.00  0.00    +0.000 C 
ENDBRANCH  24  26
ENDBRANCH  23  24
ENDBRANCH  11  23
TORSDOF 8
ENDMDL
MODEL 4
REMARK VINA RESULT:      -5.0      1.946      6.228
REMARK  Name = 
REMARK  17 active torsions:
REMARK  status: ('A' for Active; 'I' for Inactive)
REMARK    1  A    between atoms: C_1  and  O_2
REMARK    2  A    between atoms: O_2  and  C_3
REMARK    3  A    between atoms: C_4  and  O_5
REMARK    4  A    between atoms: O_5  and  C_6
REMARK    5  A    between atoms: C_7  and  O_8
REMARK    6  A    between atoms: O_8  and  C_9
REMARK    7  A    between atoms: C_9  and  C_11
REMARK    8  A    between atoms: C_11  and  C_12
REMARK    9  A    between atoms: C_11  and  C_13
REMARK   10  A    between atoms: C_11  and  C_14
REMARK   11  A    between atoms: C_17  and  C_18
REMARK   12  A    between atoms: C_22  and  O_23
REMARK   13  A    between atoms: O_23  and  C_24
REMARK   14  A    between atoms: C_24  and  C_26
REMARK   15  A    between atoms: C_26  and  C_27
REMARK   16  A    between atoms: C_26  and  C_28
REMARK   17  A    between atoms: C_26  and  C_29
REMARK                            x       y       z     vdW  Elec       q    Type
REMARK                         _______ _______ _______ _____ _____    ______ ____
ROOT
ATOM      1  C   UNL     1      -0.492  13.446  21.674  0.00  0.00    +0.000 A 
ATOM      2  C   UNL     1      -0.650  12.486  20.667  0.00  0.00    +0.000 A 
ATOM      3  C   UNL     1      -1.955  12.205  20.198  0.00  0.00    +0.000 A 
ATOM      4  C   UNL     1      -3.122  12.688  20.830  0.00  0.00    +0.000 A 
ATOM      5  C   UNL     1      -4.413  12.220  20.482  0.00  0.00    +0.000 A 
ATOM      6  C   UNL     1      -5.551  12.551  21.223  0.00  0.00    +0.000 A 
ATOM      7  C   UNL     1      -6.882  11.930  20.910  0.00  0.00    +0.000 C 
ATOM      8  C   UNL     1      -5.412  13.435  22.292  0.00  0.00    +0.000 A 
ATOM      9  C   UNL     1      -4.150  13.961  22.619  0.00  0.00    +0.000 A 
ATOM     10  C   UNL     1      -2.979  13.587  21.909  0.00  0.00    +0.000 A 
ATOM     11  C   UNL     1      -1.653  13.998  22.270  0.00  0.00    +0.000 A 
ENDROOT
BRANCH   1  13
ATOM     12  C   UNL     1       1.562  14.591  21.599  0.00  0.00    +0.000 C 
ATOM     13  O   UNL     1       0.710  13.681  22.299  0.00  0.00    +0.000 OA
ENDBRANCH   1  13
BRANCH   2  14
ATOM     14  O   UNL     1       0.274  11.602  20.169  0.00  0.00    +0.000 OA
ATOM     15  C   UNL     1       0.764  10.539  20.952  0.00  0.00    +0.000 C 
ENDBRANCH   2  14
BRANCH   3  16
ATOM     16  O   UNL     1      -2.103  11.206  19.190  0.00  0.00    +0.000 OA
BRANCH  16  17
ATOM     17  C   UNL     1      -2.105  11.644  17.866  0.00  0.00    +0.000 C 
ATOM     18  O   UNL     1      -1.371  12.514  17.406  0.00  0.00    +0.000 OA
BRANCH  17  19
ATOM     19  C   UNL     1      -3.137  10.876  17.021  0.00  0.00    +0.000 C 
ATOM     20  C   UNL     1      -2.665  10.596  15.587  0.00  0.00    +0.000 C 
ATOM     21  C   UNL     1      -3.411   9.537  17.724  0.00  0.00    +0.000 C 
ATOM     22  C   UNL     1      -4.435  11.698  16.963  0.00  0.00    +0.000 C 
ENDBRANCH  17  19
ENDBRANCH  16  17
ENDBRANCH   3  16
BRANCH  11  23
ATOM     23  O   UNL     1      -1.494  14.792  23.442  0.00  0.00    +0.000 OA
BRANCH  23  24
ATOM     24  C   UNL     1      -1.627  16.179  23.306  0.00  0.00    +0.000 C 
ATOM     25  O   UNL     1      -1.346  16.819  22.303  0.00  0.00    +0.000 OA
BRANCH  24  26
ATOM     26  C   UNL     1      -2.110  16.795  24.637  0.00  0.00    +0.000 C 
ATOM     27  C   UNL     1      -1.794  15.827  25.788  0.00  0.00    +0.000 C 
ATOM     28  C   UNL     1      -1.383  18.123  24.900  0.00  0.00    +0.000 C 
ATOM     29  C   UNL     1      -3.622  17.065  24.597  0.00  0.00    +0.000 C 
ENDBRANCH  24  26
ENDBRANCH  23  24
ENDBRANCH  11  23
TORSDOF 8
ENDMDL
MODEL 5
REMARK VINA RESULT:      -5.0      2.169      3.276
REMARK  Name = 
REMARK  17 active torsions:
REMARK  status: ('A' for Active; 'I' for Inactive)
REMARK    1  A    between atoms: C_1  and  O_2
REMARK    2  A    between atoms: O_2  and  C_3
REMARK    3  A    between atoms: C_4  and  O_5
REMARK    4  A    between atoms: O_5  and  C_6
REMARK    5  A    between atoms: C_7  and  O_8
REMARK    6  A    between atoms: O_8  and  C_9
REMARK    7  A    between atoms: C_9  and  C_11
REMARK    8  A    between atoms: C_11  and  C_12
REMARK    9  A    between atoms: C_11  and  C_13
REMARK   10  A    between atoms: C_11  and  C_14
REMARK   11  A    between atoms: C_17  and  C_18
REMARK   12  A    between atoms: C_22  and  O_23
REMARK   13  A    between atoms: O_23  and  C_24
REMARK   14  A    between atoms: C_24  and  C_26
REMARK   15  A    between atoms: C_26  and  C_27
REMARK   16  A    between atoms: C_26  and  C_28
REMARK   17  A    between atoms: C_26  and  C_29
REMARK                            x       y       z     vdW  Elec       q    Type
REMARK                         _______ _______ _______ _____ _____    ______ ____
ROOT
ATOM      1  C   UNL     1      -1.648  14.727  21.363  0.00  0.00    +0.000 A 
ATOM      2  C   UNL     1      -3.044  14.631  21.344  0.00  0.00    +0.000 A 
ATOM      3  C   UNL     1      -3.639  13.543  20.661  0.00  0.00    +0.000 A 
ATOM      4  C   UNL     1      -2.911  12.667  19.827  0.00  0.00    +0.000 A 
ATOM      5  C   UNL     1      -3.553  11.726  18.983  0.00  0.00    +0.000 A 
ATOM      6  C   UNL     1      -2.855  10.988  18.023  0.00  0.00    +0.000 A 
ATOM      7  C   UNL     1      -3.584  10.101  17.054  0.00  0.00    +0.000 C 
ATOM      8  C   UNL     1      -1.470  11.131  17.954  0.00  0.00    +0.000 A 
ATOM      9  C   UNL     1      -0.803  12.013  18.823  0.00  0.00    +0.000 A 
ATOM     10  C   UNL     1      -1.508  12.810  19.762  0.00  0.00    +0.000 A 
ATOM     11  C   UNL     1      -0.895  13.808  20.590  0.00  0.00    +0.000 A 
ENDROOT
BRANCH   1  13
ATOM     12  C   UNL     1      -0.563  15.670  23.226  0.00  0.00    +0.000 C 
ATOM     13  O   UNL     1      -0.982  15.820  21.867  0.00  0.00    +0.000 OA
ENDBRANCH   1  13
BRANCH   2  14
ATOM     14  O   UNL     1      -3.976  15.558  21.738  0.00  0.00    +0.000 OA
ATOM     15  C   UNL     1      -4.250  15.784  23.101  0.00  0.00    +0.000 C 
ENDBRANCH   2  14
BRANCH   3  16
ATOM     16  O   UNL     1      -5.063  13.471  20.628  0.00  0.00    +0.000 OA
BRANCH  16  17
ATOM     17  C   UNL     1      -5.673  12.642  21.569  0.00  0.00    +0.000 C 
ATOM     18  O   UNL     1      -5.191  12.322  22.651  0.00  0.00    +0.000 OA
BRANCH  17  19
ATOM     19  C   UNL     1      -7.065  12.184  21.096  0.00  0.00    +0.000 C 
ATOM     20  C   UNL     1      -7.028  10.916  20.231  0.00  0.00    +0.000 C 
ATOM     21  C   UNL     1      -7.914  11.908  22.347  0.00  0.00    +0.000 C 
ATOM     22  C   UNL     1      -7.707  13.320  20.283  0.00  0.00    +0.000 C 
ENDBRANCH  17  19
ENDBRANCH  16  17
ENDBRANCH   3  16
BRANCH  11  23
ATOM     23  O   UNL     1       0.498  14.051  20.426  0.00  0.00    +0.000 OA
BRANCH  23  24
ATOM     24  C   UNL     1       0.893  14.861  19.354  0.00  0.00    +0.000 C 
ATOM     25  O   UNL     1       0.150  15.586  18.709  0.00  0.00    +0.000 OA
BRANCH  24  26
ATOM     26  C   UNL     1       2.393  14.646  19.055  0.00  0.00    +0.000 C 
ATOM     27  C   UNL     1       3.190  14.751  20.364  0.00  0.00    +0.000 C 
ATOM     28  C   UNL     1       2.617  13.249  18.455  0.00  0.00    +0.000 C 
ATOM     29  C   UNL     1       2.907  15.695  18.058  0.00  0.00    +0.000 C 
ENDBRANCH  24  26
ENDBRANCH  23  24
ENDBRANCH  11  23
TORSDOF 8
ENDMDL
MODEL 6
REMARK VINA RESULT:      -5.0      2.613      7.408
REMARK  Name = 
REMARK  17 active torsions:
REMARK  status: ('A' for Active; 'I' for Inactive)
REMARK    1  A    between atoms: C_1  and  O_2
REMARK    2  A    between atoms: O_2  and  C_3
REMARK    3  A    between atoms: C_4  and  O_5
REMARK    4  A    between atoms: O_5  and  C_6
REMARK    5  A    between atoms: C_7  and  O_8
REMARK    6  A    between atoms: O_8  and  C_9
REMARK    7  A    between atoms: C_9  and  C_11
REMARK    8  A    between atoms: C_11  and  C_12
REMARK    9  A    between atoms: C_11  and  C_13
REMARK   10  A    between atoms: C_11  and  C_14
REMARK   11  A    between atoms: C_17  and  C_18
REMARK   12  A    between atoms: C_22  and  O_23
REMARK   13  A    between atoms: O_23  and  C_24
REMARK   14  A    between atoms: C_24  and  C_26
REMARK   15  A    between atoms: C_26  and  C_27
REMARK   16  A    between atoms: C_26  and  C_28
REMARK   17  A    between atoms: C_26  and  C_29
REMARK                            x       y       z     vdW  Elec       q    Type
REMARK                         _______ _______ _______ _____ _____    ______ ____
ROOT
ATOM      1  C   UNL     1      -0.013  14.130  22.237  0.00  0.00    +0.000 A 
ATOM      2  C   UNL     1       1.290  14.317  21.762  0.00  0.00    +0.000 A 
ATOM      3  C   UNL     1       1.720  13.561  20.645  0.00  0.00    +0.000 A 
ATOM      4  C   UNL     1       0.978  12.484  20.113  0.00  0.00    +0.000 A 
ATOM      5  C   UNL     1       1.521  11.604  19.143  0.00  0.00    +0.000 A 
ATOM      6  C   UNL     1       0.867  10.433  18.749  0.00  0.00    +0.000 A 
ATOM      7  C   UNL     1       1.530   9.455  17.823  0.00  0.00    +0.000 C 
ATOM      8  C   UNL     1      -0.397  10.170  19.276  0.00  0.00    +0.000 A 
ATOM      9  C   UNL     1      -0.983  11.060  20.194  0.00  0.00    +0.000 A 
ATOM     10  C   UNL     1      -0.304  12.223  20.644  0.00  0.00    +0.000 A 
ATOM     11  C   UNL     1      -0.801  13.101  21.663  0.00  0.00    +0.000 A 
ENDROOT
BRANCH   1  13
ATOM     12  C   UNL     1      -1.002  16.019  23.231  0.00  0.00    +0.000 C 
ATOM     13  O   UNL     1      -0.473  14.701  23.400  0.00  0.00    +0.000 OA
ENDBRANCH   1  13
BRANCH   2  14
ATOM     14  O   UNL     1       2.326  15.007  22.340  0.00  0.00    +0.000 OA
ATOM     15  C   UNL     1       2.399  16.411  22.266  0.00  0.00    +0.000 C 
ENDBRANCH   2  14
BRANCH   3  16
ATOM     16  O   UNL     1       3.059  13.743  20.188  0.00  0.00    +0.000 OA
BRANCH  16  17
ATOM     17  C   UNL     1       3.252  14.657  19.153  0.00  0.00    +0.000 C 
ATOM     18  O   UNL     1       2.410  14.967  18.314  0.00  0.00    +0.000 OA
BRANCH  17  19
ATOM     19  C   UNL     1       4.664  15.268  19.198  0.00  0.00    +0.000 C 
ATOM     20  C   UNL     1       4.667  16.802  19.123  0.00  0.00    +0.000 C 
ATOM     21  C   UNL     1       5.318  14.834  20.519  0.00  0.00    +0.000 C 
ATOM     22  C   UNL     1       5.478  14.713  18.017  0.00  0.00    +0.000 C 
ENDBRANCH  17  19
ENDBRANCH  16  17
ENDBRANCH   3  16
BRANCH  11  23
ATOM     23  O   UNL     1      -2.029  12.761  22.299  0.00  0.00    +0.000 OA
BRANCH  23  24
ATOM     24  C   UNL     1      -3.185  13.425  21.869  0.00  0.00    +0.000 C 
ATOM     25  O   UNL     1      -3.306  14.008  20.802  0.00  0.00    +0.000 OA
BRANCH  24  26
ATOM     26  C   UNL     1      -4.263  13.375  22.974  0.00  0.00    +0.000 C 
ATOM     27  C   UNL     1      -4.479  14.789  23.535  0.00  0.00    +0.000 C 
ATOM     28  C   UNL     1      -5.593  12.870  22.392  0.00  0.00    +0.000 C 
ATOM     29  C   UNL     1      -3.837  12.434  24.111  0.00  0.00    +0.000 C 
ENDBRANCH  24  26
ENDBRANCH  23  24
ENDBRANCH  11  23
TORSDOF 8
ENDMDL
MODEL 7
REMARK VINA RESULT:      -4.9      1.964      6.585
REMARK  Name = 
REMARK  17 active torsions:
REMARK  status: ('A' for Active; 'I' for Inactive)
REMARK    1  A    between atoms: C_1  and  O_2
REMARK    2  A    between atoms: O_2  and  C_3
REMARK    3  A    between atoms: C_4  and  O_5
REMARK    4  A    between atoms: O_5  and  C_6
REMARK    5  A    between atoms: C_7  and  O_8
REMARK    6  A    between atoms: O_8  and  C_9
REMARK    7  A    between atoms: C_9  and  C_11
REMARK    8  A    between atoms: C_11  and  C_12
REMARK    9  A    between atoms: C_11  and  C_13
REMARK   10  A    between atoms: C_11  and  C_14
REMARK   11  A    between atoms: C_17  and  C_18
REMARK   12  A    between atoms: C_22  and  O_23
REMARK   13  A    between atoms: O_23  and  C_24
REMARK   14  A    between atoms: C_24  and  C_26
REMARK   15  A    between atoms: C_26  and  C_27
REMARK   16  A    between atoms: C_26  and  C_28
REMARK   17  A    between atoms: C_26  and  C_29
REMARK                            x       y       z     vdW  Elec       q    Type
REMARK                         _______ _______ _______ _____ _____    ______ ____
ROOT
ATOM      1  C   UNL     1      -2.986  14.611  21.837  0.00  0.00    +0.000 A 
ATOM      2  C   UNL     1      -1.619  14.444  21.589  0.00  0.00    +0.000 A 
ATOM      3  C   UNL     1      -1.222  13.700  20.452  0.00  0.00    +0.000 A 
ATOM      4  C   UNL     1      -2.125  12.946  19.671  0.00  0.00    +0.000 A 
ATOM      5  C   UNL     1      -1.683  12.038  18.678  0.00  0.00    +0.000 A 
ATOM      6  C   UNL     1      -2.554  11.156  18.032  0.00  0.00    +0.000 A 
ATOM      7  C   UNL     1      -2.033  10.114  17.084  0.00  0.00    +0.000 C 
ATOM      8  C   UNL     1      -3.915  11.234  18.326  0.00  0.00    +0.000 A 
ATOM      9  C   UNL     1      -4.386  12.170  19.263  0.00  0.00    +0.000 A 
ATOM     10  C   UNL     1      -3.503  13.031  19.967  0.00  0.00    +0.000 A 
ATOM     11  C   UNL     1      -3.912  13.920  21.015  0.00  0.00    +0.000 A 
ENDROOT
BRANCH   1  13
ATOM     12  C   UNL     1      -3.892  16.541  22.831  0.00  0.00    +0.000 C 
ATOM     13  O   UNL     1      -3.472  15.184  22.989  0.00  0.00    +0.000 OA
ENDBRANCH   1  13
BRANCH   2  14
ATOM     14  O   UNL     1      -0.555  14.738  22.404  0.00  0.00    +0.000 OA
ATOM     15  C   UNL     1      -0.101  16.062  22.562  0.00  0.00    +0.000 C 
ENDBRANCH   2  14
BRANCH   3  16
ATOM     16  O   UNL     1       0.174  13.516  20.227  0.00  0.00    +0.000 OA
BRANCH  16  17
ATOM     17  C   UNL     1       0.772  14.343  19.276  0.00  0.00    +0.000 C 
ATOM     18  O   UNL     1       0.220  15.275  18.698  0.00  0.00    +0.000 OA
BRANCH  17  19
ATOM     19  C   UNL     1       2.246  13.963  19.047  0.00  0.00    +0.000 C 
ATOM     20  C   UNL     1       2.424  12.636  18.295  0.00  0.00    +0.000 C 
ATOM     21  C   UNL     1       2.896  15.089  18.229  0.00  0.00    +0.000 C 
ATOM     22  C   UNL     1       2.944  13.855  20.413  0.00  0.00    +0.000 C 
ENDBRANCH  17  19
ENDBRANCH  16  17
ENDBRANCH   3  16
BRANCH  11  23
ATOM     23  O   UNL     1      -5.280  13.905  21.410  0.00  0.00    +0.000 OA
BRANCH  23  24
ATOM     24  C   UNL     1      -5.709  12.846  22.219  0.00  0.00    +0.000 C 
ATOM     25  O   UNL     1      -4.994  12.199  22.970  0.00  0.00    +0.000 OA
BRANCH  24  26
ATOM     26  C   UNL     1      -7.207  12.564  21.968  0.00  0.00    +0.000 C 
ATOM     27  C   UNL     1      -7.868  13.821  21.381  0.00  0.00    +0.000 C 
ATOM     28  C   UNL     1      -7.366  11.411  20.964  0.00  0.00    +0.000 C 
ATOM     29  C   UNL     1      -7.916  12.176  23.275  0.00  0.00    +0.000 C 
ENDBRANCH  24  26
ENDBRANCH  23  24
ENDBRANCH  11  23
TORSDOF 8
ENDMDL
MODEL 8
REMARK VINA RESULT:      -4.9      2.046      6.600
REMARK  Name = 
REMARK  17 active torsions:
REMARK  status: ('A' for Active; 'I' for Inactive)
REMARK    1  A    between atoms: C_1  and  O_2
REMARK    2  A    between atoms: O_2  and  C_3
REMARK    3  A    between atoms: C_4  and  O_5
REMARK    4  A    between atoms: O_5  and  C_6
REMARK    5  A    between atoms: C_7  and  O_8
REMARK    6  A    between atoms: O_8  and  C_9
REMARK    7  A    between atoms: C_9  and  C_11
REMARK    8  A    between atoms: C_11  and  C_12
REMARK    9  A    between atoms: C_11  and  C_13
REMARK   10  A    between atoms: C_11  and  C_14
REMARK   11  A    between atoms: C_17  and  C_18
REMARK   12  A    between atoms: C_22  and  O_23
REMARK   13  A    between atoms: O_23  and  C_24
REMARK   14  A    between atoms: C_24  and  C_26
REMARK   15  A    between atoms: C_26  and  C_27
REMARK   16  A    between atoms: C_26  and  C_28
REMARK   17  A    between atoms: C_26  and  C_29
REMARK                            x       y       z     vdW  Elec       q    Type
REMARK                         _______ _______ _______ _____ _____    ______ ____
ROOT
ATOM      1  C   UNL     1      -2.731  13.244  21.933  0.00  0.00    +0.000 A 
ATOM      2  C   UNL     1      -1.439  13.345  21.404  0.00  0.00    +0.000 A 
ATOM      3  C   UNL     1      -1.243  13.049  20.034  0.00  0.00    +0.000 A 
ATOM      4  C   UNL     1      -2.237  12.462  19.222  0.00  0.00    +0.000 A 
ATOM      5  C   UNL     1      -1.954  11.973  17.923  0.00  0.00    +0.000 A 
ATOM      6  C   UNL     1      -2.881  11.227  17.188  0.00  0.00    +0.000 A 
ATOM      7  C   UNL     1      -2.502  10.608  15.873  0.00  0.00    +0.000 C 
ATOM      8  C   UNL     1      -4.151  11.030  17.729  0.00  0.00    +0.000 A 
ATOM      9  C   UNL     1      -4.475  11.558  18.991  0.00  0.00    +0.000 A 
ATOM     10  C   UNL     1      -3.524  12.268  19.770  0.00  0.00    +0.000 A 
ATOM     11  C   UNL     1      -3.761  12.726  21.108  0.00  0.00    +0.000 A 
ENDROOT
BRANCH   1  13
ATOM     12  C   UNL     1      -3.250  14.705  23.703  0.00  0.00    +0.000 C 
ATOM     13  O   UNL     1      -3.000  13.363  23.276  0.00  0.00    +0.000 OA
ENDBRANCH   1  13
BRANCH   2  14
ATOM     14  O   UNL     1      -0.249  13.511  22.067  0.00  0.00    +0.000 OA
ATOM     15  C   UNL     1       0.133  14.766  22.578  0.00  0.00    +0.000 C 
ENDBRANCH   2  14
BRANCH   3  16
ATOM     16  O   UNL     1       0.084  13.131  19.516  0.00  0.00    +0.000 OA
BRANCH  16  17
ATOM     17  C   UNL     1       0.495  14.373  19.031  0.00  0.00    +0.000 C 
ATOM     18  O   UNL     1      -0.243  15.220  18.535  0.00  0.00    +0.000 OA
BRANCH  17  19
ATOM     19  C   UNL     1       2.009  14.576  19.215  0.00  0.00    +0.000 C 
ATOM     20  C   UNL     1       2.371  15.926  19.851  0.00  0.00    +0.000 C 
ATOM     21  C   UNL     1       2.524  13.446  20.120  0.00  0.00    +0.000 C 
ATOM     22  C   UNL     1       2.689  14.480  17.839  0.00  0.00    +0.000 C 
ENDBRANCH  17  19
ENDBRANCH  16  17
ENDBRANCH   3  16
BRANCH  11  23
ATOM     23  O   UNL     1      -5.011  12.408  21.713  0.00  0.00    +0.000 OA
BRANCH  23  24
ATOM     24  C   UNL     1      -5.982  13.416  21.758  0.00  0.00    +0.000 C 
ATOM     25  O   UNL     1      -5.971  14.435  21.084  0.00  0.00    +0.000 OA
BRANCH  24  26
ATOM     26  C   UNL     1      -7.034  13.085  22.839  0.00  0.00    +0.000 C 
ATOM     27  C   UNL     1      -7.916  11.925  22.351  0.00  0.00    +0.000 C 
ATOM     28  C   UNL     1      -6.337  12.658  24.141  0.00  0.00    +0.000 C 
ATOM     29  C   UNL     1      -7.916  14.308  23.135  0.00  0.00    +0.000 C 
ENDBRANCH  24  26
ENDBRANCH  23  24
ENDBRANCH  11  23
TORSDOF 8
ENDMDL
MODEL 9
REMARK VINA RESULT:      -4.9      3.007      7.565
REMARK  Name = 
REMARK  17 active torsions:
REMARK  status: ('A' for Active; 'I' for Inactive)
REMARK    1  A    between atoms: C_1  and  O_2
REMARK    2  A    between atoms: O_2  and  C_3
REMARK    3  A    between atoms: C_4  and  O_5
REMARK    4  A    between atoms: O_5  and  C_6
REMARK    5  A    between atoms: C_7  and  O_8
REMARK    6  A    between atoms: O_8  and  C_9
REMARK    7  A    between atoms: C_9  and  C_11
REMARK    8  A    between atoms: C_11  and  C_12
REMARK    9  A    between atoms: C_11  and  C_13
REMARK   10  A    between atoms: C_11  and  C_14
REMARK   11  A    between atoms: C_17  and  C_18
REMARK   12  A    between atoms: C_22  and  O_23
REMARK   13  A    between atoms: O_23  and  C_24
REMARK   14  A    between atoms: C_24  and  C_26
REMARK   15  A    between atoms: C_26  and  C_27
REMARK   16  A    between atoms: C_26  and  C_28
REMARK   17  A    between atoms: C_26  and  C_29
REMARK                            x       y       z     vdW  Elec       q    Type
REMARK                         _______ _______ _______ _____ _____    ______ ____
ROOT
ATOM      1  C   UNL     1       0.041  11.793  20.525  0.00  0.00    +0.000 A 
ATOM      2  C   UNL     1       1.140  12.170  19.745  0.00  0.00    +0.000 A 
ATOM      3  C   UNL     1       1.319  13.541  19.444  0.00  0.00    +0.000 A 
ATOM      4  C   UNL     1       0.341  14.523  19.712  0.00  0.00    +0.000 A 
ATOM      5  C   UNL     1       0.443  15.843  19.208  0.00  0.00    +0.000 A 
ATOM      6  C   UNL     1      -0.603  16.764  19.311  0.00  0.00    +0.000 A 
ATOM      7  C   UNL     1      -0.515  18.108  18.647  0.00  0.00    +0.000 C 
ATOM      8  C   UNL     1      -1.753  16.387  20.004  0.00  0.00    +0.000 A 
ATOM      9  C   UNL     1      -1.854  15.102  20.567  0.00  0.00    +0.000 A 
ATOM     10  C   UNL     1      -0.820  14.139  20.419  0.00  0.00    +0.000 A 
ATOM     11  C   UNL     1      -0.916  12.781  20.868  0.00  0.00    +0.000 A 
ENDROOT
BRANCH   1  13
ATOM     12  C   UNL     1       0.516   9.818  21.713  0.00  0.00    +0.000 C 
ATOM     13  O   UNL     1      -0.303  10.480  20.745  0.00  0.00    +0.000 OA
ENDBRANCH   1  13
BRANCH   2  14
ATOM     14  O   UNL     1       2.007  11.374  19.039  0.00  0.00    +0.000 OA
ATOM     15  C   UNL     1       1.536  10.402  18.136  0.00  0.00    +0.000 C 
ENDBRANCH   2  14
BRANCH   3  16
ATOM     16  O   UNL     1       2.429  13.907  18.627  0.00  0.00    +0.000 OA
BRANCH  16  17
ATOM     17  C   UNL     1       3.539  14.446  19.277  0.00  0.00    +0.000 C 
ATOM     18  O   UNL     1       3.851  14.229  20.444  0.00  0.00    +0.000 OA
BRANCH  17  19
ATOM     19  C   UNL     1       4.361  15.345  18.336  0.00  0.00    +0.000 C 
ATOM     20  C   UNL     1       5.639  14.672  17.812  0.00  0.00    +0.000 C 
ATOM     21  C   UNL     1       3.467  15.711  17.141  0.00  0.00    +0.000 C 
ATOM     22  C   UNL     1       4.751  16.625  19.094  0.00  0.00    +0.000 C 
ENDBRANCH  17  19
ENDBRANCH  16  17
ENDBRANCH   3  16
BRANCH  11  23
ATOM     23  O   UNL     1      -2.140  12.355  21.457  0.00  0.00    +0.000 OA
BRANCH  23  24
ATOM     24  C   UNL     1      -2.235  12.392  22.853  0.00  0.00    +0.000 C 
ATOM     25  O   UNL     1      -1.411  11.927  23.627  0.00  0.00    +0.000 OA
BRANCH  24  26
ATOM     26  C   UNL     1      -3.571  13.043  23.274  0.00  0.00    +0.000 C 
ATOM     27  C   UNL     1      -4.565  12.961  22.105  0.00  0.00    +0.000 C 
ATOM     28  C   UNL     1      -4.166  12.295  24.477  0.00  0.00    +0.000 C 
ATOM     29  C   UNL     1      -3.363  14.514  23.667  0.00  0.00    +0.000 C 
ENDBRANCH  24  26
ENDBRANCH  23  24
ENDBRANCH  11  23
TORSDOF 8
ENDMDL
