MODEL 1
REMARK VINA RESULT:      -8.0      0.000      0.000
REMARK  Name = 
REMARK  2 active torsions:
REMARK  status: ('A' for Active; 'I' for Inactive)
REMARK    1  A    between atoms: N_3  and  C_4
REMARK    2  A    between atoms: C_13  and  N_14
REMARK                            x       y       z     vdW  Elec       q    Type
REMARK                         _______ _______ _______ _____ _____    ______ ____
ROOT
ATOM      1  O   UNL     1       3.906   6.360  19.374  0.00  0.00    +0.000 OA
ATOM      2  C   UNL     1       4.163   5.336  18.747  0.00  0.00    +0.000 C 
ATOM      3  N   UNL     1       3.236   4.347  18.522  0.00  0.00    +0.000 N 
ATOM      4  N   UNL     1       5.397   5.100  18.188  0.00  0.00    +0.000 N 
ATOM      5  C   UNL     1       6.489   6.036  18.392  0.00  0.00    +0.000 C 
ATOM      6  C   UNL     1       7.138   6.152  17.027  0.00  0.00    +0.000 C 
ATOM      7  C   UNL     1       6.995   4.733  16.462  0.00  0.00    +0.000 C 
ATOM      8  C   UNL     1       5.668   4.230  17.045  0.00  0.00    +0.000 C 
ATOM      9  H   UNL     1       3.619   3.414  18.507  0.00  0.00    +0.000 HD
ENDROOT
BRANCH   3  10
ATOM     10  C   UNL     1       1.868   4.500  19.019  0.00  0.00    +0.000 C 
ATOM     11  C   UNL     1       1.059   3.212  18.810  0.00  0.00    +0.000 C 
ATOM     12  C   UNL     1       1.391   2.116  19.821  0.00  0.00    +0.000 C 
ATOM     13  C   UNL     1       1.292   2.621  21.257  0.00  0.00    +0.000 C 
ATOM     14  C   UNL     1       2.168   3.848  21.474  0.00  0.00    +0.000 C 
ATOM     15  C   UNL     1       1.822   4.961  20.484  0.00  0.00    +0.000 C 
ENDBRANCH   3  10
BRANCH   7  16
ATOM     16  N   UNL     1       7.066   4.686  15.023  0.00  0.00    +0.000 N 
ATOM     17  C   UNL     1       6.342   3.924  14.153  0.00  0.00    +0.000 A 
ATOM     18  C   UNL     1       6.770   4.337  12.916  0.00  0.00    +0.000 A 
ATOM     19  N   UNL     1       7.720   5.306  13.065  0.00  0.00    +0.000 NA
ATOM     20  N   UNL     1       7.896   5.513  14.364  0.00  0.00    +0.000 NA
ENDBRANCH   7  16
TORSDOF 2
ENDMDL
MODEL 2
REMARK VINA RESULT:      -7.4      1.013      1.013
REMARK  Name = 
REMARK  2 active torsions:
REMARK  status: ('A' for Active; 'I' for Inactive)
REMARK    1  A    between atoms: N_3  and  C_4
REMARK    2  A    between atoms: C_13  and  N_14
REMARK                            x       y       z     vdW  Elec       q    Type
REMARK                         _______ _______ _______ _____ _____    ______ ____
ROOT
ATOM      1  O   UNL     1       2.557   6.586  18.230  0.00  0.00    +0.000 OA
ATOM      2  C   UNL     1       3.268   5.603  18.039  0.00  0.00    +0.000 C 
ATOM      3  N   UNL     1       2.851   4.320  18.296  0.00  0.00    +0.000 N 
ATOM      4  N   UNL     1       4.539   5.698  17.522  0.00  0.00    +0.000 N 
ATOM      5  C   UNL     1       5.130   6.997  17.252  0.00  0.00    +0.000 C 
ATOM      6  C   UNL     1       5.802   6.828  15.905  0.00  0.00    +0.000 C 
ATOM      7  C   UNL     1       6.305   5.379  15.958  0.00  0.00    +0.000 C 
ATOM      8  C   UNL     1       5.249   4.646  16.796  0.00  0.00    +0.000 C 
ATOM      9  H   UNL     1       3.581   3.702  18.619  0.00  0.00    +0.000 HD
ENDROOT
BRANCH   3  10
ATOM     10  C   UNL     1       1.499   4.078  18.800  0.00  0.00    +0.000 C 
ATOM     11  C   UNL     1       1.185   2.575  18.835  0.00  0.00    +0.000 C 
ATOM     12  C   UNL     1       1.840   1.844  20.005  0.00  0.00    +0.000 C 
ATOM     13  C   UNL     1       1.531   2.518  21.338  0.00  0.00    +0.000 C 
ATOM     14  C   UNL     1       1.929   3.989  21.320  0.00  0.00    +0.000 C 
ATOM     15  C   UNL     1       1.254   4.735  20.168  0.00  0.00    +0.000 C 
ENDBRANCH   3  10
BRANCH   7  16
ATOM     16  N   UNL     1       6.527   4.808  14.652  0.00  0.00    +0.000 N 
ATOM     17  C   UNL     1       5.835   3.814  14.022  0.00  0.00    +0.000 A 
ATOM     18  C   UNL     1       6.430   3.730  12.788  0.00  0.00    +0.000 A 
ATOM     19  N   UNL     1       7.442   4.642  12.707  0.00  0.00    +0.000 NA
ATOM     20  N   UNL     1       7.494   5.300  13.859  0.00  0.00    +0.000 NA
ENDBRANCH   7  16
TORSDOF 2
ENDMDL
MODEL 3
REMARK VINA RESULT:      -7.4      0.808      1.391
REMARK  Name = 
REMARK  2 active torsions:
REMARK  status: ('A' for Active; 'I' for Inactive)
REMARK    1  A    between atoms: N_3  and  C_4
REMARK    2  A    between atoms: C_13  and  N_14
REMARK                            x       y       z     vdW  Elec       q    Type
REMARK                         _______ _______ _______ _____ _____    ______ ____
ROOT
ATOM      1  O   UNL     1       4.489   6.300  19.724  0.00  0.00    +0.000 OA
ATOM      2  C   UNL     1       4.843   5.260  19.175  0.00  0.00    +0.000 C 
ATOM      3  N   UNL     1       4.128   4.090  19.264  0.00  0.00    +0.000 N 
ATOM      4  N   UNL     1       5.973   5.181  18.396  0.00  0.00    +0.000 N 
ATOM      5  C   UNL     1       6.854   6.327  18.257  0.00  0.00    +0.000 C 
ATOM      6  C   UNL     1       7.198   6.355  16.782  0.00  0.00    +0.000 C 
ATOM      7  C   UNL     1       7.265   4.865  16.422  0.00  0.00    +0.000 C 
ATOM      8  C   UNL     1       6.210   4.214  17.326  0.00  0.00    +0.000 C 
ATOM      9  H   UNL     1       4.695   3.256  19.271  0.00  0.00    +0.000 HD
ENDROOT
BRANCH   3  10
ATOM     10  C   UNL     1       2.875   4.054  20.020  0.00  0.00    +0.000 C 
ATOM     11  C   UNL     1       1.725   4.672  19.211  0.00  0.00    +0.000 C 
ATOM     12  C   UNL     1       1.188   3.751  18.118  0.00  0.00    +0.000 C 
ATOM     13  C   UNL     1       0.819   2.376  18.667  0.00  0.00    +0.000 C 
ATOM     14  C   UNL     1       1.996   1.736  19.392  0.00  0.00    +0.000 C 
ATOM     15  C   UNL     1       2.523   2.640  20.507  0.00  0.00    +0.000 C 
ENDBRANCH   3  10
BRANCH   7  16
ATOM     16  N   UNL     1       7.077   4.613  15.014  0.00  0.00    +0.000 N 
ATOM     17  C   UNL     1       6.205   3.757  14.406  0.00  0.00    +0.000 A 
ATOM     18  C   UNL     1       6.407   3.979  13.066  0.00  0.00    +0.000 A 
ATOM     19  N   UNL     1       7.372   4.929  12.903  0.00  0.00    +0.000 NA
ATOM     20  N   UNL     1       7.778   5.313  14.106  0.00  0.00    +0.000 NA
ENDBRANCH   7  16
TORSDOF 2
ENDMDL
MODEL 4
REMARK VINA RESULT:      -7.2      0.959      1.107
REMARK  Name = 
REMARK  2 active torsions:
REMARK  status: ('A' for Active; 'I' for Inactive)
REMARK    1  A    between atoms: N_3  and  C_4
REMARK    2  A    between atoms: C_13  and  N_14
REMARK                            x       y       z     vdW  Elec       q    Type
REMARK                         _______ _______ _______ _____ _____    ______ ____
ROOT
ATOM      1  O   UNL     1       3.402   6.635  18.601  0.00  0.00    +0.000 OA
ATOM      2  C   UNL     1       3.815   5.552  18.194  0.00  0.00    +0.000 C 
ATOM      3  N   UNL     1       3.069   4.400  18.254  0.00  0.00    +0.000 N 
ATOM      4  N   UNL     1       5.053   5.400  17.616  0.00  0.00    +0.000 N 
ATOM      5  C   UNL     1       5.971   6.524  17.536  0.00  0.00    +0.000 C 
ATOM      6  C   UNL     1       6.547   6.434  16.137  0.00  0.00    +0.000 C 
ATOM      7  C   UNL     1       6.637   4.920  15.905  0.00  0.00    +0.000 C 
ATOM      8  C   UNL     1       5.437   4.351  16.674  0.00  0.00    +0.000 C 
ATOM      9  H   UNL     1       3.608   3.563  18.416  0.00  0.00    +0.000 HD
ENDROOT
BRANCH   3  10
ATOM     10  C   UNL     1       1.711   4.435  18.800  0.00  0.00    +0.000 C 
ATOM     11  C   UNL     1       1.035   3.062  18.684  0.00  0.00    +0.000 C 
ATOM     12  C   UNL     1       1.517   2.057  19.729  0.00  0.00    +0.000 C 
ATOM     13  C   UNL     1       1.417   2.621  21.143  0.00  0.00    +0.000 C 
ATOM     14  C   UNL     1       2.166   3.941  21.267  0.00  0.00    +0.000 C 
ATOM     15  C   UNL     1       1.670   4.962  20.243  0.00  0.00    +0.000 C 
ENDBRANCH   3  10
BRANCH   7  16
ATOM     16  N   UNL     1       6.670   4.562  14.508  0.00  0.00    +0.000 N 
ATOM     17  C   UNL     1       7.534   4.977  13.537  0.00  0.00    +0.000 A 
ATOM     18  C   UNL     1       7.146   4.269  12.426  0.00  0.00    +0.000 A 
ATOM     19  N   UNL     1       6.084   3.473  12.743  0.00  0.00    +0.000 NA
ATOM     20  N   UNL     1       5.798   3.660  14.025  0.00  0.00    +0.000 NA
ENDBRANCH   7  16
TORSDOF 2
ENDMDL
MODEL 5
REMARK VINA RESULT:      -7.1      2.235      3.206
REMARK  Name = 
REMARK  2 active torsions:
REMARK  status: ('A' for Active; 'I' for Inactive)
REMARK    1  A    between atoms: N_3  and  C_4
REMARK    2  A    between atoms: C_13  and  N_14
REMARK                            x       y       z     vdW  Elec       q    Type
REMARK                         _______ _______ _______ _____ _____    ______ ____
ROOT
ATOM      1  O   UNL     1       3.710   2.124  17.366  0.00  0.00    +0.000 OA
ATOM      2  C   UNL     1       3.611   3.348  17.369  0.00  0.00    +0.000 C 
ATOM      3  N   UNL     1       2.617   4.013  18.044  0.00  0.00    +0.000 N 
ATOM      4  N   UNL     1       4.504   4.165  16.718  0.00  0.00    +0.000 N 
ATOM      5  C   UNL     1       5.576   3.596  15.919  0.00  0.00    +0.000 C 
ATOM      6  C   UNL     1       6.789   4.432  16.274  0.00  0.00    +0.000 C 
ATOM      7  C   UNL     1       6.190   5.829  16.477  0.00  0.00    +0.000 C 
ATOM      8  C   UNL     1       4.793   5.558  17.053  0.00  0.00    +0.000 C 
ATOM      9  H   UNL     1       2.300   4.858  17.593  0.00  0.00    +0.000 HD
ENDROOT
BRANCH   3  10
ATOM     10  C   UNL     1       1.631   3.261  18.822  0.00  0.00    +0.000 C 
ATOM     11  C   UNL     1       2.289   2.082  19.553  0.00  0.00    +0.000 C 
ATOM     12  C   UNL     1       3.073   2.498  20.795  0.00  0.00    +0.000 C 
ATOM     13  C   UNL     1       2.229   3.349  21.739  0.00  0.00    +0.000 C 
ATOM     14  C   UNL     1       1.653   4.564  21.023  0.00  0.00    +0.000 C 
ATOM     15  C   UNL     1       0.842   4.154  19.793  0.00  0.00    +0.000 C 
ENDBRANCH   3  10
BRANCH   7  16
ATOM     16  N   UNL     1       7.013   6.686  17.295  0.00  0.00    +0.000 N 
ATOM     17  C   UNL     1       7.693   6.383  18.439  0.00  0.00    +0.000 A 
ATOM     18  C   UNL     1       8.356   7.545  18.745  0.00  0.00    +0.000 A 
ATOM     19  N   UNL     1       8.063   8.496  17.811  0.00  0.00    +0.000 NA
ATOM     20  N   UNL     1       7.235   7.958  16.924  0.00  0.00    +0.000 NA
ENDBRANCH   7  16
TORSDOF 2
ENDMDL
MODEL 6
REMARK VINA RESULT:      -6.9      4.522      7.061
REMARK  Name = 
REMARK  2 active torsions:
REMARK  status: ('A' for Active; 'I' for Inactive)
REMARK    1  A    between atoms: N_3  and  C_4
REMARK    2  A    between atoms: C_13  and  N_14
REMARK                            x       y       z     vdW  Elec       q    Type
REMARK                         _______ _______ _______ _____ _____    ______ ____
ROOT
ATOM      1  O   UNL     1       1.941   9.227  17.167  0.00  0.00    +0.000 OA
ATOM      2  C   UNL     1       1.945   8.829  18.329  0.00  0.00    +0.000 C 
ATOM      3  N   UNL     1       1.218   9.433  19.325  0.00  0.00    +0.000 N 
ATOM      4  N   UNL     1       2.657   7.724  18.731  0.00  0.00    +0.000 N 
ATOM      5  C   UNL     1       3.514   7.018  17.793  0.00  0.00    +0.000 C 
ATOM      6  C   UNL     1       3.241   5.554  18.071  0.00  0.00    +0.000 C 
ATOM      7  C   UNL     1       3.017   5.532  19.588  0.00  0.00    +0.000 C 
ATOM      8  C   UNL     1       2.354   6.884  19.888  0.00  0.00    +0.000 C 
ATOM      9  H   UNL     1       1.659   9.413  20.233  0.00  0.00    +0.000 HD
ENDROOT
BRANCH   3  10
ATOM     10  C   UNL     1       0.374  10.589  19.018  0.00  0.00    +0.000 C 
ATOM     11  C   UNL     1      -0.907  10.577  19.865  0.00  0.00    +0.000 C 
ATOM     12  C   UNL     1      -0.684  11.020  21.309  0.00  0.00    +0.000 C 
ATOM     13  C   UNL     1       0.033  12.365  21.385  0.00  0.00    +0.000 C 
ATOM     14  C   UNL     1       1.346  12.336  20.613  0.00  0.00    +0.000 C 
ATOM     15  C   UNL     1       1.128  11.921  19.157  0.00  0.00    +0.000 C 
ENDBRANCH   3  10
BRANCH   7  16
ATOM     16  N   UNL     1       2.259   4.389  20.033  0.00  0.00    +0.000 N 
ATOM     17  C   UNL     1       2.103   3.903  21.299  0.00  0.00    +0.000 A 
ATOM     18  C   UNL     1       1.230   2.855  21.145  0.00  0.00    +0.000 A 
ATOM     19  N   UNL     1       0.897   2.731  19.828  0.00  0.00    +0.000 NA
ATOM     20  N   UNL     1       1.534   3.679  19.152  0.00  0.00    +0.000 NA
ENDBRANCH   7  16
TORSDOF 2
ENDMDL
MODEL 7
REMARK VINA RESULT:      -6.8      2.370      3.529
REMARK  Name = 
REMARK  2 active torsions:
REMARK  status: ('A' for Active; 'I' for Inactive)
REMARK    1  A    between atoms: N_3  and  C_4
REMARK    2  A    between atoms: C_13  and  N_14
REMARK                            x       y       z     vdW  Elec       q    Type
REMARK                         _______ _______ _______ _____ _____    ______ ____
ROOT
ATOM      1  O   UNL     1       4.408   2.285  16.680  0.00  0.00    +0.000 OA
ATOM      2  C   UNL     1       4.195   3.374  17.207  0.00  0.00    +0.000 C 
ATOM      3  N   UNL     1       3.487   3.511  18.376  0.00  0.00    +0.000 N 
ATOM      4  N   UNL     1       4.671   4.554  16.686  0.00  0.00    +0.000 N 
ATOM      5  C   UNL     1       5.391   4.566  15.425  0.00  0.00    +0.000 C 
ATOM      6  C   UNL     1       6.555   5.505  15.669  0.00  0.00    +0.000 C 
ATOM      7  C   UNL     1       5.947   6.563  16.599  0.00  0.00    +0.000 C 
ATOM      8  C   UNL     1       4.927   5.781  17.439  0.00  0.00    +0.000 C 
ATOM      9  H   UNL     1       2.934   4.353  18.432  0.00  0.00    +0.000 HD
ENDROOT
BRANCH   3  10
ATOM     10  C   UNL     1       2.970   2.325  19.061  0.00  0.00    +0.000 C 
ATOM     11  C   UNL     1       3.460   2.271  20.515  0.00  0.00    +0.000 C 
ATOM     12  C   UNL     1       2.719   3.231  21.442  0.00  0.00    +0.000 C 
ATOM     13  C   UNL     1       1.207   3.055  21.348  0.00  0.00    +0.000 C 
ATOM     14  C   UNL     1       0.721   3.198  19.911  0.00  0.00    +0.000 C 
ATOM     15  C   UNL     1       1.439   2.220  18.980  0.00  0.00    +0.000 C 
ENDBRANCH   3  10
BRANCH   7  16
ATOM     16  N   UNL     1       6.936   7.270  17.375  0.00  0.00    +0.000 N 
ATOM     17  C   UNL     1       7.772   6.790  18.341  0.00  0.00    +0.000 A 
ATOM     18  C   UNL     1       8.538   7.877  18.684  0.00  0.00    +0.000 A 
ATOM     19  N   UNL     1       8.152   8.956  17.944  0.00  0.00    +0.000 NA
ATOM     20  N   UNL     1       7.166   8.574  17.142  0.00  0.00    +0.000 NA
ENDBRANCH   7  16
TORSDOF 2
ENDMDL
MODEL 8
REMARK VINA RESULT:      -6.8      1.696      2.248
REMARK  Name = 
REMARK  2 active torsions:
REMARK  status: ('A' for Active; 'I' for Inactive)
REMARK    1  A    between atoms: N_3  and  C_4
REMARK    2  A    between atoms: C_13  and  N_14
REMARK                            x       y       z     vdW  Elec       q    Type
REMARK                         _______ _______ _______ _____ _____    ______ ____
ROOT
ATOM      1  O   UNL     1       5.146   6.036  18.526  0.00  0.00    +0.000 OA
ATOM      2  C   UNL     1       5.192   4.930  17.993  0.00  0.00    +0.000 C 
ATOM      3  N   UNL     1       4.369   3.892  18.355  0.00  0.00    +0.000 N 
ATOM      4  N   UNL     1       6.057   4.641  16.963  0.00  0.00    +0.000 N 
ATOM      5  C   UNL     1       7.023   5.628  16.513  0.00  0.00    +0.000 C 
ATOM      6  C   UNL     1       6.969   5.537  15.001  0.00  0.00    +0.000 C 
ATOM      7  C   UNL     1       6.729   4.041  14.759  0.00  0.00    +0.000 C 
ATOM      8  C   UNL     1       5.867   3.603  15.951  0.00  0.00    +0.000 C 
ATOM      9  H   UNL     1       4.794   2.980  18.288  0.00  0.00    +0.000 HD
ENDROOT
BRANCH   3  10
ATOM     10  C   UNL     1       3.366   4.086  19.403  0.00  0.00    +0.000 C 
ATOM     11  C   UNL     1       2.122   4.798  18.851  0.00  0.00    +0.000 C 
ATOM     12  C   UNL     1       1.211   3.883  18.034  0.00  0.00    +0.000 C 
ATOM     13  C   UNL     1       0.845   2.617  18.802  0.00  0.00    +0.000 C 
ATOM     14  C   UNL     1       2.090   1.874  19.269  0.00  0.00    +0.000 C 
ATOM     15  C   UNL     1       2.994   2.774  20.112  0.00  0.00    +0.000 C 
ENDBRANCH   3  10
BRANCH   7  16
ATOM     16  N   UNL     1       6.145   3.762  13.471  0.00  0.00    +0.000 N 
ATOM     17  C   UNL     1       6.765   3.417  12.305  0.00  0.00    +0.000 A 
ATOM     18  C   UNL     1       5.728   3.204  11.431  0.00  0.00    +0.000 A 
ATOM     19  N   UNL     1       4.542   3.426  12.069  0.00  0.00    +0.000 NA
ATOM     20  N   UNL     1       4.809   3.769  13.323  0.00  0.00    +0.000 NA
ENDBRANCH   7  16
TORSDOF 2
ENDMDL
MODEL 9
REMARK VINA RESULT:      -6.8      5.435      7.731
REMARK  Name = 
REMARK  2 active torsions:
REMARK  status: ('A' for Active; 'I' for Inactive)
REMARK    1  A    between atoms: N_3  and  C_4
REMARK    2  A    between atoms: C_13  and  N_14
REMARK                            x       y       z     vdW  Elec       q    Type
REMARK                         _______ _______ _______ _____ _____    ______ ____
ROOT
ATOM      1  O   UNL     1       1.590   7.804  21.556  0.00  0.00    +0.000 OA
ATOM      2  C   UNL     1       1.636   8.119  20.370  0.00  0.00    +0.000 C 
ATOM      3  N   UNL     1       2.159   7.297  19.400  0.00  0.00    +0.000 N 
ATOM      4  N   UNL     1       1.143   9.313  19.901  0.00  0.00    +0.000 N 
ATOM      5  C   UNL     1       0.609  10.302  20.821  0.00  0.00    +0.000 C 
ATOM      6  C   UNL     1      -0.651  10.800  20.143  0.00  0.00    +0.000 C 
ATOM      7  C   UNL     1      -0.269  10.772  18.657  0.00  0.00    +0.000 C 
ATOM      8  C   UNL     1       0.683   9.574  18.538  0.00  0.00    +0.000 C 
ATOM      9  H   UNL     1       2.627   7.783  18.651  0.00  0.00    +0.000 HD
ENDROOT
BRANCH   3  10
ATOM     10  C   UNL     1       2.670   5.974  19.761  0.00  0.00    +0.000 C 
ATOM     11  C   UNL     1       1.689   4.870  19.339  0.00  0.00    +0.000 C 
ATOM     12  C   UNL     1       1.724   4.567  17.842  0.00  0.00    +0.000 C 
ATOM     13  C   UNL     1       3.141   4.282  17.355  0.00  0.00    +0.000 C 
ATOM     14  C   UNL     1       4.086   5.424  17.703  0.00  0.00    +0.000 C 
ATOM     15  C   UNL     1       4.079   5.716  19.204  0.00  0.00    +0.000 C 
ENDBRANCH   3  10
BRANCH   7  16
ATOM     16  N   UNL     1      -1.412  10.710  17.779  0.00  0.00    +0.000 N 
ATOM     17  C   UNL     1      -1.786   9.711  16.928  0.00  0.00    +0.000 A 
ATOM     18  C   UNL     1      -2.977  10.153  16.405  0.00  0.00    +0.000 A 
ATOM     19  N   UNL     1      -3.279  11.375  16.932  0.00  0.00    +0.000 NA
ATOM     20  N   UNL     1      -2.310  11.710  17.775  0.00  0.00    +0.000 NA
ENDBRANCH   7  16
TORSDOF 2
ENDMDL
