MODEL 1
REMARK VINA RESULT:      -8.7      0.000      0.000
REMARK  Name = 
REMARK  2 active torsions:
REMARK  status: ('A' for Active; 'I' for Inactive)
REMARK    1  A    between atoms: C_4  and  C_5
REMARK    2  A    between atoms: C_7  and  C_8
REMARK                            x       y       z     vdW  Elec       q    Type
REMARK                         _______ _______ _______ _____ _____    ______ ____
ROOT
ATOM      1  C   UNL     1       5.741   5.296  15.676  0.00  0.00    +0.000 A 
ATOM      2  N   UNL     1       4.833   4.796  16.488  0.00  0.00    +0.000 NA
ATOM      3  C   UNL     1       4.598   5.795  17.421  0.00  0.00    +0.000 A 
ATOM      4  C   UNL     1       5.441   6.852  17.169  0.00  0.00    +0.000 A 
ATOM      5  O   UNL     1       6.181   6.543  16.056  0.00  0.00    +0.000 OA
ENDROOT
BRANCH   3   6
ATOM      6  C   UNL     1       3.431   5.637  18.284  0.00  0.00    +0.000 A 
ATOM      7  C   UNL     1       3.004   6.673  19.092  0.00  0.00    +0.000 A 
ATOM      8  N   UNL     1       2.439   6.065  20.166  0.00  0.00    +0.000 N 
ATOM      9  C   UNL     1       1.930   4.850  19.775  0.00  0.00    +0.000 A 
ATOM     10  C   UNL     1       0.997   4.036  20.424  0.00  0.00    +0.000 A 
ATOM     11  C   UNL     1       0.652   2.839  19.802  0.00  0.00    +0.000 A 
ATOM     12  C   UNL     1       1.296   2.444  18.631  0.00  0.00    +0.000 A 
ATOM     13  C   UNL     1       2.295   3.242  18.034  0.00  0.00    +0.000 A 
ATOM     14  C   UNL     1       2.588   4.514  18.584  0.00  0.00    +0.000 A 
ATOM     15  H   UNL     1       2.386   6.458  21.094  0.00  0.00    +0.000 HD
ENDBRANCH   3   6
BRANCH   1  19
ATOM     16  C   UNL     1       6.995   3.864  11.822  0.00  0.00    +0.000 A 
ATOM     17  C   UNL     1       5.851   3.348  12.427  0.00  0.00    +0.000 A 
ATOM     18  C   UNL     1       5.464   3.797  13.699  0.00  0.00    +0.000 A 
ATOM     19  C   UNL     1       6.211   4.771  14.385  0.00  0.00    +0.000 A 
ATOM     20  C   UNL     1       7.373   5.262  13.761  0.00  0.00    +0.000 A 
ATOM     21  C   UNL     1       7.762   4.809  12.491  0.00  0.00    +0.000 A 
ENDBRANCH   1  19
TORSDOF 2
ENDMDL
MODEL 2
REMARK VINA RESULT:      -8.6      1.434      6.977
REMARK  Name = 
REMARK  2 active torsions:
REMARK  status: ('A' for Active; 'I' for Inactive)
REMARK    1  A    between atoms: C_4  and  C_5
REMARK    2  A    between atoms: C_7  and  C_8
REMARK                            x       y       z     vdW  Elec       q    Type
REMARK                         _______ _______ _______ _____ _____    ______ ____
ROOT
ATOM      1  C   UNL     1       3.318   4.972  17.995  0.00  0.00    +0.000 A 
ATOM      2  N   UNL     1       4.020   4.406  17.037  0.00  0.00    +0.000 NA
ATOM      3  C   UNL     1       4.758   5.437  16.476  0.00  0.00    +0.000 A 
ATOM      4  C   UNL     1       4.411   6.621  17.085  0.00  0.00    +0.000 A 
ATOM      5  O   UNL     1       3.486   6.337  18.058  0.00  0.00    +0.000 OA
ENDROOT
BRANCH   3   6
ATOM      6  C   UNL     1       5.843   5.064  15.573  0.00  0.00    +0.000 A 
ATOM      7  C   UNL     1       7.155   5.360  15.886  0.00  0.00    +0.000 A 
ATOM      8  N   UNL     1       7.768   5.531  14.687  0.00  0.00    +0.000 N 
ATOM      9  C   UNL     1       7.132   4.757  13.747  0.00  0.00    +0.000 A 
ATOM     10  C   UNL     1       7.584   4.355  12.486  0.00  0.00    +0.000 A 
ATOM     11  C   UNL     1       6.728   3.564  11.724  0.00  0.00    +0.000 A 
ATOM     12  C   UNL     1       5.442   3.279  12.178  0.00  0.00    +0.000 A 
ATOM     13  C   UNL     1       4.976   3.763  13.419  0.00  0.00    +0.000 A 
ATOM     14  C   UNL     1       5.860   4.477  14.263  0.00  0.00    +0.000 A 
ATOM     15  H   UNL     1       8.573   6.117  14.525  0.00  0.00    +0.000 HD
ENDBRANCH   3   6
BRANCH   1  19
ATOM     16  C   UNL     1       1.086   2.955  21.066  0.00  0.00    +0.000 A 
ATOM     17  C   UNL     1       0.739   2.800  19.726  0.00  0.00    +0.000 A 
ATOM     18  C   UNL     1       1.451   3.486  18.731  0.00  0.00    +0.000 A 
ATOM     19  C   UNL     1       2.525   4.334  19.057  0.00  0.00    +0.000 A 
ATOM     20  C   UNL     1       2.843   4.488  20.419  0.00  0.00    +0.000 A 
ATOM     21  C   UNL     1       2.128   3.806  21.414  0.00  0.00    +0.000 A 
ENDBRANCH   1  19
TORSDOF 2
ENDMDL
MODEL 3
REMARK VINA RESULT:      -8.6      1.558      7.069
REMARK  Name = 
REMARK  2 active torsions:
REMARK  status: ('A' for Active; 'I' for Inactive)
REMARK    1  A    between atoms: C_4  and  C_5
REMARK    2  A    between atoms: C_7  and  C_8
REMARK                            x       y       z     vdW  Elec       q    Type
REMARK                         _______ _______ _______ _____ _____    ______ ____
ROOT
ATOM      1  C   UNL     1       3.441   4.602  18.102  0.00  0.00    +0.000 A 
ATOM      2  N   UNL     1       4.167   4.105  17.124  0.00  0.00    +0.000 NA
ATOM      3  C   UNL     1       4.787   5.201  16.544  0.00  0.00    +0.000 A 
ATOM      4  C   UNL     1       4.345   6.347  17.165  0.00  0.00    +0.000 A 
ATOM      5  O   UNL     1       3.479   5.976  18.162  0.00  0.00    +0.000 OA
ENDROOT
BRANCH   3   6
ATOM      6  C   UNL     1       5.877   4.933  15.611  0.00  0.00    +0.000 A 
ATOM      7  C   UNL     1       7.175   5.295  15.918  0.00  0.00    +0.000 A 
ATOM      8  N   UNL     1       7.757   5.553  14.719  0.00  0.00    +0.000 N 
ATOM      9  C   UNL     1       7.153   4.781  13.755  0.00  0.00    +0.000 A 
ATOM     10  C   UNL     1       7.607   4.461  12.473  0.00  0.00    +0.000 A 
ATOM     11  C   UNL     1       6.788   3.652  11.689  0.00  0.00    +0.000 A 
ATOM     12  C   UNL     1       5.530   3.270  12.149  0.00  0.00    +0.000 A 
ATOM     13  C   UNL     1       5.055   3.672  13.416  0.00  0.00    +0.000 A 
ATOM     14  C   UNL     1       5.909   4.403  14.278  0.00  0.00    +0.000 A 
ATOM     15  H   UNL     1       8.522   6.193  14.571  0.00  0.00    +0.000 HD
ENDBRANCH   3   6
BRANCH   1  19
ATOM     16  C   UNL     1       1.450   2.654  21.377  0.00  0.00    +0.000 A 
ATOM     17  C   UNL     1       2.830   2.538  21.221  0.00  0.00    +0.000 A 
ATOM     18  C   UNL     1       3.469   3.150  20.133  0.00  0.00    +0.000 A 
ATOM     19  C   UNL     1       2.742   3.892  19.185  0.00  0.00    +0.000 A 
ATOM     20  C   UNL     1       1.348   3.978  19.354  0.00  0.00    +0.000 A 
ATOM     21  C   UNL     1       0.708   3.362  20.439  0.00  0.00    +0.000 A 
ENDBRANCH   1  19
TORSDOF 2
ENDMDL
MODEL 4
REMARK VINA RESULT:      -8.6      0.091      1.080
REMARK  Name = 
REMARK  2 active torsions:
REMARK  status: ('A' for Active; 'I' for Inactive)
REMARK    1  A    between atoms: C_4  and  C_5
REMARK    2  A    between atoms: C_7  and  C_8
REMARK                            x       y       z     vdW  Elec       q    Type
REMARK                         _______ _______ _______ _____ _____    ______ ____
ROOT
ATOM      1  C   UNL     1       5.721   5.261  15.647  0.00  0.00    +0.000 A 
ATOM      2  N   UNL     1       4.778   4.783  16.432  0.00  0.00    +0.000 NA
ATOM      3  C   UNL     1       4.640   5.726  17.439  0.00  0.00    +0.000 A 
ATOM      4  C   UNL     1       5.572   6.721  17.255  0.00  0.00    +0.000 A 
ATOM      5  O   UNL     1       6.274   6.432  16.112  0.00  0.00    +0.000 OA
ENDROOT
BRANCH   3   6
ATOM      6  C   UNL     1       3.470   5.608  18.304  0.00  0.00    +0.000 A 
ATOM      7  C   UNL     1       3.060   6.669  19.088  0.00  0.00    +0.000 A 
ATOM      8  N   UNL     1       2.483   6.096  20.175  0.00  0.00    +0.000 N 
ATOM      9  C   UNL     1       1.955   4.881  19.811  0.00  0.00    +0.000 A 
ATOM     10  C   UNL     1       1.008   4.098  20.478  0.00  0.00    +0.000 A 
ATOM     11  C   UNL     1       0.643   2.893  19.884  0.00  0.00    +0.000 A 
ATOM     12  C   UNL     1       1.281   2.460  18.723  0.00  0.00    +0.000 A 
ATOM     13  C   UNL     1       2.294   3.227  18.109  0.00  0.00    +0.000 A 
ATOM     14  C   UNL     1       2.607   4.507  18.629  0.00  0.00    +0.000 A 
ATOM     15  H   UNL     1       2.436   6.512  21.093  0.00  0.00    +0.000 HD
ENDBRANCH   3   6
BRANCH   1  19
ATOM     16  C   UNL     1       7.046   3.794  11.829  0.00  0.00    +0.000 A 
ATOM     17  C   UNL     1       7.774   4.776  12.498  0.00  0.00    +0.000 A 
ATOM     18  C   UNL     1       7.319   5.273  13.729  0.00  0.00    +0.000 A 
ATOM     19  C   UNL     1       6.133   4.794  14.313  0.00  0.00    +0.000 A 
ATOM     20  C   UNL     1       5.406   3.818  13.609  0.00  0.00    +0.000 A 
ATOM     21  C   UNL     1       5.858   3.324  12.376  0.00  0.00    +0.000 A 
ENDBRANCH   1  19
TORSDOF 2
ENDMDL
MODEL 5
REMARK VINA RESULT:      -8.5      1.051      1.066
REMARK  Name = 
REMARK  2 active torsions:
REMARK  status: ('A' for Active; 'I' for Inactive)
REMARK    1  A    between atoms: C_4  and  C_5
REMARK    2  A    between atoms: C_7  and  C_8
REMARK                            x       y       z     vdW  Elec       q    Type
REMARK                         _______ _______ _______ _____ _____    ______ ____
ROOT
ATOM      1  C   UNL     1       6.298   4.326  15.793  0.00  0.00    +0.000 A 
ATOM      2  N   UNL     1       5.106   4.203  16.337  0.00  0.00    +0.000 NA
ATOM      3  C   UNL     1       5.290   4.505  17.678  0.00  0.00    +0.000 A 
ATOM      4  C   UNL     1       6.627   4.734  17.906  0.00  0.00    +0.000 A 
ATOM      5  O   UNL     1       7.284   4.618  16.707  0.00  0.00    +0.000 OA
ENDROOT
BRANCH   3   6
ATOM      6  C   UNL     1       4.091   4.729  18.480  0.00  0.00    +0.000 A 
ATOM      7  C   UNL     1       3.972   5.853  19.274  0.00  0.00    +0.000 A 
ATOM      8  N   UNL     1       3.191   5.463  20.313  0.00  0.00    +0.000 N 
ATOM      9  C   UNL     1       2.347   4.467  19.887  0.00  0.00    +0.000 A 
ATOM     10  C   UNL     1       1.174   3.993  20.482  0.00  0.00    +0.000 A 
ATOM     11  C   UNL     1       0.501   2.960  19.834  0.00  0.00    +0.000 A 
ATOM     12  C   UNL     1       1.046   2.373  18.694  0.00  0.00    +0.000 A 
ATOM     13  C   UNL     1       2.274   2.812  18.155  0.00  0.00    +0.000 A 
ATOM     14  C   UNL     1       2.924   3.931  18.728  0.00  0.00    +0.000 A 
ATOM     15  H   UNL     1       3.218   5.861  21.240  0.00  0.00    +0.000 HD
ENDBRANCH   3   6
BRANCH   1  19
ATOM     16  C   UNL     1       7.221   4.446  11.596  0.00  0.00    +0.000 A 
ATOM     17  C   UNL     1       6.298   3.526  12.088  0.00  0.00    +0.000 A 
ATOM     18  C   UNL     1       6.024   3.471  13.464  0.00  0.00    +0.000 A 
ATOM     19  C   UNL     1       6.665   4.336  14.368  0.00  0.00    +0.000 A 
ATOM     20  C   UNL     1       7.607   5.242  13.849  0.00  0.00    +0.000 A 
ATOM     21  C   UNL     1       7.885   5.294  12.475  0.00  0.00    +0.000 A 
ENDBRANCH   1  19
TORSDOF 2
ENDMDL
MODEL 6
REMARK VINA RESULT:      -8.4      2.132      7.058
REMARK  Name = 
REMARK  2 active torsions:
REMARK  status: ('A' for Active; 'I' for Inactive)
REMARK    1  A    between atoms: C_4  and  C_5
REMARK    2  A    between atoms: C_7  and  C_8
REMARK                            x       y       z     vdW  Elec       q    Type
REMARK                         _______ _______ _______ _____ _____    ______ ____
ROOT
ATOM      1  C   UNL     1       3.346   5.998  17.969  0.00  0.00    +0.000 A 
ATOM      2  N   UNL     1       4.528   6.074  17.395  0.00  0.00    +0.000 NA
ATOM      3  C   UNL     1       4.719   4.834  16.802  0.00  0.00    +0.000 A 
ATOM      4  C   UNL     1       3.652   4.022  17.109  0.00  0.00    +0.000 A 
ATOM      5  O   UNL     1       2.768   4.755  17.859  0.00  0.00    +0.000 OA
ENDROOT
BRANCH   3   6
ATOM      6  C   UNL     1       5.820   4.714  15.852  0.00  0.00    +0.000 A 
ATOM      7  C   UNL     1       7.097   5.112  16.196  0.00  0.00    +0.000 A 
ATOM      8  N   UNL     1       7.662   5.515  15.029  0.00  0.00    +0.000 N 
ATOM      9  C   UNL     1       7.098   4.810  13.994  0.00  0.00    +0.000 A 
ATOM     10  C   UNL     1       7.565   4.640  12.687  0.00  0.00    +0.000 A 
ATOM     11  C   UNL     1       6.788   3.869  11.827  0.00  0.00    +0.000 A 
ATOM     12  C   UNL     1       5.551   3.380  12.243  0.00  0.00    +0.000 A 
ATOM     13  C   UNL     1       5.059   3.633  13.541  0.00  0.00    +0.000 A 
ATOM     14  C   UNL     1       5.876   4.319  14.473  0.00  0.00    +0.000 A 
ATOM     15  H   UNL     1       8.393   6.205  14.947  0.00  0.00    +0.000 HD
ENDBRANCH   3   6
BRANCH   1  19
ATOM     16  C   UNL     1       1.129   9.212  19.769  0.00  0.00    +0.000 A 
ATOM     17  C   UNL     1       1.459   8.080  20.513  0.00  0.00    +0.000 A 
ATOM     18  C   UNL     1       2.155   7.021  19.910  0.00  0.00    +0.000 A 
ATOM     19  C   UNL     1       2.537   7.077  18.558  0.00  0.00    +0.000 A 
ATOM     20  C   UNL     1       2.176   8.222  17.825  0.00  0.00    +0.000 A 
ATOM     21  C   UNL     1       1.475   9.278  18.425  0.00  0.00    +0.000 A 
ENDBRANCH   1  19
TORSDOF 2
ENDMDL
MODEL 7
REMARK VINA RESULT:      -8.4      2.151      7.089
REMARK  Name = 
REMARK  2 active torsions:
REMARK  status: ('A' for Active; 'I' for Inactive)
REMARK    1  A    between atoms: C_4  and  C_5
REMARK    2  A    between atoms: C_7  and  C_8
REMARK                            x       y       z     vdW  Elec       q    Type
REMARK                         _______ _______ _______ _____ _____    ______ ____
ROOT
ATOM      1  C   UNL     1       3.380   6.070  17.972  0.00  0.00    +0.000 A 
ATOM      2  N   UNL     1       4.572   6.101  17.417  0.00  0.00    +0.000 NA
ATOM      3  C   UNL     1       4.699   4.879  16.772  0.00  0.00    +0.000 A 
ATOM      4  C   UNL     1       3.582   4.118  17.029  0.00  0.00    +0.000 A 
ATOM      5  O   UNL     1       2.731   4.868  17.801  0.00  0.00    +0.000 OA
ENDROOT
BRANCH   3   6
ATOM      6  C   UNL     1       5.805   4.736  15.830  0.00  0.00    +0.000 A 
ATOM      7  C   UNL     1       7.085   5.123  16.179  0.00  0.00    +0.000 A 
ATOM      8  N   UNL     1       7.662   5.507  15.012  0.00  0.00    +0.000 N 
ATOM      9  C   UNL     1       7.097   4.797  13.980  0.00  0.00    +0.000 A 
ATOM     10  C   UNL     1       7.571   4.606  12.679  0.00  0.00    +0.000 A 
ATOM     11  C   UNL     1       6.791   3.834  11.822  0.00  0.00    +0.000 A 
ATOM     12  C   UNL     1       5.547   3.364  12.236  0.00  0.00    +0.000 A 
ATOM     13  C   UNL     1       5.048   3.636  13.527  0.00  0.00    +0.000 A 
ATOM     14  C   UNL     1       5.866   4.324  14.456  0.00  0.00    +0.000 A 
ATOM     15  H   UNL     1       8.401   6.188  14.927  0.00  0.00    +0.000 HD
ENDBRANCH   3   6
BRANCH   1  19
ATOM     16  C   UNL     1       1.032   9.216  19.726  0.00  0.00    +0.000 A 
ATOM     17  C   UNL     1       1.447   9.303  18.399  0.00  0.00    +0.000 A 
ATOM     18  C   UNL     1       2.239   8.287  17.842  0.00  0.00    +0.000 A 
ATOM     19  C   UNL     1       2.627   7.168  18.599  0.00  0.00    +0.000 A 
ATOM     20  C   UNL     1       2.211   7.113  19.942  0.00  0.00    +0.000 A 
ATOM     21  C   UNL     1       1.423   8.130  20.501  0.00  0.00    +0.000 A 
ENDBRANCH   1  19
TORSDOF 2
ENDMDL
MODEL 8
REMARK VINA RESULT:      -8.1      1.580      2.132
REMARK  Name = 
REMARK  2 active torsions:
REMARK  status: ('A' for Active; 'I' for Inactive)
REMARK    1  A    between atoms: C_4  and  C_5
REMARK    2  A    between atoms: C_7  and  C_8
REMARK                            x       y       z     vdW  Elec       q    Type
REMARK                         _______ _______ _______ _____ _____    ______ ____
ROOT
ATOM      1  C   UNL     1       5.660   4.983  15.610  0.00  0.00    +0.000 A 
ATOM      2  N   UNL     1       5.664   4.228  16.689  0.00  0.00    +0.000 NA
ATOM      3  C   UNL     1       4.918   4.933  17.622  0.00  0.00    +0.000 A 
ATOM      4  C   UNL     1       4.545   6.140  17.079  0.00  0.00    +0.000 A 
ATOM      5  O   UNL     1       5.018   6.187  15.792  0.00  0.00    +0.000 OA
ENDROOT
BRANCH   3   6
ATOM      6  C   UNL     1       4.509   4.214  18.825  0.00  0.00    +0.000 A 
ATOM      7  C   UNL     1       5.417   3.452  19.535  0.00  0.00    +0.000 A 
ATOM      8  N   UNL     1       4.677   2.458  20.090  0.00  0.00    +0.000 N 
ATOM      9  C   UNL     1       3.401   2.918  20.303  0.00  0.00    +0.000 A 
ATOM     10  C   UNL     1       2.402   2.391  21.127  0.00  0.00    +0.000 A 
ATOM     11  C   UNL     1       1.181   3.061  21.159  0.00  0.00    +0.000 A 
ATOM     12  C   UNL     1       0.956   4.152  20.322  0.00  0.00    +0.000 A 
ATOM     13  C   UNL     1       1.950   4.619  19.437  0.00  0.00    +0.000 A 
ATOM     14  C   UNL     1       3.237   4.027  19.462  0.00  0.00    +0.000 A 
ATOM     15  H   UNL     1       5.023   1.539  20.323  0.00  0.00    +0.000 HD
ENDBRANCH   3   6
BRANCH   1  19
ATOM     16  C   UNL     1       7.094   3.900  11.705  0.00  0.00    +0.000 A 
ATOM     17  C   UNL     1       7.765   4.859  12.461  0.00  0.00    +0.000 A 
ATOM     18  C   UNL     1       7.274   5.231  13.722  0.00  0.00    +0.000 A 
ATOM     19  C   UNL     1       6.108   4.648  14.249  0.00  0.00    +0.000 A 
ATOM     20  C   UNL     1       5.438   3.697  13.458  0.00  0.00    +0.000 A 
ATOM     21  C   UNL     1       5.926   3.329  12.196  0.00  0.00    +0.000 A 
ENDBRANCH   1  19
TORSDOF 2
ENDMDL
MODEL 9
REMARK VINA RESULT:      -8.0      1.583      1.853
REMARK  Name = 
REMARK  2 active torsions:
REMARK  status: ('A' for Active; 'I' for Inactive)
REMARK    1  A    between atoms: C_4  and  C_5
REMARK    2  A    between atoms: C_7  and  C_8
REMARK                            x       y       z     vdW  Elec       q    Type
REMARK                         _______ _______ _______ _____ _____    ______ ____
ROOT
ATOM      1  C   UNL     1       5.744   4.951  15.642  0.00  0.00    +0.000 A 
ATOM      2  N   UNL     1       5.739   4.216  16.733  0.00  0.00    +0.000 NA
ATOM      3  C   UNL     1       4.923   4.900  17.622  0.00  0.00    +0.000 A 
ATOM      4  C   UNL     1       4.516   6.078  17.042  0.00  0.00    +0.000 A 
ATOM      5  O   UNL     1       5.038   6.125  15.774  0.00  0.00    +0.000 OA
ENDROOT
BRANCH   3   6
ATOM      6  C   UNL     1       4.501   4.184  18.822  0.00  0.00    +0.000 A 
ATOM      7  C   UNL     1       5.394   3.400  19.528  0.00  0.00    +0.000 A 
ATOM      8  N   UNL     1       4.635   2.418  20.078  0.00  0.00    +0.000 N 
ATOM      9  C   UNL     1       3.367   2.902  20.294  0.00  0.00    +0.000 A 
ATOM     10  C   UNL     1       2.358   2.391  21.115  0.00  0.00    +0.000 A 
ATOM     11  C   UNL     1       1.151   3.084  21.150  0.00  0.00    +0.000 A 
ATOM     12  C   UNL     1       0.947   4.183  20.319  0.00  0.00    +0.000 A 
ATOM     13  C   UNL     1       1.951   4.635  19.436  0.00  0.00    +0.000 A 
ATOM     14  C   UNL     1       3.225   4.018  19.458  0.00  0.00    +0.000 A 
ATOM     15  H   UNL     1       4.962   1.491  20.306  0.00  0.00    +0.000 HD
ENDBRANCH   3   6
BRANCH   1  19
ATOM     16  C   UNL     1       7.129   4.066  11.669  0.00  0.00    +0.000 A 
ATOM     17  C   UNL     1       6.040   3.381  12.204  0.00  0.00    +0.000 A 
ATOM     18  C   UNL     1       5.612   3.653  13.513  0.00  0.00    +0.000 A 
ATOM     19  C   UNL     1       6.262   4.615  14.306  0.00  0.00    +0.000 A 
ATOM     20  C   UNL     1       7.371   5.278  13.750  0.00  0.00    +0.000 A 
ATOM     21  C   UNL     1       7.802   5.003  12.444  0.00  0.00    +0.000 A 
ENDBRANCH   1  19
TORSDOF 2
ENDMDL
