MODEL 1
REMARK VINA RESULT:      -8.8      0.000      0.000
REMARK  Name = 
REMARK  3 active torsions:
REMARK  status: ('A' for Active; 'I' for Inactive)
REMARK    1  A    between atoms: C_2  and  C_16
REMARK    2  A    between atoms: N_3  and  C_4
REMARK    3  A    between atoms: C_10  and  C_11
REMARK                            x       y       z     vdW  Elec       q    Type
REMARK                         _______ _______ _______ _____ _____    ______ ____
ROOT
ATOM      1  C   UNL     1       5.510   3.991  15.957  0.00  0.00    +0.000 A 
ATOM      2  C   UNL     1       5.087   3.596  14.685  0.00  0.00    +0.000 A 
ATOM      3  C   UNL     1       5.892   3.857  13.576  0.00  0.00    +0.000 A 
ATOM      4 BR   UNL     1       5.344   3.265  11.869  0.00  0.00    +0.000 Br
ATOM      5  C   UNL     1       7.104   4.524  13.729  0.00  0.00    +0.000 A 
ATOM      6  C   UNL     1       7.517   4.936  14.999  0.00  0.00    +0.000 A 
ATOM      7  C   UNL     1       6.734   4.669  16.134  0.00  0.00    +0.000 A 
ENDROOT
BRANCH   7   8
ATOM      8  C   UNL     1       7.197   5.152  17.434  0.00  0.00    +0.000 A 
ATOM      9  N   UNL     1       7.239   4.494  18.578  0.00  0.00    +0.000 NA
ATOM     10  N   UNL     1       7.745   5.364  19.514  0.00  0.00    +0.000 NA
ATOM     11  N   UNL     1       8.035   6.534  18.966  0.00  0.00    +0.000 NA
ATOM     12  N   UNL     1       7.723   6.394  17.673  0.00  0.00    +0.000 N 
ATOM     13  H   UNL     1       7.880   7.158  17.027  0.00  0.00    +0.000 HD
ENDBRANCH   7   8
BRANCH   1  16
ATOM     14  O   UNL     1       3.593   5.566  17.343  0.00  0.00    +0.000 OA
ATOM     15  C   UNL     1       3.782   4.395  17.655  0.00  0.00    +0.000 C 
ATOM     16  N   UNL     1       4.741   3.593  17.064  0.00  0.00    +0.000 N 
ATOM     17  H   UNL     1       4.812   2.609  17.326  0.00  0.00    +0.000 HD
BRANCH  15  18
ATOM     18  C   UNL     1       3.017   3.797  18.784  0.00  0.00    +0.000 A 
ATOM     19  C   UNL     1       3.724   3.290  19.883  0.00  0.00    +0.000 A 
ATOM     20  C   UNL     1       3.027   2.757  20.974  0.00  0.00    +0.000 A 
ATOM     21  C   UNL     1       1.632   2.716  20.965  0.00  0.00    +0.000 A 
ATOM     22  C   UNL     1       0.928   3.184  19.863  0.00  0.00    +0.000 A 
ATOM     23  C   UNL     1       1.626   3.717  18.777  0.00  0.00    +0.000 A 
ATOM     24  F   UNL     1       0.909   4.143  17.726  0.00  0.00    +0.000 F 
ENDBRANCH  15  18
ENDBRANCH   1  16
TORSDOF 3
ENDMDL
MODEL 2
REMARK VINA RESULT:      -8.6      1.030      1.444
REMARK  Name = 
REMARK  3 active torsions:
REMARK  status: ('A' for Active; 'I' for Inactive)
REMARK    1  A    between atoms: C_2  and  C_16
REMARK    2  A    between atoms: N_3  and  C_4
REMARK    3  A    between atoms: C_10  and  C_11
REMARK                            x       y       z     vdW  Elec       q    Type
REMARK                         _______ _______ _______ _____ _____    ______ ____
ROOT
ATOM      1  C   UNL     1       5.464   4.062  15.973  0.00  0.00    +0.000 A 
ATOM      2  C   UNL     1       4.992   3.661  14.720  0.00  0.00    +0.000 A 
ATOM      3  C   UNL     1       5.774   3.877  13.586  0.00  0.00    +0.000 A 
ATOM      4 BR   UNL     1       5.159   3.277  11.905  0.00  0.00    +0.000 Br
ATOM      5  C   UNL     1       7.011   4.504  13.694  0.00  0.00    +0.000 A 
ATOM      6  C   UNL     1       7.474   4.921  14.945  0.00  0.00    +0.000 A 
ATOM      7  C   UNL     1       6.715   4.700  16.105  0.00  0.00    +0.000 A 
ENDROOT
BRANCH   7   8
ATOM      8  C   UNL     1       7.229   5.187  17.383  0.00  0.00    +0.000 A 
ATOM      9  N   UNL     1       7.414   4.505  18.499  0.00  0.00    +0.000 NA
ATOM     10  N   UNL     1       7.911   5.392  19.424  0.00  0.00    +0.000 NA
ATOM     11  N   UNL     1       8.057   6.598  18.896  0.00  0.00    +0.000 NA
ATOM     12  N   UNL     1       7.663   6.464  17.625  0.00  0.00    +0.000 N 
ATOM     13  H   UNL     1       7.704   7.256  16.995  0.00  0.00    +0.000 HD
ENDBRANCH   7   8
BRANCH   1  16
ATOM     14  O   UNL     1       3.629   5.719  17.375  0.00  0.00    +0.000 OA
ATOM     15  C   UNL     1       3.793   4.550  17.707  0.00  0.00    +0.000 C 
ATOM     16  N   UNL     1       4.712   3.708  17.108  0.00  0.00    +0.000 N 
ATOM     17  H   UNL     1       4.763   2.728  17.388  0.00  0.00    +0.000 HD
BRANCH  15  18
ATOM     18  C   UNL     1       3.041   3.996  18.866  0.00  0.00    +0.000 A 
ATOM     19  C   UNL     1       1.663   4.242  18.956  0.00  0.00    +0.000 A 
ATOM     20  C   UNL     1       0.926   3.701  20.015  0.00  0.00    +0.000 A 
ATOM     21  C   UNL     1       1.559   2.928  20.989  0.00  0.00    +0.000 A 
ATOM     22  C   UNL     1       2.929   2.711  20.925  0.00  0.00    +0.000 A 
ATOM     23  C   UNL     1       3.663   3.251  19.866  0.00  0.00    +0.000 A 
ATOM     24  F   UNL     1       4.986   3.031  19.850  0.00  0.00    +0.000 F 
ENDBRANCH  15  18
ENDBRANCH   1  16
TORSDOF 3
ENDMDL
MODEL 3
REMARK VINA RESULT:      -8.4      1.193      1.209
REMARK  Name = 
REMARK  3 active torsions:
REMARK  status: ('A' for Active; 'I' for Inactive)
REMARK    1  A    between atoms: C_2  and  C_16
REMARK    2  A    between atoms: N_3  and  C_4
REMARK    3  A    between atoms: C_10  and  C_11
REMARK                            x       y       z     vdW  Elec       q    Type
REMARK                         _______ _______ _______ _____ _____    ______ ____
ROOT
ATOM      1  C   UNL     1       5.093   4.327  16.380  0.00  0.00    +0.000 A 
ATOM      2  C   UNL     1       4.636   4.078  15.083  0.00  0.00    +0.000 A 
ATOM      3  C   UNL     1       5.540   4.071  14.021  0.00  0.00    +0.000 A 
ATOM      4 BR   UNL     1       4.927   3.673  12.281  0.00  0.00    +0.000 Br
ATOM      5  C   UNL     1       6.890   4.326  14.246  0.00  0.00    +0.000 A 
ATOM      6  C   UNL     1       7.342   4.594  15.540  0.00  0.00    +0.000 A 
ATOM      7  C   UNL     1       6.456   4.590  16.630  0.00  0.00    +0.000 A 
ENDROOT
BRANCH   7   8
ATOM      8  C   UNL     1       6.976   4.909  17.958  0.00  0.00    +0.000 A 
ATOM      9  N   UNL     1       6.320   5.408  18.990  0.00  0.00    +0.000 NA
ATOM     10  N   UNL     1       7.232   5.535  20.011  0.00  0.00    +0.000 NA
ATOM     11  N   UNL     1       8.427   5.105  19.636  0.00  0.00    +0.000 NA
ATOM     12  N   UNL     1       8.262   4.690  18.376  0.00  0.00    +0.000 N 
ATOM     13  H   UNL     1       9.040   4.288  17.869  0.00  0.00    +0.000 HD
ENDBRANCH   7   8
BRANCH   1  16
ATOM     14  O   UNL     1       4.138   1.895  17.499  0.00  0.00    +0.000 OA
ATOM     15  C   UNL     1       3.802   2.974  17.973  0.00  0.00    +0.000 C 
ATOM     16  N   UNL     1       4.179   4.193  17.441  0.00  0.00    +0.000 N 
ATOM     17  H   UNL     1       3.916   5.058  17.914  0.00  0.00    +0.000 HD
BRANCH  15  18
ATOM     18  C   UNL     1       2.869   3.015  19.133  0.00  0.00    +0.000 A 
ATOM     19  C   UNL     1       3.334   2.594  20.388  0.00  0.00    +0.000 A 
ATOM     20  C   UNL     1       2.489   2.659  21.502  0.00  0.00    +0.000 A 
ATOM     21  C   UNL     1       1.182   3.129  21.366  0.00  0.00    +0.000 A 
ATOM     22  C   UNL     1       0.705   3.514  20.120  0.00  0.00    +0.000 A 
ATOM     23  C   UNL     1       1.551   3.449  19.010  0.00  0.00    +0.000 A 
ATOM     24  F   UNL     1       1.046   3.815  17.822  0.00  0.00    +0.000 F 
ENDBRANCH  15  18
ENDBRANCH   1  16
TORSDOF 3
ENDMDL
MODEL 4
REMARK VINA RESULT:      -8.4      1.453      1.767
REMARK  Name = 
REMARK  3 active torsions:
REMARK  status: ('A' for Active; 'I' for Inactive)
REMARK    1  A    between atoms: C_2  and  C_16
REMARK    2  A    between atoms: N_3  and  C_4
REMARK    3  A    between atoms: C_10  and  C_11
REMARK                            x       y       z     vdW  Elec       q    Type
REMARK                         _______ _______ _______ _____ _____    ______ ____
ROOT
ATOM      1  C   UNL     1       5.137   4.416  16.267  0.00  0.00    +0.000 A 
ATOM      2  C   UNL     1       4.670   4.061  14.999  0.00  0.00    +0.000 A 
ATOM      3  C   UNL     1       5.549   4.047  13.917  0.00  0.00    +0.000 A 
ATOM      4 BR   UNL     1       4.925   3.505  12.219  0.00  0.00    +0.000 Br
ATOM      5  C   UNL     1       6.883   4.401  14.091  0.00  0.00    +0.000 A 
ATOM      6  C   UNL     1       7.346   4.775  15.355  0.00  0.00    +0.000 A 
ATOM      7  C   UNL     1       6.486   4.781  16.465  0.00  0.00    +0.000 A 
ENDROOT
BRANCH   7   8
ATOM      8  C   UNL     1       7.013   5.213  17.759  0.00  0.00    +0.000 A 
ATOM      9  N   UNL     1       6.822   4.657  18.941  0.00  0.00    +0.000 NA
ATOM     10  N   UNL     1       7.514   5.421  19.850  0.00  0.00    +0.000 NA
ATOM     11  N   UNL     1       8.143   6.420  19.250  0.00  0.00    +0.000 NA
ATOM     12  N   UNL     1       7.856   6.274  17.952  0.00  0.00    +0.000 N 
ATOM     13  H   UNL     1       8.248   6.914  17.272  0.00  0.00    +0.000 HD
ENDBRANCH   7   8
BRANCH   1  16
ATOM     14  O   UNL     1       4.138   1.993  17.365  0.00  0.00    +0.000 OA
ATOM     15  C   UNL     1       3.857   3.071  17.875  0.00  0.00    +0.000 C 
ATOM     16  N   UNL     1       4.258   4.289  17.357  0.00  0.00    +0.000 N 
ATOM     17  H   UNL     1       4.043   5.151  17.859  0.00  0.00    +0.000 HD
BRANCH  15  18
ATOM     18  C   UNL     1       2.968   3.117  19.069  0.00  0.00    +0.000 A 
ATOM     19  C   UNL     1       1.672   3.632  18.925  0.00  0.00    +0.000 A 
ATOM     20  C   UNL     1       0.803   3.650  20.023  0.00  0.00    +0.000 A 
ATOM     21  C   UNL     1       1.227   3.171  21.263  0.00  0.00    +0.000 A 
ATOM     22  C   UNL     1       2.522   2.693  21.420  0.00  0.00    +0.000 A 
ATOM     23  C   UNL     1       3.386   2.675  20.322  0.00  0.00    +0.000 A 
ATOM     24  F   UNL     1       4.633   2.221  20.520  0.00  0.00    +0.000 F 
ENDBRANCH  15  18
ENDBRANCH   1  16
TORSDOF 3
ENDMDL
MODEL 5
REMARK VINA RESULT:      -8.1      1.361      1.581
REMARK  Name = 
REMARK  3 active torsions:
REMARK  status: ('A' for Active; 'I' for Inactive)
REMARK    1  A    between atoms: C_2  and  C_16
REMARK    2  A    between atoms: N_3  and  C_4
REMARK    3  A    between atoms: C_10  and  C_11
REMARK                            x       y       z     vdW  Elec       q    Type
REMARK                         _______ _______ _______ _____ _____    ______ ____
ROOT
ATOM      1  C   UNL     1       5.184   4.575  15.819  0.00  0.00    +0.000 A 
ATOM      2  C   UNL     1       4.723   4.177  14.561  0.00  0.00    +0.000 A 
ATOM      3  C   UNL     1       5.628   4.014  13.514  0.00  0.00    +0.000 A 
ATOM      4 BR   UNL     1       5.008   3.415  11.834  0.00  0.00    +0.000 Br
ATOM      5  C   UNL     1       6.983   4.261  13.710  0.00  0.00    +0.000 A 
ATOM      6  C   UNL     1       7.441   4.678  14.963  0.00  0.00    +0.000 A 
ATOM      7  C   UNL     1       6.553   4.833  16.040  0.00  0.00    +0.000 A 
ENDROOT
BRANCH   7   8
ATOM      8  C   UNL     1       7.079   5.303  17.320  0.00  0.00    +0.000 A 
ATOM      9  N   UNL     1       7.142   4.647  18.465  0.00  0.00    +0.000 NA
ATOM     10  N   UNL     1       7.710   5.503  19.378  0.00  0.00    +0.000 NA
ATOM     11  N   UNL     1       8.018   6.662  18.815  0.00  0.00    +0.000 NA
ATOM     12  N   UNL     1       7.654   6.528  17.535  0.00  0.00    +0.000 N 
ATOM     13  H   UNL     1       7.812   7.285  16.881  0.00  0.00    +0.000 HD
ENDBRANCH   7   8
BRANCH   1  16
ATOM     14  O   UNL     1       4.243   2.337  17.297  0.00  0.00    +0.000 OA
ATOM     15  C   UNL     1       3.895   3.474  17.597  0.00  0.00    +0.000 C 
ATOM     16  N   UNL     1       4.266   4.599  16.884  0.00  0.00    +0.000 N 
ATOM     17  H   UNL     1       3.993   5.525  17.217  0.00  0.00    +0.000 HD
BRANCH  15  18
ATOM     18  C   UNL     1       2.956   3.686  18.733  0.00  0.00    +0.000 A 
ATOM     19  C   UNL     1       1.748   2.973  18.751  0.00  0.00    +0.000 A 
ATOM     20  C   UNL     1       0.865   3.125  19.826  0.00  0.00    +0.000 A 
ATOM     21  C   UNL     1       1.176   3.992  20.874  0.00  0.00    +0.000 A 
ATOM     22  C   UNL     1       2.354   4.728  20.844  0.00  0.00    +0.000 A 
ATOM     23  C   UNL     1       3.234   4.573  19.770  0.00  0.00    +0.000 A 
ATOM     24  F   UNL     1       4.353   5.314  19.772  0.00  0.00    +0.000 F 
ENDBRANCH  15  18
ENDBRANCH   1  16
TORSDOF 3
ENDMDL
MODEL 6
REMARK VINA RESULT:      -7.9      1.160      1.181
REMARK  Name = 
REMARK  3 active torsions:
REMARK  status: ('A' for Active; 'I' for Inactive)
REMARK    1  A    between atoms: C_2  and  C_16
REMARK    2  A    between atoms: N_3  and  C_4
REMARK    3  A    between atoms: C_10  and  C_11
REMARK                            x       y       z     vdW  Elec       q    Type
REMARK                         _______ _______ _______ _____ _____    ______ ____
ROOT
ATOM      1  C   UNL     1       5.195   4.594  15.820  0.00  0.00    +0.000 A 
ATOM      2  C   UNL     1       4.733   4.188  14.565  0.00  0.00    +0.000 A 
ATOM      3  C   UNL     1       5.639   4.011  13.519  0.00  0.00    +0.000 A 
ATOM      4 BR   UNL     1       5.016   3.402  11.844  0.00  0.00    +0.000 Br
ATOM      5  C   UNL     1       6.995   4.251  13.716  0.00  0.00    +0.000 A 
ATOM      6  C   UNL     1       7.453   4.675  14.966  0.00  0.00    +0.000 A 
ATOM      7  C   UNL     1       6.565   4.845  16.041  0.00  0.00    +0.000 A 
ENDROOT
BRANCH   7   8
ATOM      8  C   UNL     1       7.092   5.323  17.317  0.00  0.00    +0.000 A 
ATOM      9  N   UNL     1       7.163   4.671  18.463  0.00  0.00    +0.000 NA
ATOM     10  N   UNL     1       7.729   5.533  19.372  0.00  0.00    +0.000 NA
ATOM     11  N   UNL     1       8.028   6.692  18.804  0.00  0.00    +0.000 NA
ATOM     12  N   UNL     1       7.661   6.551  17.526  0.00  0.00    +0.000 N 
ATOM     13  H   UNL     1       7.812   7.307  16.869  0.00  0.00    +0.000 HD
ENDBRANCH   7   8
BRANCH   1  16
ATOM     14  O   UNL     1       4.235   2.373  17.312  0.00  0.00    +0.000 OA
ATOM     15  C   UNL     1       3.896   3.515  17.604  0.00  0.00    +0.000 C 
ATOM     16  N   UNL     1       4.275   4.632  16.884  0.00  0.00    +0.000 N 
ATOM     17  H   UNL     1       4.009   5.562  17.209  0.00  0.00    +0.000 HD
BRANCH  15  18
ATOM     18  C   UNL     1       2.956   3.742  18.737  0.00  0.00    +0.000 A 
ATOM     19  C   UNL     1       3.254   4.747  19.668  0.00  0.00    +0.000 A 
ATOM     20  C   UNL     1       2.368   5.006  20.721  0.00  0.00    +0.000 A 
ATOM     21  C   UNL     1       1.197   4.260  20.854  0.00  0.00    +0.000 A 
ATOM     22  C   UNL     1       0.915   3.239  19.955  0.00  0.00    +0.000 A 
ATOM     23  C   UNL     1       1.800   2.983  18.905  0.00  0.00    +0.000 A 
ATOM     24  F   UNL     1       1.499   1.978  18.068  0.00  0.00    +0.000 F 
ENDBRANCH  15  18
ENDBRANCH   1  16
TORSDOF 3
ENDMDL
MODEL 7
REMARK VINA RESULT:      -7.3      2.695      5.822
REMARK  Name = 
REMARK  3 active torsions:
REMARK  status: ('A' for Active; 'I' for Inactive)
REMARK    1  A    between atoms: C_2  and  C_16
REMARK    2  A    between atoms: N_3  and  C_4
REMARK    3  A    between atoms: C_10  and  C_11
REMARK                            x       y       z     vdW  Elec       q    Type
REMARK                         _______ _______ _______ _____ _____    ______ ____
ROOT
ATOM      1  C   UNL     1       4.250   3.454  17.732  0.00  0.00    +0.000 A 
ATOM      2  C   UNL     1       2.943   2.962  17.775  0.00  0.00    +0.000 A 
ATOM      3  C   UNL     1       2.206   3.058  18.954  0.00  0.00    +0.000 A 
ATOM      4 BR   UNL     1       0.420   2.449  18.987  0.00  0.00    +0.000 Br
ATOM      5  C   UNL     1       2.772   3.626  20.092  0.00  0.00    +0.000 A 
ATOM      6  C   UNL     1       4.086   4.100  20.054  0.00  0.00    +0.000 A 
ATOM      7  C   UNL     1       4.844   4.031  18.874  0.00  0.00    +0.000 A 
ENDROOT
BRANCH   7   8
ATOM      8  C   UNL     1       6.224   4.511  18.899  0.00  0.00    +0.000 A 
ATOM      9  N   UNL     1       6.762   5.401  19.712  0.00  0.00    +0.000 NA
ATOM     10  N   UNL     1       8.082   5.522  19.345  0.00  0.00    +0.000 NA
ATOM     11  N   UNL     1       8.371   4.710  18.340  0.00  0.00    +0.000 NA
ATOM     12  N   UNL     1       7.230   4.063  18.083  0.00  0.00    +0.000 N 
ATOM     13  H   UNL     1       7.200   3.357  17.358  0.00  0.00    +0.000 HD
ENDBRANCH   7   8
BRANCH   1  16
ATOM     14  O   UNL     1       4.581   5.685  16.003  0.00  0.00    +0.000 OA
ATOM     15  C   UNL     1       5.088   4.603  15.729  0.00  0.00    +0.000 C 
ATOM     16  N   UNL     1       4.915   3.463  16.493  0.00  0.00    +0.000 N 
ATOM     17  H   UNL     1       5.410   2.606  16.246  0.00  0.00    +0.000 HD
BRANCH  15  18
ATOM     18  C   UNL     1       5.867   4.447  14.469  0.00  0.00    +0.000 A 
ATOM     19  C   UNL     1       5.330   3.664  13.437  0.00  0.00    +0.000 A 
ATOM     20  C   UNL     1       6.025   3.533  12.229  0.00  0.00    +0.000 A 
ATOM     21  C   UNL     1       7.254   4.168  12.052  0.00  0.00    +0.000 A 
ATOM     22  C   UNL     1       7.807   4.916  13.084  0.00  0.00    +0.000 A 
ATOM     23  C   UNL     1       7.111   5.046  14.288  0.00  0.00    +0.000 A 
ATOM     24  F   UNL     1       7.687   5.764  15.265  0.00  0.00    +0.000 F 
ENDBRANCH  15  18
ENDBRANCH   1  16
TORSDOF 3
ENDMDL
MODEL 8
REMARK VINA RESULT:      -7.1      2.942      6.012
REMARK  Name = 
REMARK  3 active torsions:
REMARK  status: ('A' for Active; 'I' for Inactive)
REMARK    1  A    between atoms: C_2  and  C_16
REMARK    2  A    between atoms: N_3  and  C_4
REMARK    3  A    between atoms: C_10  and  C_11
REMARK                            x       y       z     vdW  Elec       q    Type
REMARK                         _______ _______ _______ _____ _____    ______ ____
ROOT
ATOM      1  C   UNL     1       4.195   4.573  17.254  0.00  0.00    +0.000 A 
ATOM      2  C   UNL     1       3.097   3.766  17.561  0.00  0.00    +0.000 A 
ATOM      3  C   UNL     1       2.493   3.868  18.814  0.00  0.00    +0.000 A 
ATOM      4 BR   UNL     1       0.971   2.819  19.200  0.00  0.00    +0.000 Br
ATOM      5  C   UNL     1       2.988   4.756  19.763  0.00  0.00    +0.000 A 
ATOM      6  C   UNL     1       4.098   5.550  19.462  0.00  0.00    +0.000 A 
ATOM      7  C   UNL     1       4.715   5.480  18.202  0.00  0.00    +0.000 A 
ENDROOT
BRANCH   7   8
ATOM      8  C   UNL     1       5.893   6.306  17.951  0.00  0.00    +0.000 A 
ATOM      9  N   UNL     1       6.027   7.289  17.079  0.00  0.00    +0.000 NA
ATOM     10  N   UNL     1       7.312   7.759  17.210  0.00  0.00    +0.000 NA
ATOM     11  N   UNL     1       7.963   7.103  18.158  0.00  0.00    +0.000 NA
ATOM     12  N   UNL     1       7.076   6.223  18.636  0.00  0.00    +0.000 N 
ATOM     13  H   UNL     1       7.333   5.610  19.400  0.00  0.00    +0.000 HD
ENDBRANCH   7   8
BRANCH   1  16
ATOM     14  O   UNL     1       6.816   3.818  16.454  0.00  0.00    +0.000 OA
ATOM     15  C   UNL     1       5.967   4.107  15.617  0.00  0.00    +0.000 C 
ATOM     16  N   UNL     1       4.694   4.541  15.940  0.00  0.00    +0.000 N 
ATOM     17  H   UNL     1       4.012   4.711  15.200  0.00  0.00    +0.000 HD
BRANCH  15  18
ATOM     18  C   UNL     1       6.315   4.083  14.170  0.00  0.00    +0.000 A 
ATOM     19  C   UNL     1       5.602   3.225  13.320  0.00  0.00    +0.000 A 
ATOM     20  C   UNL     1       5.884   3.211  11.948  0.00  0.00    +0.000 A 
ATOM     21  C   UNL     1       6.879   4.038  11.427  0.00  0.00    +0.000 A 
ATOM     22  C   UNL     1       7.612   4.864  12.270  0.00  0.00    +0.000 A 
ATOM     23  C   UNL     1       7.328   4.876  13.637  0.00  0.00    +0.000 A 
ATOM     24  F   UNL     1       8.070   5.676  14.419  0.00  0.00    +0.000 F 
ENDBRANCH  15  18
ENDBRANCH   1  16
TORSDOF 3
ENDMDL
MODEL 9
REMARK VINA RESULT:      -7.0      4.455      5.524
REMARK  Name = 
REMARK  3 active torsions:
REMARK  status: ('A' for Active; 'I' for Inactive)
REMARK    1  A    between atoms: C_2  and  C_16
REMARK    2  A    between atoms: N_3  and  C_4
REMARK    3  A    between atoms: C_10  and  C_11
REMARK                            x       y       z     vdW  Elec       q    Type
REMARK                         _______ _______ _______ _____ _____    ______ ____
ROOT
ATOM      1  C   UNL     1       3.441   5.506  18.635  0.00  0.00    +0.000 A 
ATOM      2  C   UNL     1       4.193   5.956  17.547  0.00  0.00    +0.000 A 
ATOM      3  C   UNL     1       4.764   5.031  16.672  0.00  0.00    +0.000 A 
ATOM      4 BR   UNL     1       5.725   5.646  15.168  0.00  0.00    +0.000 Br
ATOM      5  C   UNL     1       4.601   3.667  16.888  0.00  0.00    +0.000 A 
ATOM      6  C   UNL     1       3.865   3.218  17.988  0.00  0.00    +0.000 A 
ATOM      7  C   UNL     1       3.265   4.127  18.874  0.00  0.00    +0.000 A 
ENDROOT
BRANCH   7   8
ATOM      8  C   UNL     1       2.535   3.605  20.027  0.00  0.00    +0.000 A 
ATOM      9  N   UNL     1       1.252   3.741  20.308  0.00  0.00    +0.000 NA
ATOM     10  N   UNL     1       1.036   3.080  21.493  0.00  0.00    +0.000 NA
ATOM     11  N   UNL     1       2.152   2.522  21.936  0.00  0.00    +0.000 NA
ATOM     12  N   UNL     1       3.074   2.821  21.014  0.00  0.00    +0.000 N 
ATOM     13  H   UNL     1       4.022   2.480  21.115  0.00  0.00    +0.000 HD
ENDBRANCH   7   8
BRANCH   1  16
ATOM     14  O   UNL     1       2.371   7.981  17.736  0.00  0.00    +0.000 OA
ATOM     15  C   UNL     1       2.223   7.624  18.900  0.00  0.00    +0.000 C 
ATOM     16  N   UNL     1       2.770   6.463  19.417  0.00  0.00    +0.000 N 
ATOM     17  H   UNL     1       2.564   6.189  20.378  0.00  0.00    +0.000 HD
BRANCH  15  18
ATOM     18  C   UNL     1       1.495   8.501  19.858  0.00  0.00    +0.000 A 
ATOM     19  C   UNL     1       1.496   8.160  21.218  0.00  0.00    +0.000 A 
ATOM     20  C   UNL     1       0.852   8.988  22.144  0.00  0.00    +0.000 A 
ATOM     21  C   UNL     1       0.198  10.144  21.718  0.00  0.00    +0.000 A 
ATOM     22  C   UNL     1       0.163  10.467  20.367  0.00  0.00    +0.000 A 
ATOM     23  C   UNL     1       0.808   9.640  19.445  0.00  0.00    +0.000 A 
ATOM     24  F   UNL     1       0.737   9.979  18.149  0.00  0.00    +0.000 F 
ENDBRANCH  15  18
ENDBRANCH   1  16
TORSDOF 3
ENDMDL
