MODEL 1
REMARK VINA RESULT:      -7.3      0.000      0.000
REMARK  Name = 
REMARK  4 active torsions:
REMARK  status: ('A' for Active; 'I' for Inactive)
REMARK    1  A    between atoms: C_1  and  C_2
REMARK    2  A    between atoms: C_8  and  O_9
REMARK    3  A    between atoms: C_12  and  C_13
REMARK    4  A    between atoms: N_22  and  C_23
REMARK                            x       y       z     vdW  Elec       q    Type
REMARK                         _______ _______ _______ _____ _____    ______ ____
ROOT
ATOM      1  C   UNL     1       1.535   4.668  17.443  0.00  0.00    +0.000 C 
ATOM      2  C   UNL     1       3.103   4.701  17.524  0.00  0.00    +0.000 C 
ATOM      3  C   UNL     1       4.099   4.940  16.402  0.00  0.00    +0.000 C 
ATOM      4  C   UNL     1       4.910   6.302  16.410  0.00  0.00    +0.000 C 
ATOM      5  C   UNL     1       5.789   6.423  17.625  0.00  0.00    +0.000 A 
ATOM      6  C   UNL     1       7.085   6.958  17.497  0.00  0.00    +0.000 A 
ATOM      7  C   UNL     1       8.080   6.623  18.413  0.00  0.00    +0.000 A 
ATOM      8  C   UNL     1       7.747   5.811  19.475  0.00  0.00    +0.000 A 
ATOM      9  C   UNL     1       6.407   5.471  19.729  0.00  0.00    +0.000 A 
ATOM     10  C   UNL     1       5.373   5.774  18.790  0.00  0.00    +0.000 A 
ATOM     11  C   UNL     1       3.867   5.213  18.830  0.00  0.00    +0.000 C 
ATOM     12  C   UNL     1       4.204   3.717  19.226  0.00  0.00    +0.000 C 
ATOM     13  C   UNL     1       4.956   2.998  17.867  0.00  0.00    +0.000 C 
ATOM     14  N   UNL     1       5.110   3.858  16.626  0.00  0.00    +0.000 NA
ATOM     15  C   UNL     1       5.371   3.202  15.361  0.00  0.00    +0.000 C 
ENDROOT
BRANCH  11  16
ATOM     16  C   UNL     1       2.936   6.485  19.078  0.00  0.00    +0.000 A 
ATOM     17  C   UNL     1       2.205   6.582  20.345  0.00  0.00    +0.000 A 
ATOM     18  C   UNL     1       1.396   7.620  20.793  0.00  0.00    +0.000 A 
ATOM     19  C   UNL     1       1.218   8.659  19.968  0.00  0.00    +0.000 A 
ATOM     20  F   UNL     1       0.471   9.690  20.379  0.00  0.00    +0.000 F 
ATOM     21  C   UNL     1       1.828   8.637  18.693  0.00  0.00    +0.000 A 
ATOM     22  C   UNL     1       2.672   7.566  18.248  0.00  0.00    +0.000 A 
ENDBRANCH  11  16
BRANCH   8  23
ATOM     23  O   UNL     1       8.744   5.264  20.239  0.00  0.00    +0.000 OA
ATOM     24  H   UNL     1       9.473   5.029  19.648  0.00  0.00    +0.000 HD
ENDBRANCH   8  23
TORSDOF 2
ENDMDL
MODEL 2
REMARK VINA RESULT:      -7.1      1.635      2.335
REMARK  Name = 
REMARK  4 active torsions:
REMARK  status: ('A' for Active; 'I' for Inactive)
REMARK    1  A    between atoms: C_1  and  C_2
REMARK    2  A    between atoms: C_8  and  O_9
REMARK    3  A    between atoms: C_12  and  C_13
REMARK    4  A    between atoms: N_22  and  C_23
REMARK                            x       y       z     vdW  Elec       q    Type
REMARK                         _______ _______ _______ _____ _____    ______ ____
ROOT
ATOM      1  C   UNL     1       0.949   4.727  20.222  0.00  0.00    +0.000 C 
ATOM      2  C   UNL     1       2.240   4.221  19.485  0.00  0.00    +0.000 C 
ATOM      3  C   UNL     1       2.335   3.330  18.258  0.00  0.00    +0.000 C 
ATOM      4  C   UNL     1       2.839   3.984  16.905  0.00  0.00    +0.000 C 
ATOM      5  C   UNL     1       4.251   4.491  17.020  0.00  0.00    +0.000 A 
ATOM      6  C   UNL     1       5.147   4.307  15.950  0.00  0.00    +0.000 A 
ATOM      7  C   UNL     1       6.520   4.270  16.179  0.00  0.00    +0.000 A 
ATOM      8  C   UNL     1       6.977   4.480  17.462  0.00  0.00    +0.000 A 
ATOM      9  C   UNL     1       6.100   4.894  18.479  0.00  0.00    +0.000 A 
ATOM     10  C   UNL     1       4.686   4.909  18.280  0.00  0.00    +0.000 A 
ATOM     11  C   UNL     1       3.573   5.099  19.424  0.00  0.00    +0.000 C 
ATOM     12  C   UNL     1       4.237   4.176  20.527  0.00  0.00    +0.000 C 
ATOM     13  C   UNL     1       4.099   2.562  19.976  0.00  0.00    +0.000 C 
ATOM     14  N   UNL     1       3.388   2.340  18.654  0.00  0.00    +0.000 NA
ATOM     15  C   UNL     1       2.909   1.009  18.343  0.00  0.00    +0.000 C 
ENDROOT
BRANCH  11  16
ATOM     16  C   UNL     1       2.845   6.481  19.099  0.00  0.00    +0.000 A 
ATOM     17  C   UNL     1       2.177   7.196  20.191  0.00  0.00    +0.000 A 
ATOM     18  C   UNL     1       1.543   8.432  20.147  0.00  0.00    +0.000 A 
ATOM     19  C   UNL     1       1.492   9.055  18.963  0.00  0.00    +0.000 A 
ATOM     20  F   UNL     1       0.916  10.260  18.891  0.00  0.00    +0.000 F 
ATOM     21  C   UNL     1       2.051   8.422  17.830  0.00  0.00    +0.000 A 
ATOM     22  C   UNL     1       2.715   7.152  17.891  0.00  0.00    +0.000 A 
ENDBRANCH  11  16
BRANCH   8  23
ATOM     23  O   UNL     1       8.284   4.201  17.761  0.00  0.00    +0.000 OA
ATOM     24  H   UNL     1       8.294   3.641  18.550  0.00  0.00    +0.000 HD
ENDBRANCH   8  23
TORSDOF 2
ENDMDL
MODEL 3
REMARK VINA RESULT:      -7.0      1.707      2.634
REMARK  Name = 
REMARK  4 active torsions:
REMARK  status: ('A' for Active; 'I' for Inactive)
REMARK    1  A    between atoms: C_1  and  C_2
REMARK    2  A    between atoms: C_8  and  O_9
REMARK    3  A    between atoms: C_12  and  C_13
REMARK    4  A    between atoms: N_22  and  C_23
REMARK                            x       y       z     vdW  Elec       q    Type
REMARK                         _______ _______ _______ _____ _____    ______ ____
ROOT
ATOM      1  C   UNL     1       1.163   4.715  20.496  0.00  0.00    +0.000 C 
ATOM      2  C   UNL     1       2.378   4.220  19.632  0.00  0.00    +0.000 C 
ATOM      3  C   UNL     1       2.354   3.362  18.379  0.00  0.00    +0.000 C 
ATOM      4  C   UNL     1       2.739   4.048  17.004  0.00  0.00    +0.000 C 
ATOM      5  C   UNL     1       4.161   4.542  17.003  0.00  0.00    +0.000 A 
ATOM      6  C   UNL     1       4.955   4.381  15.852  0.00  0.00    +0.000 A 
ATOM      7  C   UNL     1       6.343   4.328  15.955  0.00  0.00    +0.000 A 
ATOM      8  C   UNL     1       6.916   4.501  17.197  0.00  0.00    +0.000 A 
ATOM      9  C   UNL     1       6.138   4.893  18.300  0.00  0.00    +0.000 A 
ATOM     10  C   UNL     1       4.711   4.923  18.229  0.00  0.00    +0.000 A 
ATOM     11  C   UNL     1       3.708   5.090  19.474  0.00  0.00    +0.000 C 
ATOM     12  C   UNL     1       4.461   4.133  20.488  0.00  0.00    +0.000 C 
ATOM     13  C   UNL     1       4.258   2.536  19.910  0.00  0.00    +0.000 C 
ATOM     14  N   UNL     1       3.429   2.355  18.652  0.00  0.00    +0.000 NA
ATOM     15  C   UNL     1       2.912   1.035  18.351  0.00  0.00    +0.000 C 
ENDROOT
BRANCH  11  16
ATOM     16  C   UNL     1       2.967   6.486  19.252  0.00  0.00    +0.000 A 
ATOM     17  C   UNL     1       3.134   7.171  17.966  0.00  0.00    +0.000 A 
ATOM     18  C   UNL     1       2.538   8.351  17.538  0.00  0.00    +0.000 A 
ATOM     19  C   UNL     1       1.730   8.980  18.402  0.00  0.00    +0.000 A 
ATOM     20  F   UNL     1       1.114  10.102  18.012  0.00  0.00    +0.000 F 
ATOM     21  C   UNL     1       1.550   8.436  19.694  0.00  0.00    +0.000 A 
ATOM     22  C   UNL     1       2.160   7.209  20.119  0.00  0.00    +0.000 A 
ENDBRANCH  11  16
BRANCH   8  23
ATOM     23  O   UNL     1       8.242   4.205  17.369  0.00  0.00    +0.000 OA
ATOM     24  H   UNL     1       8.354   3.862  18.267  0.00  0.00    +0.000 HD
ENDBRANCH   8  23
TORSDOF 2
ENDMDL
MODEL 4
REMARK VINA RESULT:      -6.8      0.340      1.039
REMARK  Name = 
REMARK  4 active torsions:
REMARK  status: ('A' for Active; 'I' for Inactive)
REMARK    1  A    between atoms: C_1  and  C_2
REMARK    2  A    between atoms: C_8  and  O_9
REMARK    3  A    between atoms: C_12  and  C_13
REMARK    4  A    between atoms: N_22  and  C_23
REMARK                            x       y       z     vdW  Elec       q    Type
REMARK                         _______ _______ _______ _____ _____    ______ ____
ROOT
ATOM      1  C   UNL     1       1.573   4.699  17.484  0.00  0.00    +0.000 C 
ATOM      2  C   UNL     1       3.142   4.731  17.553  0.00  0.00    +0.000 C 
ATOM      3  C   UNL     1       4.129   5.007  16.431  0.00  0.00    +0.000 C 
ATOM      4  C   UNL     1       4.938   6.368  16.475  0.00  0.00    +0.000 C 
ATOM      5  C   UNL     1       5.828   6.451  17.686  0.00  0.00    +0.000 A 
ATOM      6  C   UNL     1       7.123   6.991  17.564  0.00  0.00    +0.000 A 
ATOM      7  C   UNL     1       8.125   6.628  18.460  0.00  0.00    +0.000 A 
ATOM      8  C   UNL     1       7.802   5.781  19.498  0.00  0.00    +0.000 A 
ATOM      9  C   UNL     1       6.464   5.432  19.752  0.00  0.00    +0.000 A 
ATOM     10  C   UNL     1       5.423   5.764  18.833  0.00  0.00    +0.000 A 
ATOM     11  C   UNL     1       3.918   5.201  18.868  0.00  0.00    +0.000 C 
ATOM     12  C   UNL     1       4.259   3.693  19.212  0.00  0.00    +0.000 C 
ATOM     13  C   UNL     1       4.999   3.019  17.825  0.00  0.00    +0.000 C 
ATOM     14  N   UNL     1       5.142   3.919  16.611  0.00  0.00    +0.000 NA
ATOM     15  C   UNL     1       5.392   3.304  15.323  0.00  0.00    +0.000 C 
ENDROOT
BRANCH  11  16
ATOM     16  C   UNL     1       2.988   6.463  19.165  0.00  0.00    +0.000 A 
ATOM     17  C   UNL     1       2.858   7.497  18.133  0.00  0.00    +0.000 A 
ATOM     18  C   UNL     1       2.062   8.636  18.153  0.00  0.00    +0.000 A 
ATOM     19  C   UNL     1       1.337   8.859  19.257  0.00  0.00    +0.000 A 
ATOM     20  F   UNL     1       0.535   9.929  19.298  0.00  0.00    +0.000 F 
ATOM     21  C   UNL     1       1.438   7.955  20.339  0.00  0.00    +0.000 A 
ATOM     22  C   UNL     1       2.253   6.776  20.300  0.00  0.00    +0.000 A 
ENDBRANCH  11  16
BRANCH   8  23
ATOM     23  O   UNL     1       8.806   5.211  20.235  0.00  0.00    +0.000 OA
ATOM     24  H   UNL     1       9.279   4.592  19.662  0.00  0.00    +0.000 HD
ENDBRANCH   8  23
TORSDOF 2
ENDMDL
MODEL 5
REMARK VINA RESULT:      -6.2      7.943     11.617
REMARK  Name = 
REMARK  4 active torsions:
REMARK  status: ('A' for Active; 'I' for Inactive)
REMARK    1  A    between atoms: C_1  and  C_2
REMARK    2  A    between atoms: C_8  and  O_9
REMARK    3  A    between atoms: C_12  and  C_13
REMARK    4  A    between atoms: N_22  and  C_23
REMARK                            x       y       z     vdW  Elec       q    Type
REMARK                         _______ _______ _______ _____ _____    ______ ____
ROOT
ATOM      1  C   UNL     1       0.706  13.629  21.410  0.00  0.00    +0.000 C 
ATOM      2  C   UNL     1      -0.814  13.876  21.716  0.00  0.00    +0.000 C 
ATOM      3  C   UNL     1      -1.881  14.441  20.793  0.00  0.00    +0.000 C 
ATOM      4  C   UNL     1      -3.011  13.456  20.278  0.00  0.00    +0.000 C 
ATOM      5  C   UNL     1      -3.844  12.920  21.410  0.00  0.00    +0.000 A 
ATOM      6  C   UNL     1      -5.238  12.796  21.251  0.00  0.00    +0.000 A 
ATOM      7  C   UNL     1      -6.078  12.816  22.362  0.00  0.00    +0.000 A 
ATOM      8  C   UNL     1      -5.509  12.896  23.614  0.00  0.00    +0.000 A 
ATOM      9  C   UNL     1      -4.118  12.785  23.780  0.00  0.00    +0.000 A 
ATOM     10  C   UNL     1      -3.232  12.795  22.659  0.00  0.00    +0.000 A 
ATOM     11  C   UNL     1      -1.633  12.942  22.720  0.00  0.00    +0.000 C 
ATOM     12  C   UNL     1      -1.562  14.068  23.833  0.00  0.00    +0.000 C 
ATOM     13  C   UNL     1      -2.158  15.507  23.125  0.00  0.00    +0.000 C 
ATOM     14  N   UNL     1      -2.574  15.441  21.667  0.00  0.00    +0.000 NA
ATOM     15  C   UNL     1      -2.707  16.682  20.931  0.00  0.00    +0.000 C 
ENDROOT
BRANCH  11  16
ATOM     16  C   UNL     1      -1.047  11.561  22.176  0.00  0.00    +0.000 A 
ATOM     17  C   UNL     1      -0.696  10.519  23.144  0.00  0.00    +0.000 A 
ATOM     18  C   UNL     1      -0.234   9.232  22.892  0.00  0.00    +0.000 A 
ATOM     19  C   UNL     1      -0.046   8.887  21.612  0.00  0.00    +0.000 A 
ATOM     20  F   UNL     1       0.368   7.646  21.331  0.00  0.00    +0.000 F 
ATOM     21  C   UNL     1      -0.294   9.842  20.600  0.00  0.00    +0.000 A 
ATOM     22  C   UNL     1      -0.784  11.162  20.873  0.00  0.00    +0.000 A 
ENDBRANCH  11  16
BRANCH   8  23
ATOM     23  O   UNL     1      -6.304  13.172  24.695  0.00  0.00    +0.000 OA
ATOM     24  H   UNL     1      -6.243  14.120  24.872  0.00  0.00    +0.000 HD
ENDBRANCH   8  23
TORSDOF 2
ENDMDL
MODEL 6
REMARK VINA RESULT:      -6.1      8.341     11.879
REMARK  Name = 
REMARK  4 active torsions:
REMARK  status: ('A' for Active; 'I' for Inactive)
REMARK    1  A    between atoms: C_1  and  C_2
REMARK    2  A    between atoms: C_8  and  O_9
REMARK    3  A    between atoms: C_12  and  C_13
REMARK    4  A    between atoms: N_22  and  C_23
REMARK                            x       y       z     vdW  Elec       q    Type
REMARK                         _______ _______ _______ _____ _____    ______ ____
ROOT
ATOM      1  C   UNL     1      -0.378  14.461  19.616  0.00  0.00    +0.000 C 
ATOM      2  C   UNL     1      -1.413  14.479  20.797  0.00  0.00    +0.000 C 
ATOM      3  C   UNL     1      -2.609  15.397  20.986  0.00  0.00    +0.000 C 
ATOM      4  C   UNL     1      -4.056  14.767  20.841  0.00  0.00    +0.000 C 
ATOM      5  C   UNL     1      -4.316  13.715  21.885  0.00  0.00    +0.000 A 
ATOM      6  C   UNL     1      -5.577  13.646  22.507  0.00  0.00    +0.000 A 
ATOM      7  C   UNL     1      -5.707  13.086  23.776  0.00  0.00    +0.000 A 
ATOM      8  C   UNL     1      -4.588  12.549  24.374  0.00  0.00    +0.000 A 
ATOM      9  C   UNL     1      -3.386  12.410  23.659  0.00  0.00    +0.000 A 
ATOM     10  C   UNL     1      -3.216  13.002  22.370  0.00  0.00    +0.000 A 
ATOM     11  C   UNL     1      -1.828  13.146  21.573  0.00  0.00    +0.000 C 
ATOM     12  C   UNL     1      -0.918  13.570  22.798  0.00  0.00    +0.000 C 
ATOM     13  C   UNL     1      -1.389  15.153  23.245  0.00  0.00    +0.000 C 
ATOM     14  N   UNL     1      -2.481  15.809  22.421  0.00  0.00    +0.000 NA
ATOM     15  C   UNL     1      -2.638  17.247  22.503  0.00  0.00    +0.000 C 
ENDROOT
BRANCH  11  16
ATOM     16  C   UNL     1      -1.978  12.237  20.270  0.00  0.00    +0.000 A 
ATOM     17  C   UNL     1      -0.931  11.253  19.977  0.00  0.00    +0.000 A 
ATOM     18  C   UNL     1      -0.889  10.325  18.944  0.00  0.00    +0.000 A 
ATOM     19  C   UNL     1      -1.904  10.331  18.071  0.00  0.00    +0.000 A 
ATOM     20  F   UNL     1      -1.912   9.430  17.082  0.00  0.00    +0.000 F 
ATOM     21  C   UNL     1      -2.937  11.283  18.226  0.00  0.00    +0.000 A 
ATOM     22  C   UNL     1      -2.975  12.227  19.305  0.00  0.00    +0.000 A 
ENDBRANCH  11  16
BRANCH   8  23
ATOM     23  O   UNL     1      -4.630  12.227  25.705  0.00  0.00    +0.000 OA
ATOM     24  H   UNL     1      -4.768  11.272  25.774  0.00  0.00    +0.000 HD
ENDBRANCH   8  23
TORSDOF 2
ENDMDL
MODEL 7
REMARK VINA RESULT:      -6.1      8.926     11.221
REMARK  Name = 
REMARK  4 active torsions:
REMARK  status: ('A' for Active; 'I' for Inactive)
REMARK    1  A    between atoms: C_1  and  C_2
REMARK    2  A    between atoms: C_8  and  O_9
REMARK    3  A    between atoms: C_12  and  C_13
REMARK    4  A    between atoms: N_22  and  C_23
REMARK                            x       y       z     vdW  Elec       q    Type
REMARK                         _______ _______ _______ _____ _____    ______ ____
ROOT
ATOM      1  C   UNL     1      11.517  13.583  16.564  0.00  0.00    +0.000 C 
ATOM      2  C   UNL     1      11.036  14.592  17.667  0.00  0.00    +0.000 C 
ATOM      3  C   UNL     1      10.134  15.804  17.507  0.00  0.00    +0.000 C 
ATOM      4  C   UNL     1       8.680  15.733  18.132  0.00  0.00    +0.000 C 
ATOM      5  C   UNL     1       8.720  15.583  19.628  0.00  0.00    +0.000 A 
ATOM      6  C   UNL     1       7.805  16.297  20.425  0.00  0.00    +0.000 A 
ATOM      7  C   UNL     1       8.112  16.604  21.749  0.00  0.00    +0.000 A 
ATOM      8  C   UNL     1       9.300  16.140  22.271  0.00  0.00    +0.000 A 
ATOM      9  C   UNL     1      10.099  15.236  21.550  0.00  0.00    +0.000 A 
ATOM     10  C   UNL     1       9.823  14.929  20.182  0.00  0.00    +0.000 A 
ATOM     11  C   UNL     1      10.795  14.134  19.179  0.00  0.00    +0.000 C 
ATOM     12  C   UNL     1      12.158  14.820  19.609  0.00  0.00    +0.000 C 
ATOM     13  C   UNL     1      12.100  16.436  19.052  0.00  0.00    +0.000 C 
ATOM     14  N   UNL     1      10.864  16.859  18.281  0.00  0.00    +0.000 NA
ATOM     15  C   UNL     1      10.932  18.059  17.472  0.00  0.00    +0.000 C 
ENDROOT
BRANCH  11  16
ATOM     16  C   UNL     1      10.036  12.777  18.820  0.00  0.00    +0.000 A 
ATOM     17  C   UNL     1      10.371  11.566  19.576  0.00  0.00    +0.000 A 
ATOM     18  C   UNL     1       9.797  10.305  19.475  0.00  0.00    +0.000 A 
ATOM     19  C   UNL     1       8.836  10.139  18.557  0.00  0.00    +0.000 A 
ATOM     20  F   UNL     1       8.239   8.946  18.455  0.00  0.00    +0.000 F 
ATOM     21  C   UNL     1       8.480  11.229  17.731  0.00  0.00    +0.000 A 
ATOM     22  C   UNL     1       9.071  12.529  17.854  0.00  0.00    +0.000 A 
ENDBRANCH  11  16
BRANCH   8  23
ATOM     23  O   UNL     1       9.743  16.633  23.470  0.00  0.00    +0.000 OA
ATOM     24  H   UNL     1       9.601  15.951  24.140  0.00  0.00    +0.000 HD
ENDBRANCH   8  23
TORSDOF 2
ENDMDL
MODEL 8
REMARK VINA RESULT:      -5.9      7.640     10.050
REMARK  Name = 
REMARK  4 active torsions:
REMARK  status: ('A' for Active; 'I' for Inactive)
REMARK    1  A    between atoms: C_1  and  C_2
REMARK    2  A    between atoms: C_8  and  O_9
REMARK    3  A    between atoms: C_12  and  C_13
REMARK    4  A    between atoms: N_22  and  C_23
REMARK                            x       y       z     vdW  Elec       q    Type
REMARK                         _______ _______ _______ _____ _____    ______ ____
ROOT
ATOM      1  C   UNL     1      -0.267  14.869  22.794  0.00  0.00    +0.000 C 
ATOM      2  C   UNL     1      -0.183  14.047  21.459  0.00  0.00    +0.000 C 
ATOM      3  C   UNL     1       0.850  13.008  21.055  0.00  0.00    +0.000 C 
ATOM      4  C   UNL     1       0.385  11.496  20.972  0.00  0.00    +0.000 C 
ATOM      5  C   UNL     1      -0.673  11.292  19.922  0.00  0.00    +0.000 A 
ATOM      6  C   UNL     1      -0.631  10.149  19.101  0.00  0.00    +0.000 A 
ATOM      7  C   UNL     1      -1.221  10.164  17.840  0.00  0.00    +0.000 A 
ATOM      8  C   UNL     1      -1.898  11.298  17.446  0.00  0.00    +0.000 A 
ATOM      9  C   UNL     1      -2.138  12.345  18.353  0.00  0.00    +0.000 A 
ATOM     10  C   UNL     1      -1.518  12.369  19.640  0.00  0.00    +0.000 A 
ATOM     11  C   UNL     1      -1.493  13.617  20.652  0.00  0.00    +0.000 C 
ATOM     12  C   UNL     1      -1.216  14.755  19.586  0.00  0.00    +0.000 C 
ATOM     13  C   UNL     1       0.389  14.543  19.034  0.00  0.00    +0.000 C 
ATOM     14  N   UNL     1       1.190  13.413  19.654  0.00  0.00    +0.000 NA
ATOM     15  C   UNL     1       2.632  13.434  19.517  0.00  0.00    +0.000 C 
ENDROOT
BRANCH  11  16
ATOM     16  C   UNL     1      -2.330  13.157  21.931  0.00  0.00    +0.000 A 
ATOM     17  C   UNL     1      -3.564  13.878  22.257  0.00  0.00    +0.000 A 
ATOM     18  C   UNL     1      -4.471  13.610  23.275  0.00  0.00    +0.000 A 
ATOM     19  C   UNL     1      -4.189  12.592  24.098  0.00  0.00    +0.000 A 
ATOM     20  F   UNL     1      -5.056  12.287  25.070  0.00  0.00    +0.000 F 
ATOM     21  C   UNL     1      -2.989  11.870  23.910  0.00  0.00    +0.000 A 
ATOM     22  C   UNL     1      -2.068  12.147  22.846  0.00  0.00    +0.000 A 
ENDBRANCH  11  16
BRANCH   8  23
ATOM     23  O   UNL     1      -2.265  11.437  16.134  0.00  0.00    +0.000 OA
ATOM     24  H   UNL     1      -3.172  11.113  16.044  0.00  0.00    +0.000 HD
ENDBRANCH   8  23
TORSDOF 2
ENDMDL
MODEL 9
REMARK VINA RESULT:      -5.8      8.803     12.816
REMARK  Name = 
REMARK  4 active torsions:
REMARK  status: ('A' for Active; 'I' for Inactive)
REMARK    1  A    between atoms: C_1  and  C_2
REMARK    2  A    between atoms: C_8  and  O_9
REMARK    3  A    between atoms: C_12  and  C_13
REMARK    4  A    between atoms: N_22  and  C_23
REMARK                            x       y       z     vdW  Elec       q    Type
REMARK                         _______ _______ _______ _____ _____    ______ ____
ROOT
ATOM      1  C   UNL     1      -0.567  14.754  22.752  0.00  0.00    +0.000 C 
ATOM      2  C   UNL     1      -2.137  14.737  22.771  0.00  0.00    +0.000 C 
ATOM      3  C   UNL     1      -3.099  15.452  21.836  0.00  0.00    +0.000 C 
ATOM      4  C   UNL     1      -3.939  14.571  20.823  0.00  0.00    +0.000 C 
ATOM      5  C   UNL     1      -4.863  13.623  21.538  0.00  0.00    +0.000 A 
ATOM      6  C   UNL     1      -6.165  13.414  21.045  0.00  0.00    +0.000 A 
ATOM      7  C   UNL     1      -7.184  12.997  21.899  0.00  0.00    +0.000 A 
ATOM      8  C   UNL     1      -6.870  12.736  23.215  0.00  0.00    +0.000 A 
ATOM      9  C   UNL     1      -5.533  12.719  23.647  0.00  0.00    +0.000 A 
ATOM     10  C   UNL     1      -4.474  13.173  22.802  0.00  0.00    +0.000 A 
ATOM     11  C   UNL     1      -2.959  13.455  23.256  0.00  0.00    +0.000 C 
ATOM     12  C   UNL     1      -3.276  14.174  24.632  0.00  0.00    +0.000 C 
ATOM     13  C   UNL     1      -3.963  15.694  24.255  0.00  0.00    +0.000 C 
ATOM     14  N   UNL     1      -4.092  16.049  22.785  0.00  0.00    +0.000 NA
ATOM     15  C   UNL     1      -4.294  17.438  22.426  0.00  0.00    +0.000 C 
ENDROOT
BRANCH  11  16
ATOM     16  C   UNL     1      -2.065  12.384  22.482  0.00  0.00    +0.000 A 
ATOM     17  C   UNL     1      -1.451  11.297  23.251  0.00  0.00    +0.000 A 
ATOM     18  C   UNL     1      -0.695  10.231  22.778  0.00  0.00    +0.000 A 
ATOM     19  C   UNL     1      -0.453  10.185  21.461  0.00  0.00    +0.000 A 
ATOM     20  F   UNL     1       0.245   9.156  20.967  0.00  0.00    +0.000 F 
ATOM     21  C   UNL     1      -0.947  11.222  20.637  0.00  0.00    +0.000 A 
ATOM     22  C   UNL     1      -1.737  12.309  21.135  0.00  0.00    +0.000 A 
ENDBRANCH  11  16
BRANCH   8  23
ATOM     23  O   UNL     1      -7.882  12.574  24.125  0.00  0.00    +0.000 OA
ATOM     24  H   UNL     1      -7.602  11.902  24.761  0.00  0.00    +0.000 HD
ENDBRANCH   8  23
TORSDOF 2
ENDMDL
