MODEL 1
REMARK VINA RESULT:      -8.4      0.000      0.000
REMARK  Name = 
REMARK  1 active torsions:
REMARK  status: ('A' for Active; 'I' for Inactive)
REMARK    1  A    between atoms: N_17  and  C_18
REMARK                            x       y       z     vdW  Elec       q    Type
REMARK                         _______ _______ _______ _____ _____    ______ ____
ROOT
ATOM      1  O   UNL     1       3.931   5.794  17.842  0.00  0.00    +0.000 OA
ATOM      2  C   UNL     1       3.119   6.528  18.401  0.00  0.00    +0.000 C 
ATOM      3  N   UNL     1       3.007   7.819  17.962  0.00  0.00    +0.000 N 
ATOM      4  C   UNL     1       2.220   8.779  18.523  0.00  0.00    +0.000 A 
ATOM      5  N   UNL     1       1.547   8.714  19.647  0.00  0.00    +0.000 NA
ATOM      6  C   UNL     1       0.887   9.926  19.866  0.00  0.00    +0.000 A 
ATOM      7  C   UNL     1       1.038  10.851  18.826  0.00  0.00    +0.000 A 
ATOM      8  C   UNL     1       0.408  12.102  18.834  0.00  0.00    +0.000 A 
ATOM      9  C   UNL     1      -0.364  12.448  19.943  0.00  0.00    +0.000 A 
ATOM     10  C   UNL     1      -0.516  11.578  21.027  0.00  0.00    +0.000 A 
ATOM     11  C   UNL     1      -1.274  11.960  22.142  0.00  0.00    +0.000 A 
ATOM     12  C   UNL     1      -1.427  11.100  23.230  0.00  0.00    +0.000 A 
ATOM     13  C   UNL     1      -0.826   9.845  23.219  0.00  0.00    +0.000 A 
ATOM     14  C   UNL     1      -0.065   9.444  22.116  0.00  0.00    +0.000 A 
ATOM     15  C   UNL     1       0.102  10.301  21.006  0.00  0.00    +0.000 A 
ATOM     16  S   UNL     1       2.090  10.206  17.622  0.00  0.00    +0.000 S 
ATOM     17  N   UNL     1       2.241   6.152  19.380  0.00  0.00    +0.000 N 
ATOM     18  H   UNL     1       3.543   8.053  17.138  0.00  0.00    +0.000 HD
ATOM     19  H   UNL     1       1.540   6.848  19.631  0.00  0.00    +0.000 HD
ENDROOT
BRANCH  17  20
ATOM     20  C   UNL     1       2.030   4.870  19.918  0.00  0.00    +0.000 A 
ATOM     21  C   UNL     1       2.317   4.554  21.247  0.00  0.00    +0.000 A 
ATOM     22  C   UNL     1       2.127   3.253  21.718  0.00  0.00    +0.000 A 
ATOM     23  C   UNL     1       1.654   2.257  20.864  0.00  0.00    +0.000 A 
ATOM     24  C   UNL     1       1.342   2.565  19.542  0.00  0.00    +0.000 A 
ATOM     25  C   UNL     1       1.517   3.867  19.075  0.00  0.00    +0.000 A 
ATOM     26 CL   UNL     1       1.146   4.190  17.415  0.00  0.00    +0.000 Cl
ENDBRANCH  17  20
TORSDOF 1
ENDMDL
MODEL 2
REMARK VINA RESULT:      -8.1      2.952      7.808
REMARK  Name = 
REMARK  1 active torsions:
REMARK  status: ('A' for Active; 'I' for Inactive)
REMARK    1  A    between atoms: N_17  and  C_18
REMARK                            x       y       z     vdW  Elec       q    Type
REMARK                         _______ _______ _______ _____ _____    ______ ____
ROOT
ATOM      1  O   UNL     1       0.459   9.474  21.938  0.00  0.00    +0.000 OA
ATOM      2  C   UNL     1       0.987   8.838  21.028  0.00  0.00    +0.000 C 
ATOM      3  N   UNL     1       1.211   7.502  21.219  0.00  0.00    +0.000 N 
ATOM      4  C   UNL     1       1.857   6.677  20.349  0.00  0.00    +0.000 A 
ATOM      5  N   UNL     1       2.507   7.004  19.258  0.00  0.00    +0.000 NA
ATOM      6  C   UNL     1       3.040   5.855  18.670  0.00  0.00    +0.000 A 
ATOM      7  C   UNL     1       2.691   4.667  19.325  0.00  0.00    +0.000 A 
ATOM      8  C   UNL     1       3.082   3.407  18.856  0.00  0.00    +0.000 A 
ATOM      9  C   UNL     1       3.883   3.343  17.716  0.00  0.00    +0.000 A 
ATOM     10  C   UNL     1       4.292   4.500  17.045  0.00  0.00    +0.000 A 
ATOM     11  C   UNL     1       5.120   4.410  15.918  0.00  0.00    +0.000 A 
ATOM     12  C   UNL     1       5.538   5.560  15.245  0.00  0.00    +0.000 A 
ATOM     13  C   UNL     1       5.132   6.815  15.689  0.00  0.00    +0.000 A 
ATOM     14  C   UNL     1       4.306   6.927  16.813  0.00  0.00    +0.000 A 
ATOM     15  C   UNL     1       3.875   5.774  17.507  0.00  0.00    +0.000 A 
ATOM     16  S   UNL     1       1.766   5.031  20.734  0.00  0.00    +0.000 S 
ATOM     17  N   UNL     1       1.301   9.325  19.788  0.00  0.00    +0.000 N 
ATOM     18  H   UNL     1       0.838   7.111  22.072  0.00  0.00    +0.000 HD
ATOM     19  H   UNL     1       1.599   8.627  19.107  0.00  0.00    +0.000 HD
ENDROOT
BRANCH  17  20
ATOM     20  C   UNL     1       1.052  10.605  19.264  0.00  0.00    +0.000 A 
ATOM     21  C   UNL     1       2.041  11.585  19.166  0.00  0.00    +0.000 A 
ATOM     22  C   UNL     1       1.727  12.855  18.675  0.00  0.00    +0.000 A 
ATOM     23  C   UNL     1       0.423  13.157  18.284  0.00  0.00    +0.000 A 
ATOM     24  C   UNL     1      -0.568  12.181  18.356  0.00  0.00    +0.000 A 
ATOM     25  C   UNL     1      -0.253  10.908  18.831  0.00  0.00    +0.000 A 
ATOM     26 CL   UNL     1      -1.528   9.741  18.932  0.00  0.00    +0.000 Cl
ENDBRANCH  17  20
TORSDOF 1
ENDMDL
MODEL 3
REMARK VINA RESULT:      -8.0      2.207      6.802
REMARK  Name = 
REMARK  1 active torsions:
REMARK  status: ('A' for Active; 'I' for Inactive)
REMARK    1  A    between atoms: N_17  and  C_18
REMARK                            x       y       z     vdW  Elec       q    Type
REMARK                         _______ _______ _______ _____ _____    ______ ____
ROOT
ATOM      1  O   UNL     1       1.087  11.110  18.073  0.00  0.00    +0.000 OA
ATOM      2  C   UNL     1       1.465  10.026  18.511  0.00  0.00    +0.000 C 
ATOM      3  N   UNL     1       2.317   9.281  17.742  0.00  0.00    +0.000 N 
ATOM      4  C   UNL     1       2.763   8.029  18.041  0.00  0.00    +0.000 A 
ATOM      5  N   UNL     1       2.367   7.243  19.014  0.00  0.00    +0.000 NA
ATOM      6  C   UNL     1       3.066   6.036  18.952  0.00  0.00    +0.000 A 
ATOM      7  C   UNL     1       4.042   5.994  17.949  0.00  0.00    +0.000 A 
ATOM      8  C   UNL     1       4.884   4.891  17.764  0.00  0.00    +0.000 A 
ATOM      9  C   UNL     1       4.711   3.779  18.588  0.00  0.00    +0.000 A 
ATOM     10  C   UNL     1       3.725   3.752  19.580  0.00  0.00    +0.000 A 
ATOM     11  C   UNL     1       3.552   2.612  20.376  0.00  0.00    +0.000 A 
ATOM     12  C   UNL     1       2.569   2.574  21.365  0.00  0.00    +0.000 A 
ATOM     13  C   UNL     1       1.744   3.676  21.573  0.00  0.00    +0.000 A 
ATOM     14  C   UNL     1       1.900   4.824  20.789  0.00  0.00    +0.000 A 
ATOM     15  C   UNL     1       2.889   4.880  19.783  0.00  0.00    +0.000 A 
ATOM     16  S   UNL     1       3.999   7.457  17.037  0.00  0.00    +0.000 S 
ATOM     17  N   UNL     1       1.181   9.518  19.749  0.00  0.00    +0.000 N 
ATOM     18  H   UNL     1       2.651   9.724  16.898  0.00  0.00    +0.000 HD
ATOM     19  H   UNL     1       1.693   8.674  20.005  0.00  0.00    +0.000 HD
ENDROOT
BRANCH  17  20
ATOM     20  C   UNL     1       0.461  10.121  20.795  0.00  0.00    +0.000 A 
ATOM     21  C   UNL     1       0.300  11.504  20.901  0.00  0.00    +0.000 A 
ATOM     22  C   UNL     1      -0.391  12.050  21.984  0.00  0.00    +0.000 A 
ATOM     23  C   UNL     1      -0.922  11.222  22.973  0.00  0.00    +0.000 A 
ATOM     24  C   UNL     1      -0.787   9.840  22.867  0.00  0.00    +0.000 A 
ATOM     25  C   UNL     1      -0.111   9.292  21.778  0.00  0.00    +0.000 A 
ATOM     26 CL   UNL     1       0.057   7.569  21.711  0.00  0.00    +0.000 Cl
ENDBRANCH  17  20
TORSDOF 1
ENDMDL
MODEL 4
REMARK VINA RESULT:      -7.9      2.871      7.716
REMARK  Name = 
REMARK  1 active torsions:
REMARK  status: ('A' for Active; 'I' for Inactive)
REMARK    1  A    between atoms: N_17  and  C_18
REMARK                            x       y       z     vdW  Elec       q    Type
REMARK                         _______ _______ _______ _____ _____    ______ ____
ROOT
ATOM      1  O   UNL     1       0.504   8.790  22.423  0.00  0.00    +0.000 OA
ATOM      2  C   UNL     1       1.024   8.253  21.447  0.00  0.00    +0.000 C 
ATOM      3  N   UNL     1       1.189   6.895  21.469  0.00  0.00    +0.000 N 
ATOM      4  C   UNL     1       1.818   6.160  20.510  0.00  0.00    +0.000 A 
ATOM      5  N   UNL     1       2.503   6.595  19.479  0.00  0.00    +0.000 NA
ATOM      6  C   UNL     1       3.000   5.508  18.757  0.00  0.00    +0.000 A 
ATOM      7  C   UNL     1       2.590   4.263  19.249  0.00  0.00    +0.000 A 
ATOM      8  C   UNL     1       2.938   3.058  18.628  0.00  0.00    +0.000 A 
ATOM      9  C   UNL     1       3.758   3.104  17.501  0.00  0.00    +0.000 A 
ATOM     10  C   UNL     1       4.229   4.319  16.991  0.00  0.00    +0.000 A 
ATOM     11  C   UNL     1       5.075   4.337  15.874  0.00  0.00    +0.000 A 
ATOM     12  C   UNL     1       5.553   5.544  15.360  0.00  0.00    +0.000 A 
ATOM     13  C   UNL     1       5.190   6.749  15.955  0.00  0.00    +0.000 A 
ATOM     14  C   UNL     1       4.347   6.752  17.072  0.00  0.00    +0.000 A 
ATOM     15  C   UNL     1       3.855   5.541  17.606  0.00  0.00    +0.000 A 
ATOM     16  S   UNL     1       1.652   4.484  20.679  0.00  0.00    +0.000 S 
ATOM     17  N   UNL     1       1.383   8.879  20.285  0.00  0.00    +0.000 N 
ATOM     18  H   UNL     1       0.783   6.415  22.259  0.00  0.00    +0.000 HD
ATOM     19  H   UNL     1       1.666   8.263  19.524  0.00  0.00    +0.000 HD
ENDROOT
BRANCH  17  20
ATOM     20  C   UNL     1       1.197  10.226  19.925  0.00  0.00    +0.000 A 
ATOM     21  C   UNL     1       0.693  11.180  20.811  0.00  0.00    +0.000 A 
ATOM     22  C   UNL     1       0.491  12.495  20.387  0.00  0.00    +0.000 A 
ATOM     23  C   UNL     1       0.784  12.867  19.075  0.00  0.00    +0.000 A 
ATOM     24  C   UNL     1       1.309  11.929  18.189  0.00  0.00    +0.000 A 
ATOM     25  C   UNL     1       1.526  10.619  18.615  0.00  0.00    +0.000 A 
ATOM     26 CL   UNL     1       2.149   9.485  17.464  0.00  0.00    +0.000 Cl
ENDBRANCH  17  20
TORSDOF 1
ENDMDL
MODEL 5
REMARK VINA RESULT:      -7.6      3.413      5.294
REMARK  Name = 
REMARK  1 active torsions:
REMARK  status: ('A' for Active; 'I' for Inactive)
REMARK    1  A    between atoms: N_17  and  C_18
REMARK                            x       y       z     vdW  Elec       q    Type
REMARK                         _______ _______ _______ _____ _____    ______ ____
ROOT
ATOM      1  O   UNL     1       3.981   2.258  17.585  0.00  0.00    +0.000 OA
ATOM      2  C   UNL     1       3.721   3.422  17.884  0.00  0.00    +0.000 C 
ATOM      3  N   UNL     1       2.902   3.646  18.956  0.00  0.00    +0.000 N 
ATOM      4  C   UNL     1       2.452   4.865  19.367  0.00  0.00    +0.000 A 
ATOM      5  N   UNL     1       2.580   6.019  18.757  0.00  0.00    +0.000 NA
ATOM      6  C   UNL     1       1.955   7.016  19.509  0.00  0.00    +0.000 A 
ATOM      7  C   UNL     1       1.434   6.566  20.729  0.00  0.00    +0.000 A 
ATOM      8  C   UNL     1       0.820   7.425  21.647  0.00  0.00    +0.000 A 
ATOM      9  C   UNL     1       0.689   8.772  21.310  0.00  0.00    +0.000 A 
ATOM     10  C   UNL     1       1.156   9.267  20.089  0.00  0.00    +0.000 A 
ATOM     11  C   UNL     1       0.987  10.619  19.761  0.00  0.00    +0.000 A 
ATOM     12  C   UNL     1       1.446  11.122  18.543  0.00  0.00    +0.000 A 
ATOM     13  C   UNL     1       2.082  10.280  17.635  0.00  0.00    +0.000 A 
ATOM     14  C   UNL     1       2.260   8.927  17.942  0.00  0.00    +0.000 A 
ATOM     15  C   UNL     1       1.801   8.401  19.170  0.00  0.00    +0.000 A 
ATOM     16  S   UNL     1       1.664   4.862  20.864  0.00  0.00    +0.000 S 
ATOM     17  N   UNL     1       4.246   4.538  17.291  0.00  0.00    +0.000 N 
ATOM     18  H   UNL     1       2.640   2.829  19.489  0.00  0.00    +0.000 HD
ATOM     19  H   UNL     1       4.036   5.421  17.755  0.00  0.00    +0.000 HD
ENDROOT
BRANCH  17  20
ATOM     20  C   UNL     1       5.215   4.612  16.274  0.00  0.00    +0.000 A 
ATOM     21  C   UNL     1       4.954   4.236  14.955  0.00  0.00    +0.000 A 
ATOM     22  C   UNL     1       5.966   4.292  13.995  0.00  0.00    +0.000 A 
ATOM     23  C   UNL     1       7.247   4.717  14.344  0.00  0.00    +0.000 A 
ATOM     24  C   UNL     1       7.514   5.116  15.652  0.00  0.00    +0.000 A 
ATOM     25  C   UNL     1       6.500   5.075  16.608  0.00  0.00    +0.000 A 
ATOM     26 CL   UNL     1       6.893   5.551  18.227  0.00  0.00    +0.000 Cl
ENDBRANCH  17  20
TORSDOF 1
ENDMDL
MODEL 6
REMARK VINA RESULT:      -7.5      2.399      6.919
REMARK  Name = 
REMARK  1 active torsions:
REMARK  status: ('A' for Active; 'I' for Inactive)
REMARK    1  A    between atoms: N_17  and  C_18
REMARK                            x       y       z     vdW  Elec       q    Type
REMARK                         _______ _______ _______ _____ _____    ______ ____
ROOT
ATOM      1  O   UNL     1       1.805  10.966  18.493  0.00  0.00    +0.000 OA
ATOM      2  C   UNL     1       1.959   9.758  18.662  0.00  0.00    +0.000 C 
ATOM      3  N   UNL     1       2.772   9.083  17.793  0.00  0.00    +0.000 N 
ATOM      4  C   UNL     1       2.983   7.737  17.791  0.00  0.00    +0.000 A 
ATOM      5  N   UNL     1       2.360   6.822  18.495  0.00  0.00    +0.000 NA
ATOM      6  C   UNL     1       2.870   5.561  18.175  0.00  0.00    +0.000 A 
ATOM      7  C   UNL     1       3.939   5.592  17.272  0.00  0.00    +0.000 A 
ATOM      8  C   UNL     1       4.619   4.436  16.871  0.00  0.00    +0.000 A 
ATOM      9  C   UNL     1       4.183   3.206  17.364  0.00  0.00    +0.000 A 
ATOM     10  C   UNL     1       3.095   3.114  18.237  0.00  0.00    +0.000 A 
ATOM     11  C   UNL     1       2.658   1.864  18.696  0.00  0.00    +0.000 A 
ATOM     12  C   UNL     1       1.570   1.762  19.565  0.00  0.00    +0.000 A 
ATOM     13  C   UNL     1       0.905   2.909  19.989  0.00  0.00    +0.000 A 
ATOM     14  C   UNL     1       1.325   4.167  19.542  0.00  0.00    +0.000 A 
ATOM     15  C   UNL     1       2.423   4.288  18.662  0.00  0.00    +0.000 A 
ATOM     16  S   UNL     1       4.227   7.216  16.768  0.00  0.00    +0.000 S 
ATOM     17  N   UNL     1       1.457   9.024  19.702  0.00  0.00    +0.000 N 
ATOM     18  H   UNL     1       3.266   9.652  17.120  0.00  0.00    +0.000 HD
ATOM     19  H   UNL     1       1.801   8.066  19.768  0.00  0.00    +0.000 HD
ENDROOT
BRANCH  17  20
ATOM     20  C   UNL     1       0.719   9.473  20.811  0.00  0.00    +0.000 A 
ATOM     21  C   UNL     1       1.123   9.244  22.128  0.00  0.00    +0.000 A 
ATOM     22  C   UNL     1       0.329   9.677  23.192  0.00  0.00    +0.000 A 
ATOM     23  C   UNL     1      -0.876  10.337  22.950  0.00  0.00    +0.000 A 
ATOM     24  C   UNL     1      -1.278  10.591  21.641  0.00  0.00    +0.000 A 
ATOM     25  C   UNL     1      -0.479  10.172  20.578  0.00  0.00    +0.000 A 
ATOM     26 CL   UNL     1      -1.041  10.484  18.970  0.00  0.00    +0.000 Cl
ENDBRANCH  17  20
TORSDOF 1
ENDMDL
MODEL 7
REMARK VINA RESULT:      -7.5      1.147      1.542
REMARK  Name = 
REMARK  1 active torsions:
REMARK  status: ('A' for Active; 'I' for Inactive)
REMARK    1  A    between atoms: N_17  and  C_18
REMARK                            x       y       z     vdW  Elec       q    Type
REMARK                         _______ _______ _______ _____ _____    ______ ____
ROOT
ATOM      1  O   UNL     1       4.075   6.045  16.874  0.00  0.00    +0.000 OA
ATOM      2  C   UNL     1       3.286   6.682  17.570  0.00  0.00    +0.000 C 
ATOM      3  N   UNL     1       3.228   8.039  17.400  0.00  0.00    +0.000 N 
ATOM      4  C   UNL     1       2.472   8.896  18.142  0.00  0.00    +0.000 A 
ATOM      5  N   UNL     1       1.787   8.632  19.229  0.00  0.00    +0.000 NA
ATOM      6  C   UNL     1       1.172   9.800  19.688  0.00  0.00    +0.000 A 
ATOM      7  C   UNL     1       1.368  10.910  18.856  0.00  0.00    +0.000 A 
ATOM      8  C   UNL     1       0.786  12.156  19.116  0.00  0.00    +0.000 A 
ATOM      9  C   UNL     1       0.017  12.301  20.270  0.00  0.00    +0.000 A 
ATOM     10  C   UNL     1      -0.177  11.237  21.156  0.00  0.00    +0.000 A 
ATOM     11  C   UNL     1      -0.931  11.416  22.324  0.00  0.00    +0.000 A 
ATOM     12  C   UNL     1      -1.127  10.361  23.216  0.00  0.00    +0.000 A 
ATOM     13  C   UNL     1      -0.574   9.111  22.952  0.00  0.00    +0.000 A 
ATOM     14  C   UNL     1       0.181   8.911  21.792  0.00  0.00    +0.000 A 
ATOM     15  C   UNL     1       0.391   9.968  20.879  0.00  0.00    +0.000 A 
ATOM     16  S   UNL     1       2.406  10.479  17.548  0.00  0.00    +0.000 S 
ATOM     17  N   UNL     1       2.385   6.151  18.451  0.00  0.00    +0.000 N 
ATOM     18  H   UNL     1       3.780   8.413  16.641  0.00  0.00    +0.000 HD
ATOM     19  H   UNL     1       1.709   6.810  18.837  0.00  0.00    +0.000 HD
ENDROOT
BRANCH  17  20
ATOM     20  C   UNL     1       2.121   4.797  18.719  0.00  0.00    +0.000 A 
ATOM     21  C   UNL     1       2.226   3.801  17.746  0.00  0.00    +0.000 A 
ATOM     22  C   UNL     1       1.911   2.477  18.059  0.00  0.00    +0.000 A 
ATOM     23  C   UNL     1       1.483   2.137  19.342  0.00  0.00    +0.000 A 
ATOM     24  C   UNL     1       1.395   3.118  20.327  0.00  0.00    +0.000 A 
ATOM     25  C   UNL     1       1.725   4.438  20.021  0.00  0.00    +0.000 A 
ATOM     26 CL   UNL     1       1.568   5.624  21.273  0.00  0.00    +0.000 Cl
ENDBRANCH  17  20
TORSDOF 1
ENDMDL
MODEL 8
REMARK VINA RESULT:      -7.3      2.339      6.873
REMARK  Name = 
REMARK  1 active torsions:
REMARK  status: ('A' for Active; 'I' for Inactive)
REMARK    1  A    between atoms: N_17  and  C_18
REMARK                            x       y       z     vdW  Elec       q    Type
REMARK                         _______ _______ _______ _____ _____    ______ ____
ROOT
ATOM      1  O   UNL     1       1.963  10.791  17.377  0.00  0.00    +0.000 OA
ATOM      2  C   UNL     1       2.118   9.709  17.939  0.00  0.00    +0.000 C 
ATOM      3  N   UNL     1       3.056   8.849  17.436  0.00  0.00    +0.000 N 
ATOM      4  C   UNL     1       3.294   7.586  17.889  0.00  0.00    +0.000 A 
ATOM      5  N   UNL     1       2.601   6.900  18.766  0.00  0.00    +0.000 NA
ATOM      6  C   UNL     1       3.175   5.637  18.930  0.00  0.00    +0.000 A 
ATOM      7  C   UNL     1       4.356   5.451  18.201  0.00  0.00    +0.000 A 
ATOM      8  C   UNL     1       5.109   4.273  18.276  0.00  0.00    +0.000 A 
ATOM      9  C   UNL     1       4.636   3.234  19.078  0.00  0.00    +0.000 A 
ATOM     10  C   UNL     1       3.442   3.352  19.796  0.00  0.00    +0.000 A 
ATOM     11  C   UNL     1       2.974   2.284  20.572  0.00  0.00    +0.000 A 
ATOM     12  C   UNL     1       1.781   2.391  21.289  0.00  0.00    +0.000 A 
ATOM     13  C   UNL     1       1.040   3.568  21.241  0.00  0.00    +0.000 A 
ATOM     14  C   UNL     1       1.490   4.647  20.471  0.00  0.00    +0.000 A 
ATOM     15  C   UNL     1       2.694   4.556  19.739  0.00  0.00    +0.000 A 
ATOM     16  S   UNL     1       4.675   6.851  17.245  0.00  0.00    +0.000 S 
ATOM     17  N   UNL     1       1.496   9.307  19.089  0.00  0.00    +0.000 N 
ATOM     18  H   UNL     1       3.624   9.208  16.682  0.00  0.00    +0.000 HD
ATOM     19  H   UNL     1       1.847   8.442  19.499  0.00  0.00    +0.000 HD
ENDROOT
BRANCH  17  20
ATOM     20  C   UNL     1       0.605  10.034  19.899  0.00  0.00    +0.000 A 
ATOM     21  C   UNL     1       0.907  10.400  21.212  0.00  0.00    +0.000 A 
ATOM     22  C   UNL     1      -0.033  11.085  21.985  0.00  0.00    +0.000 A 
ATOM     23  C   UNL     1      -1.282  11.406  21.455  0.00  0.00    +0.000 A 
ATOM     24  C   UNL     1      -1.587  11.066  20.139  0.00  0.00    +0.000 A 
ATOM     25  C   UNL     1      -0.644  10.395  19.362  0.00  0.00    +0.000 A 
ATOM     26 CL   UNL     1      -1.085   9.966  17.743  0.00  0.00    +0.000 Cl
ENDBRANCH  17  20
TORSDOF 1
ENDMDL
MODEL 9
REMARK VINA RESULT:      -7.3      6.161      9.453
REMARK  Name = 
REMARK  1 active torsions:
REMARK  status: ('A' for Active; 'I' for Inactive)
REMARK    1  A    between atoms: N_17  and  C_18
REMARK                            x       y       z     vdW  Elec       q    Type
REMARK                         _______ _______ _______ _____ _____    ______ ____
ROOT
ATOM      1  O   UNL     1      -2.640  14.308  24.487  0.00  0.00    +0.000 OA
ATOM      2  C   UNL     1      -2.743  13.674  23.439  0.00  0.00    +0.000 C 
ATOM      3  N   UNL     1      -1.612  13.112  22.912  0.00  0.00    +0.000 N 
ATOM      4  C   UNL     1      -1.539  12.452  21.723  0.00  0.00    +0.000 A 
ATOM      5  N   UNL     1      -2.463  12.350  20.798  0.00  0.00    +0.000 NA
ATOM      6  C   UNL     1      -1.971  11.603  19.725  0.00  0.00    +0.000 A 
ATOM      7  C   UNL     1      -0.682  11.096  19.930  0.00  0.00    +0.000 A 
ATOM      8  C   UNL     1      -0.038  10.277  18.995  0.00  0.00    +0.000 A 
ATOM      9  C   UNL     1      -0.696   9.994  17.798  0.00  0.00    +0.000 A 
ATOM     10  C   UNL     1      -1.967  10.508  17.525  0.00  0.00    +0.000 A 
ATOM     11  C   UNL     1      -2.595  10.232  16.303  0.00  0.00    +0.000 A 
ATOM     12  C   UNL     1      -3.863  10.743  16.019  0.00  0.00    +0.000 A 
ATOM     13  C   UNL     1      -4.521  11.537  16.955  0.00  0.00    +0.000 A 
ATOM     14  C   UNL     1      -3.911  11.824  18.181  0.00  0.00    +0.000 A 
ATOM     15  C   UNL     1      -2.629  11.316  18.484  0.00  0.00    +0.000 A 
ATOM     16  S   UNL     1      -0.074  11.649  21.446  0.00  0.00    +0.000 S 
ATOM     17  N   UNL     1      -3.909  13.398  22.781  0.00  0.00    +0.000 N 
ATOM     18  H   UNL     1      -0.779  13.184  23.478  0.00  0.00    +0.000 HD
ATOM     19  H   UNL     1      -3.831  12.738  22.007  0.00  0.00    +0.000 HD
ENDROOT
BRANCH  17  20
ATOM     20  C   UNL     1      -5.224  13.715  23.164  0.00  0.00    +0.000 A 
ATOM     21  C   UNL     1      -6.023  12.847  23.911  0.00  0.00    +0.000 A 
ATOM     22  C   UNL     1      -7.337  13.198  24.228  0.00  0.00    +0.000 A 
ATOM     23  C   UNL     1      -7.866  14.415  23.798  0.00  0.00    +0.000 A 
ATOM     24  C   UNL     1      -7.072  15.299  23.071  0.00  0.00    +0.000 A 
ATOM     25  C   UNL     1      -5.755  14.957  22.767  0.00  0.00    +0.000 A 
ATOM     26 CL   UNL     1      -4.821  16.077  21.833  0.00  0.00    +0.000 Cl
ENDBRANCH  17  20
TORSDOF 1
ENDMDL
