MODEL 1
REMARK VINA RESULT:      -6.8      0.000      0.000
REMARK  Name = 
REMARK  5 active torsions:
REMARK  status: ('A' for Active; 'I' for Inactive)
REMARK    1  A    between atoms: C_2  and  O_3
REMARK    2  A    between atoms: C_2  and  C_4
REMARK    3  A    between atoms: C_4  and  C_5
REMARK    4  A    between atoms: C_5  and  N_6
REMARK    5  A    between atoms: N_6  and  C_7
REMARK                            x       y       z     vdW  Elec       q    Type
REMARK                         _______ _______ _______ _____ _____    ______ ____
ROOT
ATOM      1  C   UNL     1       4.204   3.568  18.426  0.00  0.00    +0.000 A 
ATOM      2  N   UNL     1       3.907   3.760  17.127  0.00  0.00    +0.000 NA
ATOM      3  C   UNL     1       2.620   3.674  16.782  0.00  0.00    +0.000 A 
ATOM      4  N   UNL     1       1.598   3.429  17.604  0.00  0.00    +0.000 NA
ATOM      5  C   UNL     1       1.898   3.231  18.889  0.00  0.00    +0.000 A 
ATOM      6  C   UNL     1       0.859   2.986  19.776  0.00  0.00    +0.000 A 
ATOM      7  C   UNL     1       1.077   2.794  21.141  0.00  0.00    +0.000 A 
ATOM      8  C   UNL     1       2.370   2.844  21.644  0.00  0.00    +0.000 A 
ATOM      9  C   UNL     1       3.433   3.077  20.775  0.00  0.00    +0.000 A 
ATOM     10  C   UNL     1       3.214   3.277  19.385  0.00  0.00    +0.000 A 
ENDROOT
BRANCH   1  11
ATOM     11  N   UNL     1       5.564   3.621  18.792  0.00  0.00    +0.000 N 
ATOM     12  H   UNL     1       5.761   3.006  19.583  0.00  0.00    +0.000 HD
BRANCH  11  13
ATOM     13  C   UNL     1       6.073   4.963  19.096  0.00  0.00    +0.000 C 
BRANCH  13  14
ATOM     14  C   UNL     1       6.577   5.691  17.845  0.00  0.00    +0.000 C 
BRANCH  14  16
ATOM     15  O   UNL     1       7.452   4.762  15.780  0.00  0.00    +0.000 OA
ATOM     16  C   UNL     1       7.458   4.804  17.002  0.00  0.00    +0.000 C 
BRANCH  16  17
ATOM     17  O   UNL     1       8.267   4.015  17.745  0.00  0.00    +0.000 OA
ATOM     18  H   UNL     1       8.057   3.065  17.683  0.00  0.00    +0.000 HD
ENDBRANCH  16  17
ENDBRANCH  14  16
ENDBRANCH  13  14
ENDBRANCH  11  13
ENDBRANCH   1  11
TORSDOF 5
ENDMDL
MODEL 2
REMARK VINA RESULT:      -6.6      1.675      2.379
REMARK  Name = 
REMARK  5 active torsions:
REMARK  status: ('A' for Active; 'I' for Inactive)
REMARK    1  A    between atoms: C_2  and  O_3
REMARK    2  A    between atoms: C_2  and  C_4
REMARK    3  A    between atoms: C_4  and  C_5
REMARK    4  A    between atoms: C_5  and  N_6
REMARK    5  A    between atoms: N_6  and  C_7
REMARK                            x       y       z     vdW  Elec       q    Type
REMARK                         _______ _______ _______ _____ _____    ______ ____
ROOT
ATOM      1  C   UNL     1       4.407   3.959  18.037  0.00  0.00    +0.000 A 
ATOM      2  N   UNL     1       5.045   5.031  18.544  0.00  0.00    +0.000 NA
ATOM      3  C   UNL     1       4.421   5.703  19.515  0.00  0.00    +0.000 A 
ATOM      4  N   UNL     1       3.231   5.405  20.041  0.00  0.00    +0.000 NA
ATOM      5  C   UNL     1       2.600   4.346  19.529  0.00  0.00    +0.000 A 
ATOM      6  C   UNL     1       1.365   3.999  20.060  0.00  0.00    +0.000 A 
ATOM      7  C   UNL     1       0.646   2.892  19.605  0.00  0.00    +0.000 A 
ATOM      8  C   UNL     1       1.167   2.105  18.588  0.00  0.00    +0.000 A 
ATOM      9  C   UNL     1       2.398   2.437  18.029  0.00  0.00    +0.000 A 
ATOM     10  C   UNL     1       3.135   3.560  18.493  0.00  0.00    +0.000 A 
ENDROOT
BRANCH   1  11
ATOM     11  N   UNL     1       5.043   3.266  16.988  0.00  0.00    +0.000 N 
ATOM     12  H   UNL     1       6.002   3.017  17.233  0.00  0.00    +0.000 HD
BRANCH  11  13
ATOM     13  C   UNL     1       5.049   3.963  15.697  0.00  0.00    +0.000 C 
BRANCH  13  14
ATOM     14  C   UNL     1       6.463   4.113  15.123  0.00  0.00    +0.000 C 
BRANCH  14  16
ATOM     15  O   UNL     1       7.597   6.108  15.913  0.00  0.00    +0.000 OA
ATOM     16  C   UNL     1       7.352   4.917  16.037  0.00  0.00    +0.000 C 
BRANCH  16  17
ATOM     17  O   UNL     1       7.892   4.171  17.028  0.00  0.00    +0.000 OA
ATOM     18  H   UNL     1       8.103   4.678  17.834  0.00  0.00    +0.000 HD
ENDBRANCH  16  17
ENDBRANCH  14  16
ENDBRANCH  13  14
ENDBRANCH  11  13
ENDBRANCH   1  11
TORSDOF 5
ENDMDL
MODEL 3
REMARK VINA RESULT:      -6.6      0.855      1.050
REMARK  Name = 
REMARK  5 active torsions:
REMARK  status: ('A' for Active; 'I' for Inactive)
REMARK    1  A    between atoms: C_2  and  O_3
REMARK    2  A    between atoms: C_2  and  C_4
REMARK    3  A    between atoms: C_4  and  C_5
REMARK    4  A    between atoms: C_5  and  N_6
REMARK    5  A    between atoms: N_6  and  C_7
REMARK                            x       y       z     vdW  Elec       q    Type
REMARK                         _______ _______ _______ _____ _____    ______ ____
ROOT
ATOM      1  C   UNL     1       4.349   3.687  18.517  0.00  0.00    +0.000 A 
ATOM      2  N   UNL     1       4.144   3.829  17.194  0.00  0.00    +0.000 NA
ATOM      3  C   UNL     1       2.893   3.663  16.755  0.00  0.00    +0.000 A 
ATOM      4  N   UNL     1       1.825   3.384  17.504  0.00  0.00    +0.000 NA
ATOM      5  C   UNL     1       2.036   3.237  18.814  0.00  0.00    +0.000 A 
ATOM      6  C   UNL     1       0.945   2.958  19.627  0.00  0.00    +0.000 A 
ATOM      7  C   UNL     1       1.068   2.815  21.010  0.00  0.00    +0.000 A 
ATOM      8  C   UNL     1       2.313   2.949  21.607  0.00  0.00    +0.000 A 
ATOM      9  C   UNL     1       3.426   3.217  20.815  0.00  0.00    +0.000 A 
ATOM     10  C   UNL     1       3.304   3.368  19.407  0.00  0.00    +0.000 A 
ENDROOT
BRANCH   1  11
ATOM     11  N   UNL     1       5.672   3.826  18.983  0.00  0.00    +0.000 N 
ATOM     12  H   UNL     1       5.828   3.276  19.829  0.00  0.00    +0.000 HD
BRANCH  11  13
ATOM     13  C   UNL     1       6.103   5.206  19.229  0.00  0.00    +0.000 C 
BRANCH  13  14
ATOM     14  C   UNL     1       7.438   5.529  18.548  0.00  0.00    +0.000 C 
BRANCH  14  16
ATOM     15  O   UNL     1       7.540   7.288  16.879  0.00  0.00    +0.000 OA
ATOM     16  C   UNL     1       7.233   6.146  17.187  0.00  0.00    +0.000 C 
BRANCH  16  17
ATOM     17  O   UNL     1       6.638   5.301  16.315  0.00  0.00    +0.000 OA
ATOM     18  H   UNL     1       5.747   5.015  16.588  0.00  0.00    +0.000 HD
ENDBRANCH  16  17
ENDBRANCH  14  16
ENDBRANCH  13  14
ENDBRANCH  11  13
ENDBRANCH   1  11
TORSDOF 5
ENDMDL
MODEL 4
REMARK VINA RESULT:      -6.5      1.943      2.520
REMARK  Name = 
REMARK  5 active torsions:
REMARK  status: ('A' for Active; 'I' for Inactive)
REMARK    1  A    between atoms: C_2  and  O_3
REMARK    2  A    between atoms: C_2  and  C_4
REMARK    3  A    between atoms: C_4  and  C_5
REMARK    4  A    between atoms: C_5  and  N_6
REMARK    5  A    between atoms: N_6  and  C_7
REMARK                            x       y       z     vdW  Elec       q    Type
REMARK                         _______ _______ _______ _____ _____    ______ ____
ROOT
ATOM      1  C   UNL     1       3.838   5.694  17.740  0.00  0.00    +0.000 A 
ATOM      2  N   UNL     1       3.519   6.849  18.353  0.00  0.00    +0.000 NA
ATOM      3  C   UNL     1       2.557   6.797  19.278  0.00  0.00    +0.000 A 
ATOM      4  N   UNL     1       1.890   5.707  19.660  0.00  0.00    +0.000 NA
ATOM      5  C   UNL     1       2.203   4.566  19.043  0.00  0.00    +0.000 A 
ATOM      6  C   UNL     1       1.539   3.409  19.424  0.00  0.00    +0.000 A 
ATOM      7  C   UNL     1       1.821   2.167  18.851  0.00  0.00    +0.000 A 
ATOM      8  C   UNL     1       2.793   2.071  17.866  0.00  0.00    +0.000 A 
ATOM      9  C   UNL     1       3.468   3.217  17.455  0.00  0.00    +0.000 A 
ATOM     10  C   UNL     1       3.186   4.482  18.040  0.00  0.00    +0.000 A 
ENDROOT
BRANCH   1  11
ATOM     11  N   UNL     1       4.828   5.748  16.738  0.00  0.00    +0.000 N 
ATOM     12  H   UNL     1       5.312   4.854  16.645  0.00  0.00    +0.000 HD
BRANCH  11  13
ATOM     13  C   UNL     1       5.824   6.812  16.904  0.00  0.00    +0.000 C 
BRANCH  13  14
ATOM     14  C   UNL     1       7.059   6.337  17.677  0.00  0.00    +0.000 C 
BRANCH  14  16
ATOM     15  O   UNL     1       7.866   4.408  16.444  0.00  0.00    +0.000 OA
ATOM     16  C   UNL     1       7.334   4.874  17.442  0.00  0.00    +0.000 C 
BRANCH  16  17
ATOM     17  O   UNL     1       6.904   4.092  18.458  0.00  0.00    +0.000 OA
ATOM     18  H   UNL     1       6.856   4.551  19.317  0.00  0.00    +0.000 HD
ENDBRANCH  16  17
ENDBRANCH  14  16
ENDBRANCH  13  14
ENDBRANCH  11  13
ENDBRANCH   1  11
TORSDOF 5
ENDMDL
MODEL 5
REMARK VINA RESULT:      -6.5      1.898      2.183
REMARK  Name = 
REMARK  5 active torsions:
REMARK  status: ('A' for Active; 'I' for Inactive)
REMARK    1  A    between atoms: C_2  and  O_3
REMARK    2  A    between atoms: C_2  and  C_4
REMARK    3  A    between atoms: C_4  and  C_5
REMARK    4  A    between atoms: C_5  and  N_6
REMARK    5  A    between atoms: N_6  and  C_7
REMARK                            x       y       z     vdW  Elec       q    Type
REMARK                         _______ _______ _______ _____ _____    ______ ____
ROOT
ATOM      1  C   UNL     1       4.224   4.815  18.229  0.00  0.00    +0.000 A 
ATOM      2  N   UNL     1       4.127   6.077  17.771  0.00  0.00    +0.000 NA
ATOM      3  C   UNL     1       3.157   6.835  18.289  0.00  0.00    +0.000 A 
ATOM      4  N   UNL     1       2.283   6.465  19.227  0.00  0.00    +0.000 NA
ATOM      5  C   UNL     1       2.379   5.210  19.672  0.00  0.00    +0.000 A 
ATOM      6  C   UNL     1       1.494   4.793  20.657  0.00  0.00    +0.000 A 
ATOM      7  C   UNL     1       1.539   3.507  21.199  0.00  0.00    +0.000 A 
ATOM      8  C   UNL     1       2.490   2.604  20.747  0.00  0.00    +0.000 A 
ATOM      9  C   UNL     1       3.382   2.991  19.751  0.00  0.00    +0.000 A 
ATOM     10  C   UNL     1       3.343   4.301  19.200  0.00  0.00    +0.000 A 
ENDROOT
BRANCH   1  11
ATOM     11  N   UNL     1       5.222   3.998  17.661  0.00  0.00    +0.000 N 
ATOM     12  H   UNL     1       6.156   4.360  17.858  0.00  0.00    +0.000 HD
BRANCH  11  13
ATOM     13  C   UNL     1       5.095   3.773  16.217  0.00  0.00    +0.000 C 
BRANCH  13  14
ATOM     14  C   UNL     1       6.383   4.113  15.459  0.00  0.00    +0.000 C 
BRANCH  14  16
ATOM     15  O   UNL     1       8.139   4.210  17.132  0.00  0.00    +0.000 OA
ATOM     16  C   UNL     1       7.394   4.786  16.353  0.00  0.00    +0.000 C 
BRANCH  16  17
ATOM     17  O   UNL     1       7.386   6.133  16.229  0.00  0.00    +0.000 OA
ATOM     18  H   UNL     1       8.175   6.568  16.600  0.00  0.00    +0.000 HD
ENDBRANCH  16  17
ENDBRANCH  14  16
ENDBRANCH  13  14
ENDBRANCH  11  13
ENDBRANCH   1  11
TORSDOF 5
ENDMDL
MODEL 6
REMARK VINA RESULT:      -6.5      3.291      5.565
REMARK  Name = 
REMARK  5 active torsions:
REMARK  status: ('A' for Active; 'I' for Inactive)
REMARK    1  A    between atoms: C_2  and  O_3
REMARK    2  A    between atoms: C_2  and  C_4
REMARK    3  A    between atoms: C_4  and  C_5
REMARK    4  A    between atoms: C_5  and  N_6
REMARK    5  A    between atoms: N_6  and  C_7
REMARK                            x       y       z     vdW  Elec       q    Type
REMARK                         _______ _______ _______ _____ _____    ______ ____
ROOT
ATOM      1  C   UNL     1       3.240   4.801  18.362  0.00  0.00    +0.000 A 
ATOM      2  N   UNL     1       2.645   5.894  18.875  0.00  0.00    +0.000 NA
ATOM      3  C   UNL     1       2.986   7.073  18.347  0.00  0.00    +0.000 A 
ATOM      4  N   UNL     1       3.851   7.269  17.350  0.00  0.00    +0.000 NA
ATOM      5  C   UNL     1       4.444   6.183  16.850  0.00  0.00    +0.000 A 
ATOM      6  C   UNL     1       5.341   6.347  15.803  0.00  0.00    +0.000 A 
ATOM      7  C   UNL     1       5.987   5.265  15.203  0.00  0.00    +0.000 A 
ATOM      8  C   UNL     1       5.738   3.978  15.656  0.00  0.00    +0.000 A 
ATOM      9  C   UNL     1       4.852   3.784  16.713  0.00  0.00    +0.000 A 
ATOM     10  C   UNL     1       4.189   4.883  17.324  0.00  0.00    +0.000 A 
ENDROOT
BRANCH   1  11
ATOM     11  N   UNL     1       2.911   3.558  18.938  0.00  0.00    +0.000 N 
ATOM     12  H   UNL     1       3.368   2.788  18.447  0.00  0.00    +0.000 HD
BRANCH  11  13
ATOM     13  C   UNL     1       1.475   3.276  19.030  0.00  0.00    +0.000 C 
BRANCH  13  14
ATOM     14  C   UNL     1       0.976   3.264  20.480  0.00  0.00    +0.000 C 
BRANCH  14  16
ATOM     15  O   UNL     1       2.692   2.519  22.027  0.00  0.00    +0.000 OA
ATOM     16  C   UNL     1       2.110   3.432  21.459  0.00  0.00    +0.000 C 
BRANCH  16  17
ATOM     17  O   UNL     1       2.420   4.729  21.681  0.00  0.00    +0.000 OA
ATOM     18  H   UNL     1       2.486   4.964  22.625  0.00  0.00    +0.000 HD
ENDBRANCH  16  17
ENDBRANCH  14  16
ENDBRANCH  13  14
ENDBRANCH  11  13
ENDBRANCH   1  11
TORSDOF 5
ENDMDL
MODEL 7
REMARK VINA RESULT:      -6.5      1.710      1.883
REMARK  Name = 
REMARK  5 active torsions:
REMARK  status: ('A' for Active; 'I' for Inactive)
REMARK    1  A    between atoms: C_2  and  O_3
REMARK    2  A    between atoms: C_2  and  C_4
REMARK    3  A    between atoms: C_4  and  C_5
REMARK    4  A    between atoms: C_5  and  N_6
REMARK    5  A    between atoms: N_6  and  C_7
REMARK                            x       y       z     vdW  Elec       q    Type
REMARK                         _______ _______ _______ _____ _____    ______ ____
ROOT
ATOM      1  C   UNL     1       4.441   4.908  18.228  0.00  0.00    +0.000 A 
ATOM      2  N   UNL     1       4.794   4.199  17.140  0.00  0.00    +0.000 NA
ATOM      3  C   UNL     1       3.982   3.203  16.777  0.00  0.00    +0.000 A 
ATOM      4  N   UNL     1       2.846   2.852  17.383  0.00  0.00    +0.000 NA
ATOM      5  C   UNL     1       2.504   3.553  18.466  0.00  0.00    +0.000 A 
ATOM      6  C   UNL     1       1.322   3.225  19.114  0.00  0.00    +0.000 A 
ATOM      7  C   UNL     1       0.873   3.921  20.239  0.00  0.00    +0.000 A 
ATOM      8  C   UNL     1       1.623   4.977  20.737  0.00  0.00    +0.000 A 
ATOM      9  C   UNL     1       2.820   5.321  20.113  0.00  0.00    +0.000 A 
ATOM     10  C   UNL     1       3.277   4.617  18.966  0.00  0.00    +0.000 A 
ENDROOT
BRANCH   1  11
ATOM     11  N   UNL     1       5.312   5.938  18.638  0.00  0.00    +0.000 N 
ATOM     12  H   UNL     1       5.537   6.564  17.865  0.00  0.00    +0.000 HD
BRANCH  11  13
ATOM     13  C   UNL     1       6.560   5.485  19.262  0.00  0.00    +0.000 C 
BRANCH  13  14
ATOM     14  C   UNL     1       7.791   6.184  18.675  0.00  0.00    +0.000 C 
BRANCH  14  16
ATOM     15  O   UNL     1       7.293   8.069  17.230  0.00  0.00    +0.000 OA
ATOM     16  C   UNL     1       7.473   6.868  17.370  0.00  0.00    +0.000 C 
BRANCH  16  17
ATOM     17  O   UNL     1       7.377   6.002  16.335  0.00  0.00    +0.000 OA
ATOM     18  H   UNL     1       8.216   5.862  15.858  0.00  0.00    +0.000 HD
ENDBRANCH  16  17
ENDBRANCH  14  16
ENDBRANCH  13  14
ENDBRANCH  11  13
ENDBRANCH   1  11
TORSDOF 5
ENDMDL
MODEL 8
REMARK VINA RESULT:      -6.4      1.920      2.285
REMARK  Name = 
REMARK  5 active torsions:
REMARK  status: ('A' for Active; 'I' for Inactive)
REMARK    1  A    between atoms: C_2  and  O_3
REMARK    2  A    between atoms: C_2  and  C_4
REMARK    3  A    between atoms: C_4  and  C_5
REMARK    4  A    between atoms: C_5  and  N_6
REMARK    5  A    between atoms: N_6  and  C_7
REMARK                            x       y       z     vdW  Elec       q    Type
REMARK                         _______ _______ _______ _____ _____    ______ ____
ROOT
ATOM      1  C   UNL     1       4.042   3.406  18.280  0.00  0.00    +0.000 A 
ATOM      2  N   UNL     1       3.761   2.092  18.216  0.00  0.00    +0.000 NA
ATOM      3  C   UNL     1       2.697   1.667  18.902  0.00  0.00    +0.000 A 
ATOM      4  N   UNL     1       1.878   2.424  19.634  0.00  0.00    +0.000 NA
ATOM      5  C   UNL     1       2.166   3.725  19.701  0.00  0.00    +0.000 A 
ATOM      6  C   UNL     1       1.328   4.546  20.443  0.00  0.00    +0.000 A 
ATOM      7  C   UNL     1       1.538   5.923  20.547  0.00  0.00    +0.000 A 
ATOM      8  C   UNL     1       2.615   6.504  19.894  0.00  0.00    +0.000 A 
ATOM      9  C   UNL     1       3.479   5.703  19.151  0.00  0.00    +0.000 A 
ATOM     10  C   UNL     1       3.266   4.302  19.040  0.00  0.00    +0.000 A 
ENDROOT
BRANCH   1  11
ATOM     11  N   UNL     1       5.184   3.856  17.587  0.00  0.00    +0.000 N 
ATOM     12  H   UNL     1       5.482   4.775  17.916  0.00  0.00    +0.000 HD
BRANCH  11  13
ATOM     13  C   UNL     1       5.050   3.896  16.126  0.00  0.00    +0.000 C 
BRANCH  13  14
ATOM     14  C   UNL     1       6.381   4.197  15.427  0.00  0.00    +0.000 C 
BRANCH  14  16
ATOM     15  O   UNL     1       7.440   6.161  16.383  0.00  0.00    +0.000 OA
ATOM     16  C   UNL     1       7.327   4.945  16.332  0.00  0.00    +0.000 C 
BRANCH  16  17
ATOM     17  O   UNL     1       8.085   4.121  17.091  0.00  0.00    +0.000 OA
ATOM     18  H   UNL     1       8.032   3.183  16.829  0.00  0.00    +0.000 HD
ENDBRANCH  16  17
ENDBRANCH  14  16
ENDBRANCH  13  14
ENDBRANCH  11  13
ENDBRANCH   1  11
TORSDOF 5
ENDMDL
MODEL 9
REMARK VINA RESULT:      -6.4      2.044      2.405
REMARK  Name = 
REMARK  5 active torsions:
REMARK  status: ('A' for Active; 'I' for Inactive)
REMARK    1  A    between atoms: C_2  and  O_3
REMARK    2  A    between atoms: C_2  and  C_4
REMARK    3  A    between atoms: C_4  and  C_5
REMARK    4  A    between atoms: C_5  and  N_6
REMARK    5  A    between atoms: N_6  and  C_7
REMARK                            x       y       z     vdW  Elec       q    Type
REMARK                         _______ _______ _______ _____ _____    ______ ____
ROOT
ATOM      1  C   UNL     1       4.943   4.725  18.351  0.00  0.00    +0.000 A 
ATOM      2  N   UNL     1       4.863   6.057  18.178  0.00  0.00    +0.000 NA
ATOM      3  C   UNL     1       3.639   6.577  18.045  0.00  0.00    +0.000 A 
ATOM      4  N   UNL     1       2.489   5.903  18.079  0.00  0.00    +0.000 NA
ATOM      5  C   UNL     1       2.574   4.581  18.242  0.00  0.00    +0.000 A 
ATOM      6  C   UNL     1       1.396   3.849  18.296  0.00  0.00    +0.000 A 
ATOM      7  C   UNL     1       1.390   2.466  18.490  0.00  0.00    +0.000 A 
ATOM      8  C   UNL     1       2.591   1.787  18.634  0.00  0.00    +0.000 A 
ATOM      9  C   UNL     1       3.789   2.495  18.573  0.00  0.00    +0.000 A 
ATOM     10  C   UNL     1       3.799   3.903  18.379  0.00  0.00    +0.000 A 
ENDROOT
BRANCH   1  11
ATOM     11  N   UNL     1       6.232   4.165  18.457  0.00  0.00    +0.000 N 
ATOM     12  H   UNL     1       6.632   4.324  19.382  0.00  0.00    +0.000 HD
BRANCH  11  13
ATOM     13  C   UNL     1       7.190   4.613  17.441  0.00  0.00    +0.000 C 
BRANCH  13  14
ATOM     14  C   UNL     1       6.824   4.120  16.037  0.00  0.00    +0.000 C 
BRANCH  14  16
ATOM     15  O   UNL     1       5.683   5.958  14.938  0.00  0.00    +0.000 OA
ATOM     16  C   UNL     1       6.681   5.263  15.065  0.00  0.00    +0.000 C 
BRANCH  16  17
ATOM     17  O   UNL     1       7.784   5.442  14.303  0.00  0.00    +0.000 OA
ATOM     18  H   UNL     1       8.224   4.612  14.044  0.00  0.00    +0.000 HD
ENDBRANCH  16  17
ENDBRANCH  14  16
ENDBRANCH  13  14
ENDBRANCH  11  13
ENDBRANCH   1  11
TORSDOF 5
ENDMDL
