MODEL 1
REMARK VINA RESULT:      -6.8      0.000      0.000
REMARK  Name = 
REMARK  8 active torsions:
REMARK  status: ('A' for Active; 'I' for Inactive)
REMARK    1  A    between atoms: C_1  and  C_2
REMARK    2  A    between atoms: C_2  and  C_3
REMARK    3  A    between atoms: C_5  and  C_6
REMARK    4  A    between atoms: C_7  and  C_8
REMARK    5  A    between atoms: N_10  and  C_11
REMARK    6  A    between atoms: N_10  and  C_12
REMARK    7  A    between atoms: C_12  and  C_13
REMARK    8  A    between atoms: N_17  and  C_18
REMARK                            x       y       z     vdW  Elec       q    Type
REMARK                         _______ _______ _______ _____ _____    ______ ____
ROOT
ATOM      1  C   UNL     1       4.363   6.205  17.693  0.00  0.00    +0.000 C 
ATOM      2  O   UNL     1       3.689   7.224  17.508  0.00  0.00    +0.000 OA
ATOM      3  N   UNL     1       4.177   5.452  18.867  0.00  0.00    +0.000 N 
ATOM      4  C   UNL     1       5.107   4.434  19.351  0.00  0.00    +0.000 C 
ENDROOT
BRANCH   1   9
ATOM      5  C   UNL     1       6.021   4.703  14.870  0.00  0.00    +0.000 A 
ATOM      6  C   UNL     1       7.126   5.357  15.353  0.00  0.00    +0.000 A 
ATOM      7  C   UNL     1       6.710   6.052  16.528  0.00  0.00    +0.000 A 
ATOM      8  C   UNL     1       7.605   6.868  17.386  0.00  0.00    +0.000 C 
ATOM      9  C   UNL     1       5.352   5.771  16.694  0.00  0.00    +0.000 A 
ATOM     10  O   UNL     1       4.947   4.989  15.644  0.00  0.00    +0.000 OA
BRANCH   5  12
ATOM     11  C   UNL     1       6.768   3.996  12.602  0.00  0.00    +0.000 C 
ATOM     12  C   UNL     1       5.796   3.764  13.745  0.00  0.00    +0.000 C 
ENDBRANCH   5  12
ENDBRANCH   1   9
BRANCH   3  13
ATOM     13  C   UNL     1       3.069   5.786  19.764  0.00  0.00    +0.000 C 
BRANCH  13  14
ATOM     14  C   UNL     1       2.258   4.577  20.141  0.00  0.00    +0.000 A 
ATOM     15  N   UNL     1       2.166   4.080  21.366  0.00  0.00    +0.000 NA
ATOM     16  C   UNL     1       1.369   2.972  21.275  0.00  0.00    +0.000 A 
ATOM     17  C   UNL     1       0.965   2.781  19.978  0.00  0.00    +0.000 A 
ATOM     18  N   UNL     1       1.539   3.797  19.266  0.00  0.00    +0.000 N 
ATOM     19  C   UNL     1       1.394   3.972  17.840  0.00  0.00    +0.000 C 
ENDBRANCH  13  14
ENDBRANCH   3  13
TORSDOF 4
ENDMDL
MODEL 2
REMARK VINA RESULT:      -6.7      1.230      1.384
REMARK  Name = 
REMARK  8 active torsions:
REMARK  status: ('A' for Active; 'I' for Inactive)
REMARK    1  A    between atoms: C_1  and  C_2
REMARK    2  A    between atoms: C_2  and  C_3
REMARK    3  A    between atoms: C_5  and  C_6
REMARK    4  A    between atoms: C_7  and  C_8
REMARK    5  A    between atoms: N_10  and  C_11
REMARK    6  A    between atoms: N_10  and  C_12
REMARK    7  A    between atoms: C_12  and  C_13
REMARK    8  A    between atoms: N_17  and  C_18
REMARK                            x       y       z     vdW  Elec       q    Type
REMARK                         _______ _______ _______ _____ _____    ______ ____
ROOT
ATOM      1  C   UNL     1       4.280   5.538  17.114  0.00  0.00    +0.000 C 
ATOM      2  O   UNL     1       3.985   6.700  17.414  0.00  0.00    +0.000 OA
ATOM      3  N   UNL     1       3.430   4.484  17.497  0.00  0.00    +0.000 N 
ATOM      4  C   UNL     1       3.810   3.073  17.490  0.00  0.00    +0.000 C 
ENDROOT
BRANCH   1   9
ATOM      5  C   UNL     1       6.676   4.837  14.518  0.00  0.00    +0.000 A 
ATOM      6  C   UNL     1       7.585   4.873  15.545  0.00  0.00    +0.000 A 
ATOM      7  C   UNL     1       6.847   5.141  16.736  0.00  0.00    +0.000 A 
ATOM      8  C   UNL     1       7.441   5.234  18.093  0.00  0.00    +0.000 C 
ATOM      9  C   UNL     1       5.507   5.250  16.356  0.00  0.00    +0.000 A 
ATOM     10  O   UNL     1       5.438   5.111  14.994  0.00  0.00    +0.000 OA
BRANCH   5  12
ATOM     11  C   UNL     1       5.831   3.425  12.649  0.00  0.00    +0.000 C 
ATOM     12  C   UNL     1       6.777   4.534  13.070  0.00  0.00    +0.000 C 
ENDBRANCH   5  12
ENDBRANCH   1   9
BRANCH   3  13
ATOM     13  C   UNL     1       2.126   4.793  18.088  0.00  0.00    +0.000 C 
BRANCH  13  14
ATOM     14  C   UNL     1       1.976   4.217  19.468  0.00  0.00    +0.000 A 
ATOM     15  N   UNL     1       2.546   4.708  20.559  0.00  0.00    +0.000 NA
ATOM     16  C   UNL     1       2.189   3.881  21.589  0.00  0.00    +0.000 A 
ATOM     17  C   UNL     1       1.390   2.865  21.128  0.00  0.00    +0.000 A 
ATOM     18  N   UNL     1       1.267   3.082  19.784  0.00  0.00    +0.000 N 
ATOM     19  C   UNL     1       0.519   2.230  18.890  0.00  0.00    +0.000 C 
ENDBRANCH  13  14
ENDBRANCH   3  13
TORSDOF 4
ENDMDL
MODEL 3
REMARK VINA RESULT:      -6.6      1.524      3.003
REMARK  Name = 
REMARK  8 active torsions:
REMARK  status: ('A' for Active; 'I' for Inactive)
REMARK    1  A    between atoms: C_1  and  C_2
REMARK    2  A    between atoms: C_2  and  C_3
REMARK    3  A    between atoms: C_5  and  C_6
REMARK    4  A    between atoms: C_7  and  C_8
REMARK    5  A    between atoms: N_10  and  C_11
REMARK    6  A    between atoms: N_10  and  C_12
REMARK    7  A    between atoms: C_12  and  C_13
REMARK    8  A    between atoms: N_17  and  C_18
REMARK                            x       y       z     vdW  Elec       q    Type
REMARK                         _______ _______ _______ _____ _____    ______ ____
ROOT
ATOM      1  C   UNL     1       3.783   4.645  17.321  0.00  0.00    +0.000 C 
ATOM      2  O   UNL     1       3.449   3.483  17.063  0.00  0.00    +0.000 OA
ATOM      3  N   UNL     1       2.854   5.520  17.915  0.00  0.00    +0.000 N 
ATOM      4  C   UNL     1       3.008   6.971  17.975  0.00  0.00    +0.000 C 
ENDROOT
BRANCH   1   9
ATOM      5  C   UNL     1       7.066   6.118  17.482  0.00  0.00    +0.000 A 
ATOM      6  C   UNL     1       7.188   5.637  16.203  0.00  0.00    +0.000 A 
ATOM      7  C   UNL     1       5.957   4.987  15.890  0.00  0.00    +0.000 A 
ATOM      8  C   UNL     1       5.648   4.348  14.587  0.00  0.00    +0.000 C 
ATOM      9  C   UNL     1       5.143   5.117  17.018  0.00  0.00    +0.000 A 
ATOM     10  O   UNL     1       5.860   5.766  17.989  0.00  0.00    +0.000 OA
BRANCH   5  12
ATOM     11  C   UNL     1       8.056   8.370  17.866  0.00  0.00    +0.000 C 
ATOM     12  C   UNL     1       7.938   6.939  18.356  0.00  0.00    +0.000 C 
ENDBRANCH   5  12
ENDBRANCH   1   9
BRANCH   3  13
ATOM     13  C   UNL     1       1.569   4.992  18.379  0.00  0.00    +0.000 C 
BRANCH  13  14
ATOM     14  C   UNL     1       1.700   4.230  19.669  0.00  0.00    +0.000 A 
ATOM     15  N   UNL     1       2.258   4.703  20.774  0.00  0.00    +0.000 NA
ATOM     16  C   UNL     1       2.207   3.695  21.696  0.00  0.00    +0.000 A 
ATOM     17  C   UNL     1       1.611   2.584  21.154  0.00  0.00    +0.000 A 
ATOM     18  N   UNL     1       1.301   2.929  19.868  0.00  0.00    +0.000 N 
ATOM     19  C   UNL     1       0.672   2.042  18.918  0.00  0.00    +0.000 C 
ENDBRANCH  13  14
ENDBRANCH   3  13
TORSDOF 4
ENDMDL
MODEL 4
REMARK VINA RESULT:      -6.5      1.797      2.206
REMARK  Name = 
REMARK  8 active torsions:
REMARK  status: ('A' for Active; 'I' for Inactive)
REMARK    1  A    between atoms: C_1  and  C_2
REMARK    2  A    between atoms: C_2  and  C_3
REMARK    3  A    between atoms: C_5  and  C_6
REMARK    4  A    between atoms: C_7  and  C_8
REMARK    5  A    between atoms: N_10  and  C_11
REMARK    6  A    between atoms: N_10  and  C_12
REMARK    7  A    between atoms: C_12  and  C_13
REMARK    8  A    between atoms: N_17  and  C_18
REMARK                            x       y       z     vdW  Elec       q    Type
REMARK                         _______ _______ _______ _____ _____    ______ ____
ROOT
ATOM      1  C   UNL     1       5.651   4.044  17.827  0.00  0.00    +0.000 C 
ATOM      2  O   UNL     1       6.586   4.307  18.591  0.00  0.00    +0.000 OA
ATOM      3  N   UNL     1       4.557   3.294  18.299  0.00  0.00    +0.000 N 
ATOM      4  C   UNL     1       3.563   2.653  17.441  0.00  0.00    +0.000 C 
ENDROOT
BRANCH   1   9
ATOM      5  C   UNL     1       5.980   4.293  14.249  0.00  0.00    +0.000 A 
ATOM      6  C   UNL     1       5.529   5.575  14.440  0.00  0.00    +0.000 A 
ATOM      7  C   UNL     1       5.323   5.731  15.844  0.00  0.00    +0.000 A 
ATOM      8  C   UNL     1       4.864   6.984  16.494  0.00  0.00    +0.000 C 
ATOM      9  C   UNL     1       5.669   4.513  16.433  0.00  0.00    +0.000 A 
ATOM     10  O   UNL     1       6.017   3.641  15.435  0.00  0.00    +0.000 OA
BRANCH   5  12
ATOM     11  C   UNL     1       5.317   3.262  12.081  0.00  0.00    +0.000 C 
ATOM     12  C   UNL     1       6.443   3.537  13.061  0.00  0.00    +0.000 C 
ENDBRANCH   5  12
ENDBRANCH   1   9
BRANCH   3  13
ATOM     13  C   UNL     1       4.461   2.990  19.729  0.00  0.00    +0.000 C 
BRANCH  13  14
ATOM     14  C   UNL     1       3.092   3.282  20.280  0.00  0.00    +0.000 A 
ATOM     15  N   UNL     1       2.288   2.380  20.825  0.00  0.00    +0.000 NA
ATOM     16  C   UNL     1       1.140   3.040  21.165  0.00  0.00    +0.000 A 
ATOM     17  C   UNL     1       1.234   4.366  20.824  0.00  0.00    +0.000 A 
ATOM     18  N   UNL     1       2.470   4.508  20.258  0.00  0.00    +0.000 N 
ATOM     19  C   UNL     1       2.984   5.751  19.732  0.00  0.00    +0.000 C 
ENDBRANCH  13  14
ENDBRANCH   3  13
TORSDOF 4
ENDMDL
MODEL 5
REMARK VINA RESULT:      -6.4      1.517      1.868
REMARK  Name = 
REMARK  8 active torsions:
REMARK  status: ('A' for Active; 'I' for Inactive)
REMARK    1  A    between atoms: C_1  and  C_2
REMARK    2  A    between atoms: C_2  and  C_3
REMARK    3  A    between atoms: C_5  and  C_6
REMARK    4  A    between atoms: C_7  and  C_8
REMARK    5  A    between atoms: N_10  and  C_11
REMARK    6  A    between atoms: N_10  and  C_12
REMARK    7  A    between atoms: C_12  and  C_13
REMARK    8  A    between atoms: N_17  and  C_18
REMARK                            x       y       z     vdW  Elec       q    Type
REMARK                         _______ _______ _______ _____ _____    ______ ____
ROOT
ATOM      1  C   UNL     1       3.596   4.272  17.113  0.00  0.00    +0.000 C 
ATOM      2  O   UNL     1       2.972   3.228  16.894  0.00  0.00    +0.000 OA
ATOM      3  N   UNL     1       2.976   5.316  17.827  0.00  0.00    +0.000 N 
ATOM      4  C   UNL     1       3.470   6.690  17.875  0.00  0.00    +0.000 C 
ENDROOT
BRANCH   1   9
ATOM      5  C   UNL     1       6.568   4.566  15.100  0.00  0.00    +0.000 A 
ATOM      6  C   UNL     1       7.195   4.749  16.307  0.00  0.00    +0.000 A 
ATOM      7  C   UNL     1       6.183   4.666  17.311  0.00  0.00    +0.000 A 
ATOM      8  C   UNL     1       6.432   4.778  18.770  0.00  0.00    +0.000 C 
ATOM      9  C   UNL     1       4.980   4.430  16.641  0.00  0.00    +0.000 A 
ATOM     10  O   UNL     1       5.235   4.423  15.295  0.00  0.00    +0.000 OA
BRANCH   5  12
ATOM     11  C   UNL     1       6.116   3.637  12.835  0.00  0.00    +0.000 C 
ATOM     12  C   UNL     1       7.049   4.463  13.702  0.00  0.00    +0.000 C 
ENDBRANCH   5  12
ENDBRANCH   1   9
BRANCH   3  13
ATOM     13  C   UNL     1       1.671   5.081  18.449  0.00  0.00    +0.000 C 
BRANCH  13  14
ATOM     14  C   UNL     1       1.783   4.292  19.724  0.00  0.00    +0.000 A 
ATOM     15  N   UNL     1       2.382   4.718  20.827  0.00  0.00    +0.000 NA
ATOM     16  C   UNL     1       2.293   3.698  21.734  0.00  0.00    +0.000 A 
ATOM     17  C   UNL     1       1.634   2.628  21.184  0.00  0.00    +0.000 A 
ATOM     18  N   UNL     1       1.322   3.010  19.909  0.00  0.00    +0.000 N 
ATOM     19  C   UNL     1       0.634   2.172  18.956  0.00  0.00    +0.000 C 
ENDBRANCH  13  14
ENDBRANCH   3  13
TORSDOF 4
ENDMDL
MODEL 6
REMARK VINA RESULT:      -6.3      0.703      1.426
REMARK  Name = 
REMARK  8 active torsions:
REMARK  status: ('A' for Active; 'I' for Inactive)
REMARK    1  A    between atoms: C_1  and  C_2
REMARK    2  A    between atoms: C_2  and  C_3
REMARK    3  A    between atoms: C_5  and  C_6
REMARK    4  A    between atoms: C_7  and  C_8
REMARK    5  A    between atoms: N_10  and  C_11
REMARK    6  A    between atoms: N_10  and  C_12
REMARK    7  A    between atoms: C_12  and  C_13
REMARK    8  A    between atoms: N_17  and  C_18
REMARK                            x       y       z     vdW  Elec       q    Type
REMARK                         _______ _______ _______ _____ _____    ______ ____
ROOT
ATOM      1  C   UNL     1       4.347   5.847  17.445  0.00  0.00    +0.000 C 
ATOM      2  O   UNL     1       3.590   6.808  17.271  0.00  0.00    +0.000 OA
ATOM      3  N   UNL     1       4.210   5.054  18.600  0.00  0.00    +0.000 N 
ATOM      4  C   UNL     1       5.217   4.110  19.078  0.00  0.00    +0.000 C 
ENDROOT
BRANCH   1   9
ATOM      5  C   UNL     1       6.160   4.586  14.600  0.00  0.00    +0.000 A 
ATOM      6  C   UNL     1       7.212   5.282  15.142  0.00  0.00    +0.000 A 
ATOM      7  C   UNL     1       6.726   5.893  16.337  0.00  0.00    +0.000 A 
ATOM      8  C   UNL     1       7.548   6.719  17.256  0.00  0.00    +0.000 C 
ATOM      9  C   UNL     1       5.384   5.522  16.453  0.00  0.00    +0.000 A 
ATOM     10  O   UNL     1       5.053   4.769  15.358  0.00  0.00    +0.000 OA
BRANCH   5  12
ATOM     11  C   UNL     1       6.958   4.076  12.297  0.00  0.00    +0.000 C 
ATOM     12  C   UNL     1       6.021   3.690  13.427  0.00  0.00    +0.000 C 
ENDBRANCH   5  12
ENDBRANCH   1   9
BRANCH   3  13
ATOM     13  C   UNL     1       3.064   5.271  19.486  0.00  0.00    +0.000 C 
BRANCH  13  14
ATOM     14  C   UNL     1       2.075   4.141  19.423  0.00  0.00    +0.000 A 
ATOM     15  N   UNL     1       1.396   3.789  18.340  0.00  0.00    +0.000 NA
ATOM     16  C   UNL     1       0.589   2.749  18.710  0.00  0.00    +0.000 A 
ATOM     17  C   UNL     1       0.769   2.455  20.038  0.00  0.00    +0.000 A 
ATOM     18  N   UNL     1       1.706   3.346  20.482  0.00  0.00    +0.000 N 
ATOM     19  C   UNL     1       2.185   3.409  21.843  0.00  0.00    +0.000 C 
ENDBRANCH  13  14
ENDBRANCH   3  13
TORSDOF 4
ENDMDL
MODEL 7
REMARK VINA RESULT:      -6.3      1.350      1.799
REMARK  Name = 
REMARK  8 active torsions:
REMARK  status: ('A' for Active; 'I' for Inactive)
REMARK    1  A    between atoms: C_1  and  C_2
REMARK    2  A    between atoms: C_2  and  C_3
REMARK    3  A    between atoms: C_5  and  C_6
REMARK    4  A    between atoms: C_7  and  C_8
REMARK    5  A    between atoms: N_10  and  C_11
REMARK    6  A    between atoms: N_10  and  C_12
REMARK    7  A    between atoms: C_12  and  C_13
REMARK    8  A    between atoms: N_17  and  C_18
REMARK                            x       y       z     vdW  Elec       q    Type
REMARK                         _______ _______ _______ _____ _____    ______ ____
ROOT
ATOM      1  C   UNL     1       4.065   5.000  17.107  0.00  0.00    +0.000 C 
ATOM      2  O   UNL     1       3.631   6.111  17.430  0.00  0.00    +0.000 OA
ATOM      3  N   UNL     1       3.330   3.845  17.437  0.00  0.00    +0.000 N 
ATOM      4  C   UNL     1       3.867   2.487  17.402  0.00  0.00    +0.000 C 
ENDROOT
BRANCH   1   9
ATOM      5  C   UNL     1       6.589   4.642  14.564  0.00  0.00    +0.000 A 
ATOM      6  C   UNL     1       7.462   4.761  15.616  0.00  0.00    +0.000 A 
ATOM      7  C   UNL     1       6.668   4.915  16.792  0.00  0.00    +0.000 A 
ATOM      8  C   UNL     1       7.214   5.047  18.166  0.00  0.00    +0.000 C 
ATOM      9  C   UNL     1       5.335   4.875  16.377  0.00  0.00    +0.000 A 
ATOM     10  O   UNL     1       5.317   4.758  15.012  0.00  0.00    +0.000 OA
BRANCH   5  12
ATOM     11  C   UNL     1       5.779   3.352  12.594  0.00  0.00    +0.000 C 
ATOM     12  C   UNL     1       6.762   4.386  13.114  0.00  0.00    +0.000 C 
ENDBRANCH   5  12
ENDBRANCH   1   9
BRANCH   3  13
ATOM     13  C   UNL     1       1.984   3.988  17.997  0.00  0.00    +0.000 C 
BRANCH  13  14
ATOM     14  C   UNL     1       1.928   3.591  19.447  0.00  0.00    +0.000 A 
ATOM     15  N   UNL     1       1.748   2.354  19.886  0.00  0.00    +0.000 NA
ATOM     16  C   UNL     1       1.725   2.428  21.252  0.00  0.00    +0.000 A 
ATOM     17  C   UNL     1       1.891   3.727  21.661  0.00  0.00    +0.000 A 
ATOM     18  N   UNL     1       2.010   4.457  20.512  0.00  0.00    +0.000 N 
ATOM     19  C   UNL     1       2.181   5.890  20.475  0.00  0.00    +0.000 C 
ENDBRANCH  13  14
ENDBRANCH   3  13
TORSDOF 4
ENDMDL
MODEL 8
REMARK VINA RESULT:      -6.2      1.531      3.146
REMARK  Name = 
REMARK  8 active torsions:
REMARK  status: ('A' for Active; 'I' for Inactive)
REMARK    1  A    between atoms: C_1  and  C_2
REMARK    2  A    between atoms: C_2  and  C_3
REMARK    3  A    between atoms: C_5  and  C_6
REMARK    4  A    between atoms: C_7  and  C_8
REMARK    5  A    between atoms: N_10  and  C_11
REMARK    6  A    between atoms: N_10  and  C_12
REMARK    7  A    between atoms: C_12  and  C_13
REMARK    8  A    between atoms: N_17  and  C_18
REMARK                            x       y       z     vdW  Elec       q    Type
REMARK                         _______ _______ _______ _____ _____    ______ ____
ROOT
ATOM      1  C   UNL     1       3.919   4.317  17.114  0.00  0.00    +0.000 C 
ATOM      2  O   UNL     1       3.640   3.152  16.811  0.00  0.00    +0.000 OA
ATOM      3  N   UNL     1       2.943   5.130  17.721  0.00  0.00    +0.000 N 
ATOM      4  C   UNL     1       3.033   6.584  17.835  0.00  0.00    +0.000 C 
ENDROOT
BRANCH   1   9
ATOM      5  C   UNL     1       7.107   5.975  17.365  0.00  0.00    +0.000 A 
ATOM      6  C   UNL     1       7.306   5.472  16.104  0.00  0.00    +0.000 A 
ATOM      7  C   UNL     1       6.125   4.748  15.760  0.00  0.00    +0.000 A 
ATOM      8  C   UNL     1       5.904   4.063  14.462  0.00  0.00    +0.000 C 
ATOM      9  C   UNL     1       5.262   4.858  16.852  0.00  0.00    +0.000 A 
ATOM     10  O   UNL     1       5.903   5.568  17.833  0.00  0.00    +0.000 OA
BRANCH   5  12
ATOM     11  C   UNL     1       7.947   8.290  17.735  0.00  0.00    +0.000 C 
ATOM     12  C   UNL     1       7.897   6.863  18.250  0.00  0.00    +0.000 C 
ENDBRANCH   5  12
ENDBRANCH   1   9
BRANCH   3  13
ATOM     13  C   UNL     1       1.675   4.531  18.144  0.00  0.00    +0.000 C 
BRANCH  13  14
ATOM     14  C   UNL     1       1.787   3.844  19.477  0.00  0.00    +0.000 A 
ATOM     15  N   UNL     1       1.929   2.538  19.645  0.00  0.00    +0.000 NA
ATOM     16  C   UNL     1       1.958   2.322  20.995  0.00  0.00    +0.000 A 
ATOM     17  C   UNL     1       1.830   3.509  21.670  0.00  0.00    +0.000 A 
ATOM     18  N   UNL     1       1.715   4.467  20.701  0.00  0.00    +0.000 N 
ATOM     19  C   UNL     1       1.538   5.875  20.968  0.00  0.00    +0.000 C 
ENDBRANCH  13  14
ENDBRANCH   3  13
TORSDOF 4
ENDMDL
MODEL 9
REMARK VINA RESULT:      -6.2      1.700      3.338
REMARK  Name = 
REMARK  8 active torsions:
REMARK  status: ('A' for Active; 'I' for Inactive)
REMARK    1  A    between atoms: C_1  and  C_2
REMARK    2  A    between atoms: C_2  and  C_3
REMARK    3  A    between atoms: C_5  and  C_6
REMARK    4  A    between atoms: C_7  and  C_8
REMARK    5  A    between atoms: N_10  and  C_11
REMARK    6  A    between atoms: N_10  and  C_12
REMARK    7  A    between atoms: C_12  and  C_13
REMARK    8  A    between atoms: N_17  and  C_18
REMARK                            x       y       z     vdW  Elec       q    Type
REMARK                         _______ _______ _______ _____ _____    ______ ____
ROOT
ATOM      1  C   UNL     1       4.385   3.451  17.015  0.00  0.00    +0.000 C 
ATOM      2  O   UNL     1       4.479   2.260  16.698  0.00  0.00    +0.000 OA
ATOM      3  N   UNL     1       3.214   3.912  17.644  0.00  0.00    +0.000 N 
ATOM      4  C   UNL     1       2.848   5.320  17.777  0.00  0.00    +0.000 C 
ENDROOT
BRANCH   1   9
ATOM      5  C   UNL     1       7.057   5.848  17.307  0.00  0.00    +0.000 A 
ATOM      6  C   UNL     1       7.162   5.683  15.949  0.00  0.00    +0.000 A 
ATOM      7  C   UNL     1       6.158   4.741  15.572  0.00  0.00    +0.000 A 
ATOM      8  C   UNL     1       5.899   4.295  14.180  0.00  0.00    +0.000 C 
ATOM      9  C   UNL     1       5.489   4.386  16.746  0.00  0.00    +0.000 A 
ATOM     10  O   UNL     1       6.088   5.036  17.792  0.00  0.00    +0.000 OA
BRANCH   5  12
ATOM     11  C   UNL     1       7.939   8.133  17.755  0.00  0.00    +0.000 C 
ATOM     12  C   UNL     1       7.739   6.726  18.287  0.00  0.00    +0.000 C 
ENDBRANCH   5  12
ENDBRANCH   1   9
BRANCH   3  13
ATOM     13  C   UNL     1       2.202   2.944  18.072  0.00  0.00    +0.000 C 
BRANCH  13  14
ATOM     14  C   UNL     1       2.054   2.901  19.568  0.00  0.00    +0.000 A 
ATOM     15  N   UNL     1       0.962   3.256  20.231  0.00  0.00    +0.000 NA
ATOM     16  C   UNL     1       1.249   3.101  21.559  0.00  0.00    +0.000 A 
ATOM     17  C   UNL     1       2.533   2.647  21.720  0.00  0.00    +0.000 A 
ATOM     18  N   UNL     1       3.038   2.531  20.454  0.00  0.00    +0.000 N 
ATOM     19  C   UNL     1       4.382   2.099  20.153  0.00  0.00    +0.000 C 
ENDBRANCH  13  14
ENDBRANCH   3  13
TORSDOF 4
ENDMDL
