MODEL 1
REMARK VINA RESULT:      -6.4      0.000      0.000
REMARK  Name = 
REMARK  7 active torsions:
REMARK  status: ('A' for Active; 'I' for Inactive)
REMARK    1  A    between atoms: C_1  and  O_2
REMARK    2  A    between atoms: O_2  and  C_3
REMARK    3  A    between atoms: C_3  and  C_4
REMARK    4  A    between atoms: C_4  and  C_5
REMARK    5  A    between atoms: C_4  and  N_6
REMARK    6  A    between atoms: C_7  and  C_9
REMARK    7  A    between atoms: C_11  and  C_12
REMARK                            x       y       z     vdW  Elec       q    Type
REMARK                         _______ _______ _______ _____ _____    ______ ____
ROOT
ATOM      1  C   UNL     1       3.342   5.423  18.915  0.00  0.00    +0.000 A 
ATOM      2  N   UNL     1       3.258   4.228  19.575  0.00  0.00    +0.000 NA
ATOM      3  C   UNL     1       2.254   4.066  20.491  0.00  0.00    +0.000 A 
ATOM      4  C   UNL     1       1.373   5.106  20.793  0.00  0.00    +0.000 A 
ATOM      5  C   UNL     1       1.504   6.331  20.140  0.00  0.00    +0.000 A 
ATOM      6  C   UNL     1       2.496   6.501  19.172  0.00  0.00    +0.000 A 
ATOM      7 BR   UNL     1       2.563   8.183  18.292  0.00  0.00    +0.000 Br
ENDROOT
BRANCH   1   9
ATOM      8  N   UNL     1       5.599   5.990  18.119  0.00  0.00    +0.000 N 
ATOM      9  C   UNL     1       4.361   5.459  17.816  0.00  0.00    +0.000 C 
ATOM     10  O   UNL     1       4.094   5.007  16.701  0.00  0.00    +0.000 OA
ATOM     11  H   UNL     1       5.764   6.325  19.065  0.00  0.00    +0.000 HD
BRANCH   8  12
ATOM     12  C   UNL     1       6.678   6.085  17.132  0.00  0.00    +0.000 C 
ATOM     13  C   UNL     1       7.620   7.231  17.502  0.00  0.00    +0.000 C 
BRANCH  12  14
ATOM     14  C   UNL     1       7.490   4.776  17.009  0.00  0.00    +0.000 C 
BRANCH  14  16
ATOM     15  C   UNL     1       6.977   4.805  14.699  0.00  0.00    +0.000 C 
ATOM     16  O   UNL     1       7.041   4.022  15.883  0.00  0.00    +0.000 OA
ENDBRANCH  14  16
ENDBRANCH  12  14
ENDBRANCH   8  12
ENDBRANCH   1   9
BRANCH   3  17
ATOM     17  C   UNL     1       2.089   2.711  21.173  0.00  0.00    +0.000 C 
ATOM     18  F   UNL     1       1.117   2.695  22.128  0.00  0.00    +0.000 F 
ATOM     19  F   UNL     1       1.763   1.718  20.295  0.00  0.00    +0.000 F 
ATOM     20  F   UNL     1       3.228   2.288  21.794  0.00  0.00    +0.000 F 
ENDBRANCH   3  17
TORSDOF 5
ENDMDL
MODEL 2
REMARK VINA RESULT:      -6.3      2.827      3.835
REMARK  Name = 
REMARK  7 active torsions:
REMARK  status: ('A' for Active; 'I' for Inactive)
REMARK    1  A    between atoms: C_1  and  O_2
REMARK    2  A    between atoms: O_2  and  C_3
REMARK    3  A    between atoms: C_3  and  C_4
REMARK    4  A    between atoms: C_4  and  C_5
REMARK    5  A    between atoms: C_4  and  N_6
REMARK    6  A    between atoms: C_7  and  C_9
REMARK    7  A    between atoms: C_11  and  C_12
REMARK                            x       y       z     vdW  Elec       q    Type
REMARK                         _______ _______ _______ _____ _____    ______ ____
ROOT
ATOM      1  C   UNL     1       5.254   4.786  16.777  0.00  0.00    +0.000 A 
ATOM      2  N   UNL     1       4.172   3.953  16.845  0.00  0.00    +0.000 NA
ATOM      3  C   UNL     1       3.704   3.602  18.083  0.00  0.00    +0.000 A 
ATOM      4  C   UNL     1       4.342   4.032  19.248  0.00  0.00    +0.000 A 
ATOM      5  C   UNL     1       5.470   4.846  19.154  0.00  0.00    +0.000 A 
ATOM      6  C   UNL     1       5.938   5.248  17.902  0.00  0.00    +0.000 A 
ATOM      7 BR   UNL     1       7.444   6.405  17.872  0.00  0.00    +0.000 Br
ENDROOT
BRANCH   1   9
ATOM      8  N   UNL     1       6.206   4.339  14.554  0.00  0.00    +0.000 N 
ATOM      9  C   UNL     1       5.598   5.251  15.394  0.00  0.00    +0.000 C 
ATOM     10  O   UNL     1       5.320   6.396  15.031  0.00  0.00    +0.000 OA
ATOM     11  H   UNL     1       6.388   3.402  14.906  0.00  0.00    +0.000 HD
BRANCH   8  12
ATOM     12  C   UNL     1       6.596   4.671  13.181  0.00  0.00    +0.000 C 
ATOM     13  C   UNL     1       7.986   5.306  13.175  0.00  0.00    +0.000 C 
BRANCH  12  14
ATOM     14  C   UNL     1       6.593   3.440  12.247  0.00  0.00    +0.000 C 
BRANCH  14  16
ATOM     15  C   UNL     1       4.385   3.251  11.416  0.00  0.00    +0.000 C 
ATOM     16  O   UNL     1       5.344   2.754  12.339  0.00  0.00    +0.000 OA
ENDBRANCH  14  16
ENDBRANCH  12  14
ENDBRANCH   8  12
ENDBRANCH   1   9
BRANCH   3  17
ATOM     17  C   UNL     1       2.446   2.744  18.181  0.00  0.00    +0.000 C 
ATOM     18  F   UNL     1       2.334   2.072  19.360  0.00  0.00    +0.000 F 
ATOM     19  F   UNL     1       1.301   3.478  18.061  0.00  0.00    +0.000 F 
ATOM     20  F   UNL     1       2.374   1.796  17.202  0.00  0.00    +0.000 F 
ENDBRANCH   3  17
TORSDOF 5
ENDMDL
MODEL 3
REMARK VINA RESULT:      -6.2      4.455      6.941
REMARK  Name = 
REMARK  7 active torsions:
REMARK  status: ('A' for Active; 'I' for Inactive)
REMARK    1  A    between atoms: C_1  and  O_2
REMARK    2  A    between atoms: O_2  and  C_3
REMARK    3  A    between atoms: C_3  and  C_4
REMARK    4  A    between atoms: C_4  and  C_5
REMARK    5  A    between atoms: C_4  and  N_6
REMARK    6  A    between atoms: C_7  and  C_9
REMARK    7  A    between atoms: C_11  and  C_12
REMARK                            x       y       z     vdW  Elec       q    Type
REMARK                         _______ _______ _______ _____ _____    ______ ____
ROOT
ATOM      1  C   UNL     1       5.448   4.288  16.067  0.00  0.00    +0.000 A 
ATOM      2  N   UNL     1       5.140   3.877  14.799  0.00  0.00    +0.000 NA
ATOM      3  C   UNL     1       6.078   4.053  13.818  0.00  0.00    +0.000 A 
ATOM      4  C   UNL     1       7.294   4.685  14.082  0.00  0.00    +0.000 A 
ATOM      5  C   UNL     1       7.570   5.135  15.372  0.00  0.00    +0.000 A 
ATOM      6  C   UNL     1       6.643   4.928  16.395  0.00  0.00    +0.000 A 
ATOM      7 BR   UNL     1       7.129   5.520  18.134  0.00  0.00    +0.000 Br
ENDROOT
BRANCH   1   9
ATOM      8  N   UNL     1       3.633   4.917  17.602  0.00  0.00    +0.000 N 
ATOM      9  C   UNL     1       4.438   3.910  17.108  0.00  0.00    +0.000 C 
ATOM     10  O   UNL     1       4.330   2.739  17.479  0.00  0.00    +0.000 OA
ATOM     11  H   UNL     1       3.757   5.859  17.238  0.00  0.00    +0.000 HD
BRANCH   8  12
ATOM     12  C   UNL     1       2.612   4.678  18.625  0.00  0.00    +0.000 C 
ATOM     13  C   UNL     1       2.415   5.939  19.467  0.00  0.00    +0.000 C 
BRANCH  12  14
ATOM     14  C   UNL     1       1.255   4.249  18.023  0.00  0.00    +0.000 C 
BRANCH  14  16
ATOM     15  C   UNL     1       1.386   2.327  19.397  0.00  0.00    +0.000 C 
ATOM     16  O   UNL     1       1.108   2.831  18.098  0.00  0.00    +0.000 OA
ENDBRANCH  14  16
ENDBRANCH  12  14
ENDBRANCH   8  12
ENDBRANCH   1   9
BRANCH   3  17
ATOM     17  C   UNL     1       5.788   3.523  12.417  0.00  0.00    +0.000 C 
ATOM     18  F   UNL     1       4.522   3.782  11.986  0.00  0.00    +0.000 F 
ATOM     19  F   UNL     1       6.617   4.056  11.473  0.00  0.00    +0.000 F 
ATOM     20  F   UNL     1       5.946   2.171  12.318  0.00  0.00    +0.000 F 
ENDBRANCH   3  17
TORSDOF 5
ENDMDL
MODEL 4
REMARK VINA RESULT:      -6.2      2.968      3.461
REMARK  Name = 
REMARK  7 active torsions:
REMARK  status: ('A' for Active; 'I' for Inactive)
REMARK    1  A    between atoms: C_1  and  O_2
REMARK    2  A    between atoms: O_2  and  C_3
REMARK    3  A    between atoms: C_3  and  C_4
REMARK    4  A    between atoms: C_4  and  C_5
REMARK    5  A    between atoms: C_4  and  N_6
REMARK    6  A    between atoms: C_7  and  C_9
REMARK    7  A    between atoms: C_11  and  C_12
REMARK                            x       y       z     vdW  Elec       q    Type
REMARK                         _______ _______ _______ _____ _____    ______ ____
ROOT
ATOM      1  C   UNL     1       3.285   5.754  19.000  0.00  0.00    +0.000 A 
ATOM      2  N   UNL     1       2.723   6.933  19.406  0.00  0.00    +0.000 NA
ATOM      3  C   UNL     1       1.791   6.893  20.407  0.00  0.00    +0.000 A 
ATOM      4  C   UNL     1       1.376   5.682  20.964  0.00  0.00    +0.000 A 
ATOM      5  C   UNL     1       1.931   4.488  20.506  0.00  0.00    +0.000 A 
ATOM      6  C   UNL     1       2.913   4.512  19.515  0.00  0.00    +0.000 A 
ATOM      7 BR   UNL     1       3.655   2.842  18.994  0.00  0.00    +0.000 Br
ENDROOT
BRANCH   1   9
ATOM      8  N   UNL     1       5.696   5.806  18.517  0.00  0.00    +0.000 N 
ATOM      9  C   UNL     1       4.411   5.903  18.021  0.00  0.00    +0.000 C 
ATOM     10  O   UNL     1       4.178   6.081  16.824  0.00  0.00    +0.000 OA
ATOM     11  H   UNL     1       5.820   5.635  19.512  0.00  0.00    +0.000 HD
BRANCH   8  12
ATOM     12  C   UNL     1       6.880   5.938  17.665  0.00  0.00    +0.000 C 
ATOM     13  C   UNL     1       7.838   6.969  18.262  0.00  0.00    +0.000 C 
BRANCH  12  14
ATOM     14  C   UNL     1       7.627   4.599  17.471  0.00  0.00    +0.000 C 
BRANCH  14  16
ATOM     15  C   UNL     1       6.930   4.939  15.235  0.00  0.00    +0.000 C 
ATOM     16  O   UNL     1       7.926   4.397  16.090  0.00  0.00    +0.000 OA
ENDBRANCH  14  16
ENDBRANCH  12  14
ENDBRANCH   8  12
ENDBRANCH   1   9
BRANCH   3  17
ATOM     17  C   UNL     1       1.216   8.205  20.933  0.00  0.00    +0.000 C 
ATOM     18  F   UNL     1       1.913   8.725  21.981  0.00  0.00    +0.000 F 
ATOM     19  F   UNL     1       1.190   9.185  19.982  0.00  0.00    +0.000 F 
ATOM     20  F   UNL     1      -0.072   8.084  21.366  0.00  0.00    +0.000 F 
ENDBRANCH   3  17
TORSDOF 5
ENDMDL
MODEL 5
REMARK VINA RESULT:      -6.1      4.411      6.868
REMARK  Name = 
REMARK  7 active torsions:
REMARK  status: ('A' for Active; 'I' for Inactive)
REMARK    1  A    between atoms: C_1  and  O_2
REMARK    2  A    between atoms: O_2  and  C_3
REMARK    3  A    between atoms: C_3  and  C_4
REMARK    4  A    between atoms: C_4  and  C_5
REMARK    5  A    between atoms: C_4  and  N_6
REMARK    6  A    between atoms: C_7  and  C_9
REMARK    7  A    between atoms: C_11  and  C_12
REMARK                            x       y       z     vdW  Elec       q    Type
REMARK                         _______ _______ _______ _____ _____    ______ ____
ROOT
ATOM      1  C   UNL     1       5.227   4.488  16.499  0.00  0.00    +0.000 A 
ATOM      2  N   UNL     1       4.992   4.085  15.213  0.00  0.00    +0.000 NA
ATOM      3  C   UNL     1       6.018   4.176  14.311  0.00  0.00    +0.000 A 
ATOM      4  C   UNL     1       7.253   4.718  14.669  0.00  0.00    +0.000 A 
ATOM      5  C   UNL     1       7.457   5.163  15.974  0.00  0.00    +0.000 A 
ATOM      6  C   UNL     1       6.437   5.040  16.919  0.00  0.00    +0.000 A 
ATOM      7 BR   UNL     1       6.824   5.618  18.687  0.00  0.00    +0.000 Br
ENDROOT
BRANCH   1   9
ATOM      8  N   UNL     1       4.294   3.165  18.350  0.00  0.00    +0.000 N 
ATOM      9  C   UNL     1       4.110   4.202  17.456  0.00  0.00    +0.000 C 
ATOM     10  O   UNL     1       3.087   4.889  17.447  0.00  0.00    +0.000 OA
ATOM     11  H   UNL     1       5.171   2.650  18.321  0.00  0.00    +0.000 HD
BRANCH   8  12
ATOM     12  C   UNL     1       3.277   2.783  19.333  0.00  0.00    +0.000 C 
ATOM     13  C   UNL     1       2.380   1.689  18.753  0.00  0.00    +0.000 C 
BRANCH  12  14
ATOM     14  C   UNL     1       3.889   2.290  20.663  0.00  0.00    +0.000 C 
BRANCH  14  16
ATOM     15  C   UNL     1       2.224   3.699  21.579  0.00  0.00    +0.000 C 
ATOM     16  O   UNL     1       2.973   2.503  21.737  0.00  0.00    +0.000 OA
ENDBRANCH  14  16
ENDBRANCH  12  14
ENDBRANCH   8  12
ENDBRANCH   1   9
BRANCH   3  17
ATOM     17  C   UNL     1       5.803   3.650  12.894  0.00  0.00    +0.000 C 
ATOM     18  F   UNL     1       6.032   2.314  12.767  0.00  0.00    +0.000 F 
ATOM     19  F   UNL     1       4.529   3.852  12.448  0.00  0.00    +0.000 F 
ATOM     20  F   UNL     1       6.610   4.256  11.976  0.00  0.00    +0.000 F 
ENDBRANCH   3  17
TORSDOF 5
ENDMDL
MODEL 6
REMARK VINA RESULT:      -6.0      2.855      3.721
REMARK  Name = 
REMARK  7 active torsions:
REMARK  status: ('A' for Active; 'I' for Inactive)
REMARK    1  A    between atoms: C_1  and  O_2
REMARK    2  A    between atoms: O_2  and  C_3
REMARK    3  A    between atoms: C_3  and  C_4
REMARK    4  A    between atoms: C_4  and  C_5
REMARK    5  A    between atoms: C_4  and  N_6
REMARK    6  A    between atoms: C_7  and  C_9
REMARK    7  A    between atoms: C_11  and  C_12
REMARK                            x       y       z     vdW  Elec       q    Type
REMARK                         _______ _______ _______ _____ _____    ______ ____
ROOT
ATOM      1  C   UNL     1       4.900   4.956  17.017  0.00  0.00    +0.000 A 
ATOM      2  N   UNL     1       3.618   4.481  17.083  0.00  0.00    +0.000 NA
ATOM      3  C   UNL     1       3.075   4.259  18.319  0.00  0.00    +0.000 A 
ATOM      4  C   UNL     1       3.820   4.452  19.484  0.00  0.00    +0.000 A 
ATOM      5  C   UNL     1       5.139   4.894  19.392  0.00  0.00    +0.000 A 
ATOM      6  C   UNL     1       5.697   5.167  18.142  0.00  0.00    +0.000 A 
ATOM      7 BR   UNL     1       7.480   5.822  18.116  0.00  0.00    +0.000 Br
ENDROOT
BRANCH   1   9
ATOM      8  N   UNL     1       5.726   4.297  14.797  0.00  0.00    +0.000 N 
ATOM      9  C   UNL     1       5.358   5.327  15.639  0.00  0.00    +0.000 C 
ATOM     10  O   UNL     1       5.376   6.507  15.283  0.00  0.00    +0.000 OA
ATOM     11  H   UNL     1       5.667   3.342  15.143  0.00  0.00    +0.000 HD
BRANCH   8  12
ATOM     12  C   UNL     1       6.195   4.529  13.428  0.00  0.00    +0.000 C 
ATOM     13  C   UNL     1       7.690   4.852  13.439  0.00  0.00    +0.000 C 
BRANCH  12  14
ATOM     14  C   UNL     1       5.941   3.322  12.498  0.00  0.00    +0.000 C 
BRANCH  14  16
ATOM     15  C   UNL     1       7.089   1.759  11.142  0.00  0.00    +0.000 C 
ATOM     16  O   UNL     1       7.093   3.068  11.694  0.00  0.00    +0.000 OA
ENDBRANCH  14  16
ENDBRANCH  12  14
ENDBRANCH   8  12
ENDBRANCH   1   9
BRANCH   3  17
ATOM     17  C   UNL     1       1.619   3.813  18.416  0.00  0.00    +0.000 C 
ATOM     18  F   UNL     1       1.009   4.188  19.575  0.00  0.00    +0.000 F 
ATOM     19  F   UNL     1       0.848   4.319  17.410  0.00  0.00    +0.000 F 
ATOM     20  F   UNL     1       1.473   2.459  18.340  0.00  0.00    +0.000 F 
ENDBRANCH   3  17
TORSDOF 5
ENDMDL
MODEL 7
REMARK VINA RESULT:      -6.0      1.310      1.909
REMARK  Name = 
REMARK  7 active torsions:
REMARK  status: ('A' for Active; 'I' for Inactive)
REMARK    1  A    between atoms: C_1  and  O_2
REMARK    2  A    between atoms: O_2  and  C_3
REMARK    3  A    between atoms: C_3  and  C_4
REMARK    4  A    between atoms: C_4  and  C_5
REMARK    5  A    between atoms: C_4  and  N_6
REMARK    6  A    between atoms: C_7  and  C_9
REMARK    7  A    between atoms: C_11  and  C_12
REMARK                            x       y       z     vdW  Elec       q    Type
REMARK                         _______ _______ _______ _____ _____    ______ ____
ROOT
ATOM      1  C   UNL     1       3.922   4.899  19.146  0.00  0.00    +0.000 A 
ATOM      2  N   UNL     1       3.588   3.818  19.915  0.00  0.00    +0.000 NA
ATOM      3  C   UNL     1       2.360   3.810  20.518  0.00  0.00    +0.000 A 
ATOM      4  C   UNL     1       1.489   4.896  20.406  0.00  0.00    +0.000 A 
ATOM      5  C   UNL     1       1.867   6.006  19.653  0.00  0.00    +0.000 A 
ATOM      6  C   UNL     1       3.099   6.015  18.996  0.00  0.00    +0.000 A 
ATOM      7 BR   UNL     1       3.505   7.544  17.944  0.00  0.00    +0.000 Br
ENDROOT
BRANCH   1   9
ATOM      8  N   UNL     1       5.132   4.726  17.013  0.00  0.00    +0.000 N 
ATOM      9  C   UNL     1       5.209   4.755  18.391  0.00  0.00    +0.000 C 
ATOM     10  O   UNL     1       6.282   4.690  18.993  0.00  0.00    +0.000 OA
ATOM     11  H   UNL     1       4.217   4.807  16.576  0.00  0.00    +0.000 HD
BRANCH   8  12
ATOM     12  C   UNL     1       6.316   4.584  16.162  0.00  0.00    +0.000 C 
ATOM     13  C   UNL     1       5.975   3.740  14.933  0.00  0.00    +0.000 C 
BRANCH  12  14
ATOM     14  C   UNL     1       6.887   5.945  15.704  0.00  0.00    +0.000 C 
BRANCH  14  16
ATOM     15  C   UNL     1       7.338   7.615  17.319  0.00  0.00    +0.000 C 
ATOM     16  O   UNL     1       7.812   6.443  16.671  0.00  0.00    +0.000 OA
ENDBRANCH  14  16
ENDBRANCH  12  14
ENDBRANCH   8  12
ENDBRANCH   1   9
BRANCH   3  17
ATOM     17  C   UNL     1       1.934   2.576  21.309  0.00  0.00    +0.000 C 
ATOM     18  F   UNL     1       0.912   2.810  22.178  0.00  0.00    +0.000 F 
ATOM     19  F   UNL     1       1.510   1.558  20.503  0.00  0.00    +0.000 F 
ATOM     20  F   UNL     1       2.947   2.050  22.057  0.00  0.00    +0.000 F 
ENDBRANCH   3  17
TORSDOF 5
ENDMDL
MODEL 8
REMARK VINA RESULT:      -6.0      4.094      5.511
REMARK  Name = 
REMARK  7 active torsions:
REMARK  status: ('A' for Active; 'I' for Inactive)
REMARK    1  A    between atoms: C_1  and  O_2
REMARK    2  A    between atoms: O_2  and  C_3
REMARK    3  A    between atoms: C_3  and  C_4
REMARK    4  A    between atoms: C_4  and  C_5
REMARK    5  A    between atoms: C_4  and  N_6
REMARK    6  A    between atoms: C_7  and  C_9
REMARK    7  A    between atoms: C_11  and  C_12
REMARK                            x       y       z     vdW  Elec       q    Type
REMARK                         _______ _______ _______ _____ _____    ______ ____
ROOT
ATOM      1  C   UNL     1       2.562   6.890  19.311  0.00  0.00    +0.000 A 
ATOM      2  N   UNL     1       1.700   7.506  20.176  0.00  0.00    +0.000 NA
ATOM      3  C   UNL     1       1.227   8.746  19.841  0.00  0.00    +0.000 A 
ATOM      4  C   UNL     1       1.652   9.396  18.681  0.00  0.00    +0.000 A 
ATOM      5  C   UNL     1       2.565   8.767  17.835  0.00  0.00    +0.000 A 
ATOM      6  C   UNL     1       3.027   7.485  18.139  0.00  0.00    +0.000 A 
ATOM      7 BR   UNL     1       4.223   6.683  16.900  0.00  0.00    +0.000 Br
ENDROOT
BRANCH   1   9
ATOM      8  N   UNL     1       1.861   4.566  19.702  0.00  0.00    +0.000 N 
ATOM      9  C   UNL     1       2.900   5.474  19.670  0.00  0.00    +0.000 C 
ATOM     10  O   UNL     1       4.066   5.149  19.901  0.00  0.00    +0.000 OA
ATOM     11  H   UNL     1       0.924   4.892  19.479  0.00  0.00    +0.000 HD
BRANCH   8  12
ATOM     12  C   UNL     1       2.060   3.154  20.043  0.00  0.00    +0.000 C 
ATOM     13  C   UNL     1       1.492   2.871  21.434  0.00  0.00    +0.000 C 
BRANCH  12  14
ATOM     14  C   UNL     1       1.407   2.197  19.021  0.00  0.00    +0.000 C 
BRANCH  14  16
ATOM     15  C   UNL     1       3.586   1.638  18.286  0.00  0.00    +0.000 C 
ATOM     16  O   UNL     1       2.271   2.010  17.899  0.00  0.00    +0.000 OA
ENDBRANCH  14  16
ENDBRANCH  12  14
ENDBRANCH   8  12
ENDBRANCH   1   9
BRANCH   3  17
ATOM     17  C   UNL     1       0.197   9.413  20.748  0.00  0.00    +0.000 C 
ATOM     18  F   UNL     1      -0.839   9.983  20.073  0.00  0.00    +0.000 F 
ATOM     19  F   UNL     1      -0.371   8.538  21.629  0.00  0.00    +0.000 F 
ATOM     20  F   UNL     1       0.732  10.406  21.517  0.00  0.00    +0.000 F 
ENDBRANCH   3  17
TORSDOF 5
ENDMDL
MODEL 9
REMARK VINA RESULT:      -6.0      1.458      1.930
REMARK  Name = 
REMARK  7 active torsions:
REMARK  status: ('A' for Active; 'I' for Inactive)
REMARK    1  A    between atoms: C_1  and  O_2
REMARK    2  A    between atoms: O_2  and  C_3
REMARK    3  A    between atoms: C_3  and  C_4
REMARK    4  A    between atoms: C_4  and  C_5
REMARK    5  A    between atoms: C_4  and  N_6
REMARK    6  A    between atoms: C_7  and  C_9
REMARK    7  A    between atoms: C_11  and  C_12
REMARK                            x       y       z     vdW  Elec       q    Type
REMARK                         _______ _______ _______ _____ _____    ______ ____
ROOT
ATOM      1  C   UNL     1       3.667   5.803  18.575  0.00  0.00    +0.000 A 
ATOM      2  N   UNL     1       3.780   4.590  19.196  0.00  0.00    +0.000 NA
ATOM      3  C   UNL     1       2.842   4.255  20.134  0.00  0.00    +0.000 A 
ATOM      4  C   UNL     1       1.828   5.144  20.496  0.00  0.00    +0.000 A 
ATOM      5  C   UNL     1       1.757   6.393  19.881  0.00  0.00    +0.000 A 
ATOM      6  C   UNL     1       2.680   6.736  18.891  0.00  0.00    +0.000 A 
ATOM      7 BR   UNL     1       2.471   8.434  18.066  0.00  0.00    +0.000 Br
ENDROOT
BRANCH   1   9
ATOM      8  N   UNL     1       4.823   4.973  16.569  0.00  0.00    +0.000 N 
ATOM      9  C   UNL     1       4.633   6.020  17.449  0.00  0.00    +0.000 C 
ATOM     10  O   UNL     1       5.206   7.103  17.317  0.00  0.00    +0.000 OA
ATOM     11  H   UNL     1       4.302   4.112  16.720  0.00  0.00    +0.000 HD
BRANCH   8  12
ATOM     12  C   UNL     1       5.742   5.057  15.431  0.00  0.00    +0.000 C 
ATOM     13  C   UNL     1       7.122   4.541  15.839  0.00  0.00    +0.000 C 
BRANCH  12  14
ATOM     14  C   UNL     1       5.243   4.265  14.202  0.00  0.00    +0.000 C 
BRANCH  14  16
ATOM     15  C   UNL     1       5.994   3.272  12.190  0.00  0.00    +0.000 C 
ATOM     16  O   UNL     1       6.349   3.703  13.496  0.00  0.00    +0.000 OA
ENDBRANCH  14  16
ENDBRANCH  12  14
ENDBRANCH   8  12
ENDBRANCH   1   9
BRANCH   3  17
ATOM     17  C   UNL     1       2.900   2.872  20.776  0.00  0.00    +0.000 C 
ATOM     18  F   UNL     1       2.141   1.940  20.135  0.00  0.00    +0.000 F 
ATOM     19  F   UNL     1       4.166   2.361  20.808  0.00  0.00    +0.000 F 
ATOM     20  F   UNL     1       2.475   2.870  22.072  0.00  0.00    +0.000 F 
ENDBRANCH   3  17
TORSDOF 5
ENDMDL
