MODEL 1
REMARK VINA RESULT:      -6.3      0.000      0.000
REMARK  Name = 
REMARK  9 active torsions:
REMARK  status: ('A' for Active; 'I' for Inactive)
REMARK    1  A    between atoms: C_1  and  C_2
REMARK    2  A    between atoms: C_3  and  C_4
REMARK    3  A    between atoms: C_4  and  N_5
REMARK    4  A    between atoms: N_8  and  C_9
REMARK    5  A    between atoms: C_12  and  C_13
REMARK    6  A    between atoms: C_13  and  N_14
REMARK    7  A    between atoms: N_17  and  C_18
REMARK    8  A    between atoms: C_21  and  C_22
REMARK    9  A    between atoms: N_23  and  C_24
REMARK                            x       y       z     vdW  Elec       q    Type
REMARK                         _______ _______ _______ _____ _____    ______ ____
ROOT
ATOM      1  C   UNL     1      -1.490   9.612  17.230  0.00  0.00    +0.000 C 
ATOM      2  C   UNL     1      -1.051  10.608  18.260  0.00  0.00    +0.000 A 
ATOM      3  C   UNL     1      -1.759  11.738  18.651  0.00  0.00    +0.000 A 
ATOM      4  C   UNL     1      -0.986  12.393  19.664  0.00  0.00    +0.000 A 
ATOM      5  C   UNL     1       0.131  11.600  19.905  0.00  0.00    +0.000 A 
ATOM      6  C   UNL     1       1.264  11.935  20.824  0.00  0.00    +0.000 C 
ATOM      7  N   UNL     1       0.093  10.482  19.059  0.00  0.00    +0.000 N 
ENDROOT
BRANCH   7   8
ATOM      8  C   UNL     1       1.038   9.396  19.035  0.00  0.00    +0.000 A 
ATOM      9  C   UNL     1       1.142   8.509  20.117  0.00  0.00    +0.000 A 
ATOM     10  C   UNL     1       2.035   7.428  20.080  0.00  0.00    +0.000 A 
ATOM     11  C   UNL     1       2.809   7.204  18.949  0.00  0.00    +0.000 A 
ATOM     12 CL   UNL     1       3.865   5.848  18.883  0.00  0.00    +0.000 Cl
ATOM     13  C   UNL     1       2.723   8.069  17.865  0.00  0.00    +0.000 A 
ATOM     14  C   UNL     1       1.859   9.171  17.919  0.00  0.00    +0.000 A 
ENDBRANCH   7   8
BRANCH   3  15
ATOM     15  C   UNL     1      -3.078  12.229  18.101  0.00  0.00    +0.000 C 
BRANCH  15  16
ATOM     16  N   UNL     1      -4.214  11.732  18.884  0.00  0.00    +0.000 NA
ATOM     17  C   UNL     1      -5.259  11.189  17.997  0.00  0.00    +0.000 C 
ATOM     18  C   UNL     1      -6.480  10.650  18.780  0.00  0.00    +0.000 C 
ATOM     19  N   UNL     1      -7.063  11.584  19.766  0.00  0.00    +0.000 NA
ATOM     20  C   UNL     1      -7.862  12.624  19.126  0.00  0.00    +0.000 C 
ATOM     21  C   UNL     1      -5.978  12.162  20.583  0.00  0.00    +0.000 C 
ATOM     22  C   UNL     1      -4.800  12.749  19.773  0.00  0.00    +0.000 C 
ENDBRANCH  15  16
ENDBRANCH   3  15
BRANCH   4  23
ATOM     23  C   UNL     1      -1.312  13.720  20.309  0.00  0.00    +0.000 C 
BRANCH  23  24
ATOM     24  N   UNL     1      -1.551  13.552  21.751  0.00  0.00    +0.000 NA
ATOM     25  C   UNL     1      -2.476  12.427  21.995  0.00  0.00    +0.000 C 
ATOM     26  C   UNL     1      -2.803  12.233  23.498  0.00  0.00    +0.000 C 
ATOM     27  N   UNL     1      -3.279  13.440  24.203  0.00  0.00    +0.000 NA
ATOM     28  C   UNL     1      -4.657  13.772  23.854  0.00  0.00    +0.000 C 
ATOM     29  C   UNL     1      -2.362  14.556  23.906  0.00  0.00    +0.000 C 
ATOM     30  C   UNL     1      -2.077  14.767  22.404  0.00  0.00    +0.000 C 
ENDBRANCH  23  24
ENDBRANCH   4  23
TORSDOF 5
ENDMDL
MODEL 2
REMARK VINA RESULT:      -6.2      1.308      1.835
REMARK  Name = 
REMARK  9 active torsions:
REMARK  status: ('A' for Active; 'I' for Inactive)
REMARK    1  A    between atoms: C_1  and  C_2
REMARK    2  A    between atoms: C_3  and  C_4
REMARK    3  A    between atoms: C_4  and  N_5
REMARK    4  A    between atoms: N_8  and  C_9
REMARK    5  A    between atoms: C_12  and  C_13
REMARK    6  A    between atoms: C_13  and  N_14
REMARK    7  A    between atoms: N_17  and  C_18
REMARK    8  A    between atoms: C_21  and  C_22
REMARK    9  A    between atoms: N_23  and  C_24
REMARK                            x       y       z     vdW  Elec       q    Type
REMARK                         _______ _______ _______ _____ _____    ______ ____
ROOT
ATOM      1  C   UNL     1      -2.189   9.864  18.099  0.00  0.00    +0.000 C 
ATOM      2  C   UNL     1      -1.426  10.961  18.779  0.00  0.00    +0.000 A 
ATOM      3  C   UNL     1      -1.937  12.201  19.143  0.00  0.00    +0.000 A 
ATOM      4  C   UNL     1      -0.878  12.927  19.777  0.00  0.00    +0.000 A 
ATOM      5  C   UNL     1       0.222  12.077  19.840  0.00  0.00    +0.000 A 
ATOM      6  C   UNL     1       1.584  12.439  20.343  0.00  0.00    +0.000 C 
ATOM      7  N   UNL     1      -0.111  10.850  19.247  0.00  0.00    +0.000 N 
ENDROOT
BRANCH   7   8
ATOM      8  C   UNL     1       0.734   9.688  19.158  0.00  0.00    +0.000 A 
ATOM      9  C   UNL     1       1.400   9.373  17.963  0.00  0.00    +0.000 A 
ATOM     10  C   UNL     1       2.254   8.263  17.885  0.00  0.00    +0.000 A 
ATOM     11  C   UNL     1       2.477   7.477  19.006  0.00  0.00    +0.000 A 
ATOM     12 CL   UNL     1       3.565   6.147  18.925  0.00  0.00    +0.000 Cl
ATOM     13  C   UNL     1       1.829   7.770  20.201  0.00  0.00    +0.000 A 
ATOM     14  C   UNL     1       0.946   8.855  20.268  0.00  0.00    +0.000 A 
ENDBRANCH   7   8
BRANCH   3  15
ATOM     15  C   UNL     1      -3.333  12.726  18.894  0.00  0.00    +0.000 C 
BRANCH  15  16
ATOM     16  N   UNL     1      -4.298  12.183  19.856  0.00  0.00    +0.000 NA
ATOM     17  C   UNL     1      -5.510  11.708  19.163  0.00  0.00    +0.000 C 
ATOM     18  C   UNL     1      -6.560  11.124  20.139  0.00  0.00    +0.000 C 
ATOM     19  N   UNL     1      -6.915  11.992  21.280  0.00  0.00    +0.000 NA
ATOM     20  C   UNL     1      -7.806  13.078  20.883  0.00  0.00    +0.000 C 
ATOM     21  C   UNL     1      -5.678  12.508  21.898  0.00  0.00    +0.000 C 
ATOM     22  C   UNL     1      -4.675  13.142  20.908  0.00  0.00    +0.000 C 
ENDBRANCH  15  16
ENDBRANCH   3  15
BRANCH   4  23
ATOM     23  C   UNL     1      -0.941  14.363  20.242  0.00  0.00    +0.000 C 
BRANCH  23  24
ATOM     24  N   UNL     1      -1.576  14.453  21.567  0.00  0.00    +0.000 NA
ATOM     25  C   UNL     1      -2.350  15.705  21.685  0.00  0.00    +0.000 C 
ATOM     26  C   UNL     1      -3.004  15.877  23.080  0.00  0.00    +0.000 C 
ATOM     27  N   UNL     1      -2.088  15.740  24.230  0.00  0.00    +0.000 NA
ATOM     28  C   UNL     1      -1.227  16.909  24.388  0.00  0.00    +0.000 C 
ATOM     29  C   UNL     1      -1.297  14.506  24.062  0.00  0.00    +0.000 C 
ATOM     30  C   UNL     1      -0.617  14.365  22.685  0.00  0.00    +0.000 C 
ENDBRANCH  23  24
ENDBRANCH   4  23
TORSDOF 5
ENDMDL
MODEL 3
REMARK VINA RESULT:      -6.1      0.973      1.248
REMARK  Name = 
REMARK  9 active torsions:
REMARK  status: ('A' for Active; 'I' for Inactive)
REMARK    1  A    between atoms: C_1  and  C_2
REMARK    2  A    between atoms: C_3  and  C_4
REMARK    3  A    between atoms: C_4  and  N_5
REMARK    4  A    between atoms: N_8  and  C_9
REMARK    5  A    between atoms: C_12  and  C_13
REMARK    6  A    between atoms: C_13  and  N_14
REMARK    7  A    between atoms: N_17  and  C_18
REMARK    8  A    between atoms: C_21  and  C_22
REMARK    9  A    between atoms: N_23  and  C_24
REMARK                            x       y       z     vdW  Elec       q    Type
REMARK                         _______ _______ _______ _____ _____    ______ ____
ROOT
ATOM      1  C   UNL     1      -1.717   9.648  17.601  0.00  0.00    +0.000 C 
ATOM      2  C   UNL     1      -1.102  10.743  18.419  0.00  0.00    +0.000 A 
ATOM      3  C   UNL     1      -1.700  11.959  18.730  0.00  0.00    +0.000 A 
ATOM      4  C   UNL     1      -0.773  12.692  19.539  0.00  0.00    +0.000 A 
ATOM      5  C   UNL     1       0.328  11.868  19.752  0.00  0.00    +0.000 A 
ATOM      6  C   UNL     1       1.584  12.250  20.470  0.00  0.00    +0.000 C 
ATOM      7  N   UNL     1       0.128  10.652  19.083  0.00  0.00    +0.000 N 
ENDROOT
BRANCH   7   8
ATOM      8  C   UNL     1       1.011   9.514  19.098  0.00  0.00    +0.000 A 
ATOM      9  C   UNL     1       1.094   8.684  20.226  0.00  0.00    +0.000 A 
ATOM     10  C   UNL     1       1.924   7.553  20.229  0.00  0.00    +0.000 A 
ATOM     11  C   UNL     1       2.653   7.223  19.095  0.00  0.00    +0.000 A 
ATOM     12 CL   UNL     1       3.630   5.807  19.080  0.00  0.00    +0.000 Cl
ATOM     13  C   UNL     1       2.586   8.030  17.965  0.00  0.00    +0.000 A 
ATOM     14  C   UNL     1       1.787   9.181  17.977  0.00  0.00    +0.000 A 
ENDBRANCH   7   8
BRANCH   3  15
ATOM     15  C   UNL     1      -3.055  12.454  18.280  0.00  0.00    +0.000 C 
BRANCH  15  16
ATOM     16  N   UNL     1      -4.140  11.873  19.077  0.00  0.00    +0.000 NA
ATOM     17  C   UNL     1      -5.191  11.325  18.201  0.00  0.00    +0.000 C 
ATOM     18  C   UNL     1      -6.360  10.698  18.999  0.00  0.00    +0.000 C 
ATOM     19  N   UNL     1      -6.947  11.560  20.045  0.00  0.00    +0.000 NA
ATOM     20  C   UNL     1      -7.812  12.591  19.481  0.00  0.00    +0.000 C 
ATOM     21  C   UNL     1      -5.860  12.149  20.851  0.00  0.00    +0.000 C 
ATOM     22  C   UNL     1      -4.737  12.823  20.031  0.00  0.00    +0.000 C 
ENDBRANCH  15  16
ENDBRANCH   3  15
BRANCH   4  23
ATOM     23  C   UNL     1      -0.951  14.111  20.025  0.00  0.00    +0.000 C 
BRANCH  23  24
ATOM     24  N   UNL     1      -1.618  14.133  21.337  0.00  0.00    +0.000 NA
ATOM     25  C   UNL     1      -2.578  15.253  21.410  0.00  0.00    +0.000 C 
ATOM     26  C   UNL     1      -3.278  15.354  22.790  0.00  0.00    +0.000 C 
ATOM     27  N   UNL     1      -2.374  15.386  23.957  0.00  0.00    +0.000 NA
ATOM     28  C   UNL     1      -1.707  16.677  24.099  0.00  0.00    +0.000 C 
ATOM     29  C   UNL     1      -1.401  14.285  23.834  0.00  0.00    +0.000 C 
ATOM     30  C   UNL     1      -0.679  14.219  22.472  0.00  0.00    +0.000 C 
ENDBRANCH  23  24
ENDBRANCH   4  23
TORSDOF 5
ENDMDL
MODEL 4
REMARK VINA RESULT:      -6.1      2.231      4.819
REMARK  Name = 
REMARK  9 active torsions:
REMARK  status: ('A' for Active; 'I' for Inactive)
REMARK    1  A    between atoms: C_1  and  C_2
REMARK    2  A    between atoms: C_3  and  C_4
REMARK    3  A    between atoms: C_4  and  N_5
REMARK    4  A    between atoms: N_8  and  C_9
REMARK    5  A    between atoms: C_12  and  C_13
REMARK    6  A    between atoms: C_13  and  N_14
REMARK    7  A    between atoms: N_17  and  C_18
REMARK    8  A    between atoms: C_21  and  C_22
REMARK    9  A    between atoms: N_23  and  C_24
REMARK                            x       y       z     vdW  Elec       q    Type
REMARK                         _______ _______ _______ _____ _____    ______ ____
ROOT
ATOM      1  C   UNL     1       1.701  12.160  20.717  0.00  0.00    +0.000 C 
ATOM      2  C   UNL     1       0.411  11.872  20.012  0.00  0.00    +0.000 A 
ATOM      3  C   UNL     1      -0.642  12.765  19.846  0.00  0.00    +0.000 A 
ATOM      4  C   UNL     1      -1.661  12.086  19.104  0.00  0.00    +0.000 A 
ATOM      5  C   UNL     1      -1.165  10.827  18.782  0.00  0.00    +0.000 A 
ATOM      6  C   UNL     1      -1.918   9.738  18.085  0.00  0.00    +0.000 C 
ATOM      7  N   UNL     1       0.124  10.690  19.317  0.00  0.00    +0.000 N 
ENDROOT
BRANCH   7   8
ATOM      8  C   UNL     1       0.998   9.555  19.162  0.00  0.00    +0.000 A 
ATOM      9  C   UNL     1       1.182   8.642  20.211  0.00  0.00    +0.000 A 
ATOM     10  C   UNL     1       2.002   7.515  20.049  0.00  0.00    +0.000 A 
ATOM     11  C   UNL     1       2.618   7.273  18.830  0.00  0.00    +0.000 A 
ATOM     12 CL   UNL     1       3.581   5.864  18.615  0.00  0.00    +0.000 Cl
ATOM     13  C   UNL     1       2.449   8.164  17.776  0.00  0.00    +0.000 A 
ATOM     14  C   UNL     1       1.662   9.310  17.951  0.00  0.00    +0.000 A 
ENDBRANCH   7   8
BRANCH   3  15
ATOM     15  C   UNL     1      -0.735  14.178  20.374  0.00  0.00    +0.000 C 
BRANCH  15  16
ATOM     16  N   UNL     1      -0.326  15.164  19.368  0.00  0.00    +0.000 NA
ATOM     17  C   UNL     1       1.116  15.448  19.477  0.00  0.00    +0.000 C 
ATOM     18  C   UNL     1       1.596  16.485  18.432  0.00  0.00    +0.000 C 
ATOM     19  N   UNL     1       0.817  17.738  18.380  0.00  0.00    +0.000 NA
ATOM     20  C   UNL     1       1.139  18.628  19.492  0.00  0.00    +0.000 C 
ATOM     21  C   UNL     1      -0.623  17.412  18.349  0.00  0.00    +0.000 C 
ATOM     22  C   UNL     1      -1.085  16.423  19.443  0.00  0.00    +0.000 C 
ENDBRANCH  15  16
ENDBRANCH   3  15
BRANCH   4  23
ATOM     23  C   UNL     1      -3.032  12.630  18.779  0.00  0.00    +0.000 C 
BRANCH  23  24
ATOM     24  N   UNL     1      -4.010  12.219  19.799  0.00  0.00    +0.000 NA
ATOM     25  C   UNL     1      -5.304  11.885  19.170  0.00  0.00    +0.000 C 
ATOM     26  C   UNL     1      -6.390  11.490  20.204  0.00  0.00    +0.000 C 
ATOM     27  N   UNL     1      -6.597  12.453  21.304  0.00  0.00    +0.000 NA
ATOM     28  C   UNL     1      -7.321  13.642  20.863  0.00  0.00    +0.000 C 
ATOM     29  C   UNL     1      -5.286  12.801  21.883  0.00  0.00    +0.000 C 
ATOM     30  C   UNL     1      -4.225  13.234  20.849  0.00  0.00    +0.000 C 
ENDBRANCH  23  24
ENDBRANCH   4  23
TORSDOF 5
ENDMDL
MODEL 5
REMARK VINA RESULT:      -6.1      0.591      4.247
REMARK  Name = 
REMARK  9 active torsions:
REMARK  status: ('A' for Active; 'I' for Inactive)
REMARK    1  A    between atoms: C_1  and  C_2
REMARK    2  A    between atoms: C_3  and  C_4
REMARK    3  A    between atoms: C_4  and  N_5
REMARK    4  A    between atoms: N_8  and  C_9
REMARK    5  A    between atoms: C_12  and  C_13
REMARK    6  A    between atoms: C_13  and  N_14
REMARK    7  A    between atoms: N_17  and  C_18
REMARK    8  A    between atoms: C_21  and  C_22
REMARK    9  A    between atoms: N_23  and  C_24
REMARK                            x       y       z     vdW  Elec       q    Type
REMARK                         _______ _______ _______ _____ _____    ______ ____
ROOT
ATOM      1  C   UNL     1       1.331  11.436  21.287  0.00  0.00    +0.000 C 
ATOM      2  C   UNL     1       0.249  11.345  20.254  0.00  0.00    +0.000 A 
ATOM      3  C   UNL     1      -0.746  12.290  20.034  0.00  0.00    +0.000 A 
ATOM      4  C   UNL     1      -1.551  11.814  18.949  0.00  0.00    +0.000 A 
ATOM      5  C   UNL     1      -0.975  10.630  18.500  0.00  0.00    +0.000 A 
ATOM      6  C   UNL     1      -1.526   9.733  17.436  0.00  0.00    +0.000 C 
ATOM      7  N   UNL     1       0.152  10.340  19.283  0.00  0.00    +0.000 N 
ENDROOT
BRANCH   7   8
ATOM      8  C   UNL     1       1.052   9.230  19.107  0.00  0.00    +0.000 A 
ATOM      9  C   UNL     1       1.835   9.118  17.948  0.00  0.00    +0.000 A 
ATOM     10  C   UNL     1       2.742   8.059  17.790  0.00  0.00    +0.000 A 
ATOM     11  C   UNL     1       2.898   7.122  18.802  0.00  0.00    +0.000 A 
ATOM     12 CL   UNL     1       4.048   5.853  18.631  0.00  0.00    +0.000 Cl
ATOM     13  C   UNL     1       2.134   7.213  19.959  0.00  0.00    +0.000 A 
ATOM     14  C   UNL     1       1.200   8.248  20.098  0.00  0.00    +0.000 A 
ENDBRANCH   7   8
BRANCH   3  15
ATOM     15  C   UNL     1      -0.982  13.568  20.806  0.00  0.00    +0.000 C 
BRANCH  15  16
ATOM     16  N   UNL     1      -2.174  13.480  21.656  0.00  0.00    +0.000 NA
ATOM     17  C   UNL     1      -2.676  14.826  21.987  0.00  0.00    +0.000 C 
ATOM     18  C   UNL     1      -3.936  14.784  22.884  0.00  0.00    +0.000 C 
ATOM     19  N   UNL     1      -3.821  13.954  24.100  0.00  0.00    +0.000 NA
ATOM     20  C   UNL     1      -3.036  14.614  25.139  0.00  0.00    +0.000 C 
ATOM     21  C   UNL     1      -3.244  12.644  23.738  0.00  0.00    +0.000 C 
ATOM     22  C   UNL     1      -1.951  12.717  22.895  0.00  0.00    +0.000 C 
ENDBRANCH  15  16
ENDBRANCH   3  15
BRANCH   4  23
ATOM     23  C   UNL     1      -2.813  12.462  18.431  0.00  0.00    +0.000 C 
BRANCH  23  24
ATOM     24  N   UNL     1      -4.003  11.825  19.017  0.00  0.00    +0.000 NA
ATOM     25  C   UNL     1      -4.878  11.287  17.955  0.00  0.00    +0.000 C 
ATOM     26  C   UNL     1      -6.174  10.645  18.513  0.00  0.00    +0.000 C 
ATOM     27  N   UNL     1      -6.958  11.497  19.429  0.00  0.00    +0.000 NA
ATOM     28  C   UNL     1      -7.678  12.550  18.719  0.00  0.00    +0.000 C 
ATOM     29  C   UNL     1      -6.053  12.055  20.451  0.00  0.00    +0.000 C 
ATOM     30  C   UNL     1      -4.786  12.729  19.883  0.00  0.00    +0.000 C 
ENDBRANCH  23  24
ENDBRANCH   4  23
TORSDOF 5
ENDMDL
MODEL 6
REMARK VINA RESULT:      -6.1      0.552      1.353
REMARK  Name = 
REMARK  9 active torsions:
REMARK  status: ('A' for Active; 'I' for Inactive)
REMARK    1  A    between atoms: C_1  and  C_2
REMARK    2  A    between atoms: C_3  and  C_4
REMARK    3  A    between atoms: C_4  and  N_5
REMARK    4  A    between atoms: N_8  and  C_9
REMARK    5  A    between atoms: C_12  and  C_13
REMARK    6  A    between atoms: C_13  and  N_14
REMARK    7  A    between atoms: N_17  and  C_18
REMARK    8  A    between atoms: C_21  and  C_22
REMARK    9  A    between atoms: N_23  and  C_24
REMARK                            x       y       z     vdW  Elec       q    Type
REMARK                         _______ _______ _______ _____ _____    ______ ____
ROOT
ATOM      1  C   UNL     1      -1.582   9.802  17.393  0.00  0.00    +0.000 C 
ATOM      2  C   UNL     1      -1.042  10.732  18.437  0.00  0.00    +0.000 A 
ATOM      3  C   UNL     1      -1.664  11.887  18.897  0.00  0.00    +0.000 A 
ATOM      4  C   UNL     1      -0.813  12.456  19.899  0.00  0.00    +0.000 A 
ATOM      5  C   UNL     1       0.262  11.590  20.065  0.00  0.00    +0.000 A 
ATOM      6  C   UNL     1       1.449  11.822  20.947  0.00  0.00    +0.000 C 
ATOM      7  N   UNL     1       0.122  10.508  19.184  0.00  0.00    +0.000 N 
ENDROOT
BRANCH   7   8
ATOM      8  C   UNL     1       0.998   9.370  19.083  0.00  0.00    +0.000 A 
ATOM      9  C   UNL     1       1.767   9.155  17.929  0.00  0.00    +0.000 A 
ATOM     10  C   UNL     1       2.649   8.068  17.842  0.00  0.00    +0.000 A 
ATOM     11  C   UNL     1       2.798   7.206  18.919  0.00  0.00    +0.000 A 
ATOM     12 CL   UNL     1       3.919   5.904  18.834  0.00  0.00    +0.000 Cl
ATOM     13  C   UNL     1       2.047   7.399  20.073  0.00  0.00    +0.000 A 
ATOM     14  C   UNL     1       1.137   8.462  20.144  0.00  0.00    +0.000 A 
ENDBRANCH   7   8
BRANCH   3  15
ATOM     15  C   UNL     1      -2.972  12.475  18.419  0.00  0.00    +0.000 C 
BRANCH  15  16
ATOM     16  N   UNL     1      -4.123  11.858  19.086  0.00  0.00    +0.000 NA
ATOM     17  C   UNL     1      -5.079  11.335  18.093  0.00  0.00    +0.000 C 
ATOM     18  C   UNL     1      -6.313  10.672  18.750  0.00  0.00    +0.000 C 
ATOM     19  N   UNL     1      -7.006  11.491  19.765  0.00  0.00    +0.000 NA
ATOM     20  C   UNL     1      -7.823  12.536  19.157  0.00  0.00    +0.000 C 
ATOM     21  C   UNL     1      -6.008  12.057  20.694  0.00  0.00    +0.000 C 
ATOM     22  C   UNL     1      -4.819  12.768  20.010  0.00  0.00    +0.000 C 
ENDBRANCH  15  16
ENDBRANCH   3  15
BRANCH   4  23
ATOM     23  C   UNL     1      -1.032  13.775  20.602  0.00  0.00    +0.000 C 
BRANCH  23  24
ATOM     24  N   UNL     1      -2.191  13.697  21.506  0.00  0.00    +0.000 NA
ATOM     25  C   UNL     1      -2.629  15.050  21.903  0.00  0.00    +0.000 C 
ATOM     26  C   UNL     1      -3.820  15.029  22.896  0.00  0.00    +0.000 C 
ATOM     27  N   UNL     1      -3.630  14.188  24.094  0.00  0.00    +0.000 NA
ATOM     28  C   UNL     1      -2.721  14.803  25.057  0.00  0.00    +0.000 C 
ATOM     29  C   UNL     1      -3.150  12.859  23.670  0.00  0.00    +0.000 C 
ATOM     30  C   UNL     1      -1.939  12.891  22.716  0.00  0.00    +0.000 C 
ENDBRANCH  23  24
ENDBRANCH   4  23
TORSDOF 5
ENDMDL
MODEL 7
REMARK VINA RESULT:      -6.0      1.023      1.054
REMARK  Name = 
REMARK  9 active torsions:
REMARK  status: ('A' for Active; 'I' for Inactive)
REMARK    1  A    between atoms: C_1  and  C_2
REMARK    2  A    between atoms: C_3  and  C_4
REMARK    3  A    between atoms: C_4  and  N_5
REMARK    4  A    between atoms: N_8  and  C_9
REMARK    5  A    between atoms: C_12  and  C_13
REMARK    6  A    between atoms: C_13  and  N_14
REMARK    7  A    between atoms: N_17  and  C_18
REMARK    8  A    between atoms: C_21  and  C_22
REMARK    9  A    between atoms: N_23  and  C_24
REMARK                            x       y       z     vdW  Elec       q    Type
REMARK                         _______ _______ _______ _____ _____    ______ ____
ROOT
ATOM      1  C   UNL     1      -2.035   9.687  17.916  0.00  0.00    +0.000 C 
ATOM      2  C   UNL     1      -1.340  10.844  18.568  0.00  0.00    +0.000 A 
ATOM      3  C   UNL     1      -1.913  12.075  18.863  0.00  0.00    +0.000 A 
ATOM      4  C   UNL     1      -0.905  12.872  19.494  0.00  0.00    +0.000 A 
ATOM      5  C   UNL     1       0.226  12.074  19.627  0.00  0.00    +0.000 A 
ATOM      6  C   UNL     1       1.556  12.515  20.152  0.00  0.00    +0.000 C 
ATOM      7  N   UNL     1      -0.036  10.810  19.079  0.00  0.00    +0.000 N 
ENDROOT
BRANCH   7   8
ATOM      8  C   UNL     1       0.859   9.682  19.065  0.00  0.00    +0.000 A 
ATOM      9  C   UNL     1       1.006   8.868  20.198  0.00  0.00    +0.000 A 
ATOM     10  C   UNL     1       1.848   7.746  20.176  0.00  0.00    +0.000 A 
ATOM     11  C   UNL     1       2.525   7.408  19.012  0.00  0.00    +0.000 A 
ATOM     12 CL   UNL     1       3.516   6.003  18.968  0.00  0.00    +0.000 Cl
ATOM     13  C   UNL     1       2.394   8.200  17.877  0.00  0.00    +0.000 A 
ATOM     14  C   UNL     1       1.584   9.342  17.912  0.00  0.00    +0.000 A 
ENDBRANCH   7   8
BRANCH   3  15
ATOM     15  C   UNL     1      -3.322  12.528  18.551  0.00  0.00    +0.000 C 
BRANCH  15  16
ATOM     16  N   UNL     1      -4.264  12.142  19.606  0.00  0.00    +0.000 NA
ATOM     17  C   UNL     1      -5.510  11.614  19.021  0.00  0.00    +0.000 C 
ATOM     18  C   UNL     1      -6.538  11.192  20.098  0.00  0.00    +0.000 C 
ATOM     19  N   UNL     1      -6.832  12.210  21.127  0.00  0.00    +0.000 NA
ATOM     20  C   UNL     1      -7.712  13.259  20.620  0.00  0.00    +0.000 C 
ATOM     21  C   UNL     1      -5.562  12.768  21.632  0.00  0.00    +0.000 C 
ATOM     22  C   UNL     1      -4.581  13.239  20.535  0.00  0.00    +0.000 C 
ENDBRANCH  15  16
ENDBRANCH   3  15
BRANCH   4  23
ATOM     23  C   UNL     1      -1.043  14.322  19.894  0.00  0.00    +0.000 C 
BRANCH  23  24
ATOM     24  N   UNL     1      -0.909  14.475  21.351  0.00  0.00    +0.000 NA
ATOM     25  C   UNL     1      -1.558  13.348  22.051  0.00  0.00    +0.000 C 
ATOM     26  C   UNL     1      -1.490  13.480  23.594  0.00  0.00    +0.000 C 
ATOM     27  N   UNL     1      -1.977  14.762  24.142  0.00  0.00    +0.000 NA
ATOM     28  C   UNL     1      -3.434  14.855  24.108  0.00  0.00    +0.000 C 
ATOM     29  C   UNL     1      -1.347  15.867  23.396  0.00  0.00    +0.000 C 
ATOM     30  C   UNL     1      -1.458  15.747  21.862  0.00  0.00    +0.000 C 
ENDBRANCH  23  24
ENDBRANCH   4  23
TORSDOF 5
ENDMDL
MODEL 8
REMARK VINA RESULT:      -6.0      2.108      3.202
REMARK  Name = 
REMARK  9 active torsions:
REMARK  status: ('A' for Active; 'I' for Inactive)
REMARK    1  A    between atoms: C_1  and  C_2
REMARK    2  A    between atoms: C_3  and  C_4
REMARK    3  A    between atoms: C_4  and  N_5
REMARK    4  A    between atoms: N_8  and  C_9
REMARK    5  A    between atoms: C_12  and  C_13
REMARK    6  A    between atoms: C_13  and  N_14
REMARK    7  A    between atoms: N_17  and  C_18
REMARK    8  A    between atoms: C_21  and  C_22
REMARK    9  A    between atoms: N_23  and  C_24
REMARK                            x       y       z     vdW  Elec       q    Type
REMARK                         _______ _______ _______ _____ _____    ______ ____
ROOT
ATOM      1  C   UNL     1      -2.162   9.913  17.941  0.00  0.00    +0.000 C 
ATOM      2  C   UNL     1      -1.482  10.929  18.808  0.00  0.00    +0.000 A 
ATOM      3  C   UNL     1      -2.046  12.113  19.270  0.00  0.00    +0.000 A 
ATOM      4  C   UNL     1      -1.058  12.769  20.072  0.00  0.00    +0.000 A 
ATOM      5  C   UNL     1       0.049  11.928  20.129  0.00  0.00    +0.000 A 
ATOM      6  C   UNL     1       1.357  12.242  20.786  0.00  0.00    +0.000 C 
ATOM      7  N   UNL     1      -0.208  10.777  19.370  0.00  0.00    +0.000 N 
ENDROOT
BRANCH   7   8
ATOM      8  C   UNL     1       0.665   9.642  19.218  0.00  0.00    +0.000 A 
ATOM      9  C   UNL     1       1.337   9.410  18.009  0.00  0.00    +0.000 A 
ATOM     10  C   UNL     1       2.218   8.326  17.870  0.00  0.00    +0.000 A 
ATOM     11  C   UNL     1       2.461   7.486  18.947  0.00  0.00    +0.000 A 
ATOM     12 CL   UNL     1       3.581   6.189  18.794  0.00  0.00    +0.000 Cl
ATOM     13  C   UNL     1       1.807   7.697  20.156  0.00  0.00    +0.000 A 
ATOM     14  C   UNL     1       0.897   8.755  20.281  0.00  0.00    +0.000 A 
ENDBRANCH   7   8
BRANCH   3  15
ATOM     15  C   UNL     1      -3.427  12.649  18.965  0.00  0.00    +0.000 C 
BRANCH  15  16
ATOM     16  N   UNL     1      -4.406  12.238  19.977  0.00  0.00    +0.000 NA
ATOM     17  C   UNL     1      -5.659  11.799  19.338  0.00  0.00    +0.000 C 
ATOM     18  C   UNL     1      -6.725  11.354  20.368  0.00  0.00    +0.000 C 
ATOM     19  N   UNL     1      -7.000  12.319  21.452  0.00  0.00    +0.000 NA
ATOM     20  C   UNL     1      -7.826  13.432  20.995  0.00  0.00    +0.000 C 
ATOM     21  C   UNL     1      -5.720  12.792  22.014  0.00  0.00    +0.000 C 
ATOM     22  C   UNL     1      -4.697  13.289  20.967  0.00  0.00    +0.000 C 
ENDBRANCH  15  16
ENDBRANCH   3  15
BRANCH   4  23
ATOM     23  C   UNL     1      -1.190  14.139  20.695  0.00  0.00    +0.000 C 
BRANCH  23  24
ATOM     24  N   UNL     1      -0.063  15.000  20.301  0.00  0.00    +0.000 NA
ATOM     25  C   UNL     1       0.103  16.107  21.265  0.00  0.00    +0.000 C 
ATOM     26  C   UNL     1       1.248  17.076  20.873  0.00  0.00    +0.000 C 
ATOM     27  N   UNL     1       1.183  17.610  19.498  0.00  0.00    +0.000 NA
ATOM     28  C   UNL     1       0.148  18.630  19.354  0.00  0.00    +0.000 C 
ATOM     29  C   UNL     1       0.972  16.489  18.563  0.00  0.00    +0.000 C 
ATOM     30  C   UNL     1      -0.197  15.554  18.939  0.00  0.00    +0.000 C 
ENDBRANCH  23  24
ENDBRANCH   4  23
TORSDOF 5
ENDMDL
MODEL 9
REMARK VINA RESULT:      -6.0      1.799      2.820
REMARK  Name = 
REMARK  9 active torsions:
REMARK  status: ('A' for Active; 'I' for Inactive)
REMARK    1  A    between atoms: C_1  and  C_2
REMARK    2  A    between atoms: C_3  and  C_4
REMARK    3  A    between atoms: C_4  and  N_5
REMARK    4  A    between atoms: N_8  and  C_9
REMARK    5  A    between atoms: C_12  and  C_13
REMARK    6  A    between atoms: C_13  and  N_14
REMARK    7  A    between atoms: N_17  and  C_18
REMARK    8  A    between atoms: C_21  and  C_22
REMARK    9  A    between atoms: N_23  and  C_24
REMARK                            x       y       z     vdW  Elec       q    Type
REMARK                         _______ _______ _______ _____ _____    ______ ____
ROOT
ATOM      1  C   UNL     1      -1.556   9.632  17.284  0.00  0.00    +0.000 C 
ATOM      2  C   UNL     1      -1.087  10.619  18.308  0.00  0.00    +0.000 A 
ATOM      3  C   UNL     1      -1.778  11.753  18.721  0.00  0.00    +0.000 A 
ATOM      4  C   UNL     1      -0.979  12.397  19.720  0.00  0.00    +0.000 A 
ATOM      5  C   UNL     1       0.137  11.594  19.933  0.00  0.00    +0.000 A 
ATOM      6  C   UNL     1       1.293  11.915  20.829  0.00  0.00    +0.000 C 
ATOM      7  N   UNL     1       0.072  10.480  19.083  0.00  0.00    +0.000 N 
ENDROOT
BRANCH   7   8
ATOM      8  C   UNL     1       1.009   9.388  19.032  0.00  0.00    +0.000 A 
ATOM      9  C   UNL     1       1.121   8.488  20.103  0.00  0.00    +0.000 A 
ATOM     10  C   UNL     1       2.006   7.401  20.042  0.00  0.00    +0.000 A 
ATOM     11  C   UNL     1       2.760   7.182  18.897  0.00  0.00    +0.000 A 
ATOM     12 CL   UNL     1       3.804   5.819  18.801  0.00  0.00    +0.000 Cl
ATOM     13  C   UNL     1       2.665   8.060  17.824  0.00  0.00    +0.000 A 
ATOM     14  C   UNL     1       1.811   9.168  17.902  0.00  0.00    +0.000 A 
ENDBRANCH   7   8
BRANCH   3  15
ATOM     15  C   UNL     1      -3.105  12.256  18.201  0.00  0.00    +0.000 C 
BRANCH  15  16
ATOM     16  N   UNL     1      -4.226  11.779  19.017  0.00  0.00    +0.000 NA
ATOM     17  C   UNL     1      -5.321  11.290  18.159  0.00  0.00    +0.000 C 
ATOM     18  C   UNL     1      -6.529  10.773  18.976  0.00  0.00    +0.000 C 
ATOM     19  N   UNL     1      -7.043  11.703  20.003  0.00  0.00    +0.000 NA
ATOM     20  C   UNL     1      -7.831  12.782  19.417  0.00  0.00    +0.000 C 
ATOM     21  C   UNL     1      -5.910  12.228  20.790  0.00  0.00    +0.000 C 
ATOM     22  C   UNL     1      -4.744  12.794  19.948  0.00  0.00    +0.000 C 
ENDBRANCH  15  16
ENDBRANCH   3  15
BRANCH   4  23
ATOM     23  C   UNL     1      -1.281  13.722  20.378  0.00  0.00    +0.000 C 
BRANCH  23  24
ATOM     24  N   UNL     1      -0.196  14.685  20.130  0.00  0.00    +0.000 NA
ATOM     25  C   UNL     1      -0.193  15.739  21.165  0.00  0.00    +0.000 C 
ATOM     26  C   UNL     1       0.902  16.811  20.927  0.00  0.00    +0.000 C 
ATOM     27  N   UNL     1       0.906  17.424  19.584  0.00  0.00    +0.000 NA
ATOM     28  C   UNL     1      -0.190  18.373  19.410  0.00  0.00    +0.000 C 
ATOM     29  C   UNL     1       0.857  16.351  18.573  0.00  0.00    +0.000 C 
ATOM     30  C   UNL     1      -0.262  15.313  18.795  0.00  0.00    +0.000 C 
ENDBRANCH  23  24
ENDBRANCH   4  23
TORSDOF 5
ENDMDL
