MODEL 1
REMARK VINA RESULT:      -7.9      0.000      0.000
REMARK  Name = 
REMARK  17 active torsions:
REMARK  status: ('A' for Active; 'I' for Inactive)
REMARK    1  A    between atoms: C_1  and  C_2
REMARK    2  A    between atoms: C_2  and  C_3
REMARK    3  A    between atoms: C_3  and  C_4
REMARK    4  A    between atoms: C_4  and  C_5
REMARK    5  A    between atoms: C_4  and  C_8
REMARK    6  A    between atoms: C_4  and  C_16
REMARK    7  A    between atoms: C_5  and  C_6
REMARK    8  A    between atoms: C_6  and  C_7
REMARK    9  A    between atoms: C_11  and  O_12
REMARK   10  A    between atoms: C_13  and  C_14
REMARK   11  A    between atoms: C_19  and  O_20
REMARK   12  A    between atoms: O_20  and  C_21
REMARK   13  A    between atoms: C_21  and  C_22
REMARK   14  A    between atoms: C_22  and  C_23
REMARK   15  A    between atoms: C_23  and  C_24
REMARK   16  A    between atoms: C_23  and  C_25
REMARK   17  A    between atoms: C_26  and  C_27
REMARK                            x       y       z     vdW  Elec       q    Type
REMARK                         _______ _______ _______ _____ _____    ______ ____
ROOT
ATOM      1  C   UNL     1       3.170   5.159  18.475  0.00  0.00    +0.000 C 
ENDROOT
BRANCH   1   2
ATOM      2  C   UNL     1       4.438   5.289  17.573  0.00  0.00    +0.000 A 
ATOM      3  C   UNL     1       4.540   4.540  16.384  0.00  0.00    +0.000 A 
ATOM      4  C   UNL     1       5.648   4.663  15.541  0.00  0.00    +0.000 A 
ATOM      5  C   UNL     1       6.678   5.540  15.869  0.00  0.00    +0.000 A 
ATOM      6  C   UNL     1       6.627   6.289  17.042  0.00  0.00    +0.000 A 
ATOM      7  C   UNL     1       7.689   7.280  17.422  0.00  0.00    +0.000 C 
ATOM      8  C   UNL     1       5.511   6.145  17.887  0.00  0.00    +0.000 A 
BRANCH   5   9
ATOM      9  O   UNL     1       7.755   5.678  15.040  0.00  0.00    +0.000 OA
ATOM     10  H   UNL     1       8.506   6.007  15.559  0.00  0.00    +0.000 HD
ENDBRANCH   5   9
ENDBRANCH   1   2
BRANCH   1  11
ATOM     11  C   UNL     1       2.612   6.575  18.771  0.00  0.00    +0.000 A 
ATOM     12  C   UNL     1       2.458   7.461  17.707  0.00  0.00    +0.000 A 
ATOM     13  C   UNL     1       1.852   8.694  17.893  0.00  0.00    +0.000 A 
ATOM     14  C   UNL     1       1.384   9.123  19.148  0.00  0.00    +0.000 A 
ATOM     15  C   UNL     1       1.591   8.281  20.250  0.00  0.00    +0.000 A 
ATOM     16  C   UNL     1       1.190   8.608  21.661  0.00  0.00    +0.000 C 
ATOM     17  C   UNL     1       2.202   7.021  20.041  0.00  0.00    +0.000 A 
BRANCH  14  18
ATOM     18  O   UNL     1       0.715  10.335  19.316  0.00  0.00    +0.000 OA
BRANCH  18  19
ATOM     19  C   UNL     1      -0.703  10.171  19.169  0.00  0.00    +0.000 C 
BRANCH  19  20
ATOM     20  C   UNL     1      -1.300  10.230  17.766  0.00  0.00    +0.000 C 
BRANCH  20  21
ATOM     21  C   UNL     1      -2.549  11.159  17.797  0.00  0.00    +0.000 C 
ATOM     22  C   UNL     1      -3.864  10.406  17.565  0.00  0.00    +0.000 C 
ATOM     23  C   UNL     1      -2.634  11.947  19.098  0.00  0.00    +0.000 C 
ENDBRANCH  20  21
ENDBRANCH  19  20
ENDBRANCH  18  19
ENDBRANCH  14  18
ENDBRANCH   1  11
BRANCH   1  24
ATOM     24  C   UNL     1       2.020   4.355  17.752  0.00  0.00    +0.000 C 
BRANCH  24  26
ATOM     25  C   UNL     1       1.047   2.197  18.594  0.00  0.00    +0.000 C 
ATOM     26  C   UNL     1       0.950   3.717  18.654  0.00  0.00    +0.000 C 
ENDBRANCH  24  26
ENDBRANCH   1  24
BRANCH   1  27
ATOM     27  C   UNL     1       3.581   4.416  19.792  0.00  0.00    +0.000 C 
BRANCH  27  28
ATOM     28  C   UNL     1       4.466   3.176  19.618  0.00  0.00    +0.000 C 
ATOM     29  C   UNL     1       4.142   2.136  20.682  0.00  0.00    +0.000 C 
ENDBRANCH  27  28
ENDBRANCH   1  27
TORSDOF 11
ENDMDL
MODEL 2
REMARK VINA RESULT:      -7.7      1.212      1.819
REMARK  Name = 
REMARK  17 active torsions:
REMARK  status: ('A' for Active; 'I' for Inactive)
REMARK    1  A    between atoms: C_1  and  C_2
REMARK    2  A    between atoms: C_2  and  C_3
REMARK    3  A    between atoms: C_3  and  C_4
REMARK    4  A    between atoms: C_4  and  C_5
REMARK    5  A    between atoms: C_4  and  C_8
REMARK    6  A    between atoms: C_4  and  C_16
REMARK    7  A    between atoms: C_5  and  C_6
REMARK    8  A    between atoms: C_6  and  C_7
REMARK    9  A    between atoms: C_11  and  O_12
REMARK   10  A    between atoms: C_13  and  C_14
REMARK   11  A    between atoms: C_19  and  O_20
REMARK   12  A    between atoms: O_20  and  C_21
REMARK   13  A    between atoms: C_21  and  C_22
REMARK   14  A    between atoms: C_22  and  C_23
REMARK   15  A    between atoms: C_23  and  C_24
REMARK   16  A    between atoms: C_23  and  C_25
REMARK   17  A    between atoms: C_26  and  C_27
REMARK                            x       y       z     vdW  Elec       q    Type
REMARK                         _______ _______ _______ _____ _____    ______ ____
ROOT
ATOM      1  C   UNL     1       2.759   5.124  19.125  0.00  0.00    +0.000 C 
ENDROOT
BRANCH   1   2
ATOM      2  C   UNL     1       4.163   5.054  18.446  0.00  0.00    +0.000 A 
ATOM      3  C   UNL     1       5.331   5.082  19.233  0.00  0.00    +0.000 A 
ATOM      4  C   UNL     1       6.600   4.987  18.653  0.00  0.00    +0.000 A 
ATOM      5  C   UNL     1       6.727   4.861  17.272  0.00  0.00    +0.000 A 
ATOM      6  C   UNL     1       5.600   4.845  16.454  0.00  0.00    +0.000 A 
ATOM      7  C   UNL     1       5.678   4.669  14.965  0.00  0.00    +0.000 C 
ATOM      8  C   UNL     1       4.331   4.954  17.051  0.00  0.00    +0.000 A 
BRANCH   5   9
ATOM      9  O   UNL     1       7.963   4.749  16.702  0.00  0.00    +0.000 OA
ATOM     10  H   UNL     1       8.188   3.807  16.633  0.00  0.00    +0.000 HD
ENDBRANCH   5   9
ENDBRANCH   1   2
BRANCH   1  11
ATOM     11  C   UNL     1       2.331   6.608  19.252  0.00  0.00    +0.000 A 
ATOM     12  C   UNL     1       2.342   7.401  18.107  0.00  0.00    +0.000 A 
ATOM     13  C   UNL     1       1.856   8.699  18.137  0.00  0.00    +0.000 A 
ATOM     14  C   UNL     1       1.350   9.287  19.311  0.00  0.00    +0.000 A 
ATOM     15  C   UNL     1       1.392   8.536  20.494  0.00  0.00    +0.000 A 
ATOM     16  C   UNL     1       0.930   9.032  21.835  0.00  0.00    +0.000 C 
ATOM     17  C   UNL     1       1.883   7.209  20.443  0.00  0.00    +0.000 A 
BRANCH  14  18
ATOM     18  O   UNL     1       0.800  10.568  19.321  0.00  0.00    +0.000 OA
BRANCH  18  19
ATOM     19  C   UNL     1      -0.615  10.529  19.080  0.00  0.00    +0.000 C 
BRANCH  19  20
ATOM     20  C   UNL     1      -1.112  10.650  17.643  0.00  0.00    +0.000 C 
BRANCH  20  21
ATOM     21  C   UNL     1      -2.589  10.159  17.586  0.00  0.00    +0.000 C 
ATOM     22  C   UNL     1      -3.583  11.180  18.150  0.00  0.00    +0.000 C 
ATOM     23  C   UNL     1      -3.001   9.773  16.170  0.00  0.00    +0.000 C 
ENDBRANCH  20  21
ENDBRANCH  19  20
ENDBRANCH  18  19
ENDBRANCH  14  18
ENDBRANCH   1  11
BRANCH   1  24
ATOM     24  C   UNL     1       1.656   4.401  18.255  0.00  0.00    +0.000 C 
BRANCH  24  26
ATOM     25  C   UNL     1       2.233   1.965  18.045  0.00  0.00    +0.000 C 
ATOM     26  C   UNL     1       2.141   3.294  17.304  0.00  0.00    +0.000 C 
ENDBRANCH  24  26
ENDBRANCH   1  24
BRANCH   1  27
ATOM     27  C   UNL     1       2.858   4.430  20.526  0.00  0.00    +0.000 C 
BRANCH  27  28
ATOM     28  C   UNL     1       1.558   3.826  21.072  0.00  0.00    +0.000 C 
ATOM     29  C   UNL     1       1.829   2.474  21.718  0.00  0.00    +0.000 C 
ENDBRANCH  27  28
ENDBRANCH   1  27
TORSDOF 11
ENDMDL
MODEL 3
REMARK VINA RESULT:      -7.7      0.889      1.598
REMARK  Name = 
REMARK  17 active torsions:
REMARK  status: ('A' for Active; 'I' for Inactive)
REMARK    1  A    between atoms: C_1  and  C_2
REMARK    2  A    between atoms: C_2  and  C_3
REMARK    3  A    between atoms: C_3  and  C_4
REMARK    4  A    between atoms: C_4  and  C_5
REMARK    5  A    between atoms: C_4  and  C_8
REMARK    6  A    between atoms: C_4  and  C_16
REMARK    7  A    between atoms: C_5  and  C_6
REMARK    8  A    between atoms: C_6  and  C_7
REMARK    9  A    between atoms: C_11  and  O_12
REMARK   10  A    between atoms: C_13  and  C_14
REMARK   11  A    between atoms: C_19  and  O_20
REMARK   12  A    between atoms: O_20  and  C_21
REMARK   13  A    between atoms: C_21  and  C_22
REMARK   14  A    between atoms: C_22  and  C_23
REMARK   15  A    between atoms: C_23  and  C_24
REMARK   16  A    between atoms: C_23  and  C_25
REMARK   17  A    between atoms: C_26  and  C_27
REMARK                            x       y       z     vdW  Elec       q    Type
REMARK                         _______ _______ _______ _____ _____    ______ ____
ROOT
ATOM      1  C   UNL     1       3.103   4.773  18.533  0.00  0.00    +0.000 C 
ENDROOT
BRANCH   1   2
ATOM      2  C   UNL     1       4.364   5.036  17.650  0.00  0.00    +0.000 A 
ATOM      3  C   UNL     1       4.522   4.359  16.425  0.00  0.00    +0.000 A 
ATOM      4  C   UNL     1       5.624   4.601  15.599  0.00  0.00    +0.000 A 
ATOM      5  C   UNL     1       6.591   5.527  15.982  0.00  0.00    +0.000 A 
ATOM      6  C   UNL     1       6.483   6.207  17.192  0.00  0.00    +0.000 A 
ATOM      7  C   UNL     1       7.475   7.245  17.633  0.00  0.00    +0.000 C 
ATOM      8  C   UNL     1       5.376   5.944  18.018  0.00  0.00    +0.000 A 
BRANCH   5   9
ATOM      9  O   UNL     1       7.660   5.780  15.171  0.00  0.00    +0.000 OA
ATOM     10  H   UNL     1       7.330   6.051  14.299  0.00  0.00    +0.000 HD
ENDBRANCH   5   9
ENDBRANCH   1   2
BRANCH   1  11
ATOM     11  C   UNL     1       2.493   6.132  18.962  0.00  0.00    +0.000 A 
ATOM     12  C   UNL     1       1.975   6.249  20.249  0.00  0.00    +0.000 A 
ATOM     13  C   UNL     1       1.527   7.471  20.727  0.00  0.00    +0.000 A 
ATOM     14  C   UNL     1       1.552   8.640  19.945  0.00  0.00    +0.000 A 
ATOM     15  C   UNL     1       2.002   8.538  18.622  0.00  0.00    +0.000 A 
ATOM     16  C   UNL     1       2.052   9.680  17.647  0.00  0.00    +0.000 C 
ATOM     17  C   UNL     1       2.465   7.284  18.153  0.00  0.00    +0.000 A 
BRANCH  14  18
ATOM     18  O   UNL     1       1.164   9.880  20.453  0.00  0.00    +0.000 OA
BRANCH  18  19
ATOM     19  C   UNL     1      -0.230   9.889  20.791  0.00  0.00    +0.000 C 
BRANCH  19  20
ATOM     20  C   UNL     1      -1.101  11.022  20.257  0.00  0.00    +0.000 C 
BRANCH  20  21
ATOM     21  C   UNL     1      -0.855  11.157  18.725  0.00  0.00    +0.000 C 
ATOM     22  C   UNL     1      -1.764  10.250  17.887  0.00  0.00    +0.000 C 
ATOM     23  C   UNL     1      -0.999  12.599  18.255  0.00  0.00    +0.000 C 
ENDBRANCH  20  21
ENDBRANCH  19  20
ENDBRANCH  18  19
ENDBRANCH  14  18
ENDBRANCH   1  11
BRANCH   1  24
ATOM     24  C   UNL     1       1.983   4.000  17.734  0.00  0.00    +0.000 C 
BRANCH  24  26
ATOM     25  C   UNL     1       0.551   2.442  19.088  0.00  0.00    +0.000 C 
ATOM     26  C   UNL     1       1.735   2.534  18.133  0.00  0.00    +0.000 C 
ENDBRANCH  24  26
ENDBRANCH   1  24
BRANCH   1  27
ATOM     27  C   UNL     1       3.543   3.923  19.774  0.00  0.00    +0.000 C 
BRANCH  27  28
ATOM     28  C   UNL     1       4.781   3.041  19.581  0.00  0.00    +0.000 C 
ATOM     29  C   UNL     1       4.647   1.751  20.380  0.00  0.00    +0.000 C 
ENDBRANCH  27  28
ENDBRANCH   1  27
TORSDOF 11
ENDMDL
MODEL 4
REMARK VINA RESULT:      -7.6      0.699      1.117
REMARK  Name = 
REMARK  17 active torsions:
REMARK  status: ('A' for Active; 'I' for Inactive)
REMARK    1  A    between atoms: C_1  and  C_2
REMARK    2  A    between atoms: C_2  and  C_3
REMARK    3  A    between atoms: C_3  and  C_4
REMARK    4  A    between atoms: C_4  and  C_5
REMARK    5  A    between atoms: C_4  and  C_8
REMARK    6  A    between atoms: C_4  and  C_16
REMARK    7  A    between atoms: C_5  and  C_6
REMARK    8  A    between atoms: C_6  and  C_7
REMARK    9  A    between atoms: C_11  and  O_12
REMARK   10  A    between atoms: C_13  and  C_14
REMARK   11  A    between atoms: C_19  and  O_20
REMARK   12  A    between atoms: O_20  and  C_21
REMARK   13  A    between atoms: C_21  and  C_22
REMARK   14  A    between atoms: C_22  and  C_23
REMARK   15  A    between atoms: C_23  and  C_24
REMARK   16  A    between atoms: C_23  and  C_25
REMARK   17  A    between atoms: C_26  and  C_27
REMARK                            x       y       z     vdW  Elec       q    Type
REMARK                         _______ _______ _______ _____ _____    ______ ____
ROOT
ATOM      1  C   UNL     1       3.164   5.188  18.497  0.00  0.00    +0.000 C 
ENDROOT
BRANCH   1   2
ATOM      2  C   UNL     1       4.428   5.316  17.589  0.00  0.00    +0.000 A 
ATOM      3  C   UNL     1       4.533   4.552  16.411  0.00  0.00    +0.000 A 
ATOM      4  C   UNL     1       5.637   4.673  15.562  0.00  0.00    +0.000 A 
ATOM      5  C   UNL     1       6.661   5.564  15.875  0.00  0.00    +0.000 A 
ATOM      6  C   UNL     1       6.606   6.329  17.037  0.00  0.00    +0.000 A 
ATOM      7  C   UNL     1       7.661   7.334  17.400  0.00  0.00    +0.000 C 
ATOM      8  C   UNL     1       5.494   6.186  17.887  0.00  0.00    +0.000 A 
BRANCH   5   9
ATOM      9  O   UNL     1       7.733   5.699  15.040  0.00  0.00    +0.000 OA
ATOM     10  H   UNL     1       8.540   5.750  15.578  0.00  0.00    +0.000 HD
ENDBRANCH   5   9
ENDBRANCH   1   2
BRANCH   1  11
ATOM     11  C   UNL     1       2.604   6.603  18.789  0.00  0.00    +0.000 A 
ATOM     12  C   UNL     1       2.459   7.490  17.724  0.00  0.00    +0.000 A 
ATOM     13  C   UNL     1       1.852   8.723  17.905  0.00  0.00    +0.000 A 
ATOM     14  C   UNL     1       1.374   9.151  19.157  0.00  0.00    +0.000 A 
ATOM     15  C   UNL     1       1.572   8.310  20.260  0.00  0.00    +0.000 A 
ATOM     16  C   UNL     1       1.159   8.636  21.668  0.00  0.00    +0.000 C 
ATOM     17  C   UNL     1       2.184   7.049  20.056  0.00  0.00    +0.000 A 
BRANCH  14  18
ATOM     18  O   UNL     1       0.704  10.364  19.320  0.00  0.00    +0.000 OA
BRANCH  18  19
ATOM     19  C   UNL     1      -0.648  10.278  18.849  0.00  0.00    +0.000 C 
BRANCH  19  20
ATOM     20  C   UNL     1      -1.368  11.567  18.463  0.00  0.00    +0.000 C 
BRANCH  20  21
ATOM     21  C   UNL     1      -1.601  12.410  19.752  0.00  0.00    +0.000 C 
ATOM     22  C   UNL     1      -0.913  13.779  19.707  0.00  0.00    +0.000 C 
ATOM     23  C   UNL     1      -3.085  12.593  20.046  0.00  0.00    +0.000 C 
ENDBRANCH  20  21
ENDBRANCH  19  20
ENDBRANCH  18  19
ENDBRANCH  14  18
ENDBRANCH   1  11
BRANCH   1  24
ATOM     24  C   UNL     1       2.013   4.377  17.782  0.00  0.00    +0.000 C 
BRANCH  24  26
ATOM     25  C   UNL     1       1.086   2.191  18.603  0.00  0.00    +0.000 C 
ATOM     26  C   UNL     1       0.969   3.709  18.693  0.00  0.00    +0.000 C 
ENDBRANCH  24  26
ENDBRANCH   1  24
BRANCH   1  27
ATOM     27  C   UNL     1       3.582   4.451  19.816  0.00  0.00    +0.000 C 
BRANCH  27  28
ATOM     28  C   UNL     1       4.550   3.273  19.652  0.00  0.00    +0.000 C 
ATOM     29  C   UNL     1       4.174   2.139  20.596  0.00  0.00    +0.000 C 
ENDBRANCH  27  28
ENDBRANCH   1  27
TORSDOF 11
ENDMDL
MODEL 5
REMARK VINA RESULT:      -7.6      1.258      1.371
REMARK  Name = 
REMARK  17 active torsions:
REMARK  status: ('A' for Active; 'I' for Inactive)
REMARK    1  A    between atoms: C_1  and  C_2
REMARK    2  A    between atoms: C_2  and  C_3
REMARK    3  A    between atoms: C_3  and  C_4
REMARK    4  A    between atoms: C_4  and  C_5
REMARK    5  A    between atoms: C_4  and  C_8
REMARK    6  A    between atoms: C_4  and  C_16
REMARK    7  A    between atoms: C_5  and  C_6
REMARK    8  A    between atoms: C_6  and  C_7
REMARK    9  A    between atoms: C_11  and  O_12
REMARK   10  A    between atoms: C_13  and  C_14
REMARK   11  A    between atoms: C_19  and  O_20
REMARK   12  A    between atoms: O_20  and  C_21
REMARK   13  A    between atoms: C_21  and  C_22
REMARK   14  A    between atoms: C_22  and  C_23
REMARK   15  A    between atoms: C_23  and  C_24
REMARK   16  A    between atoms: C_23  and  C_25
REMARK   17  A    between atoms: C_26  and  C_27
REMARK                            x       y       z     vdW  Elec       q    Type
REMARK                         _______ _______ _______ _____ _____    ______ ____
ROOT
ATOM      1  C   UNL     1       2.784   4.944  18.953  0.00  0.00    +0.000 C 
ENDROOT
BRANCH   1   2
ATOM      2  C   UNL     1       4.215   4.834  18.340  0.00  0.00    +0.000 A 
ATOM      3  C   UNL     1       4.392   4.312  17.044  0.00  0.00    +0.000 A 
ATOM      4  C   UNL     1       5.659   4.234  16.459  0.00  0.00    +0.000 A 
ATOM      5  C   UNL     1       6.778   4.678  17.159  0.00  0.00    +0.000 A 
ATOM      6  C   UNL     1       6.652   5.188  18.449  0.00  0.00    +0.000 A 
ATOM      7  C   UNL     1       7.819   5.719  19.231  0.00  0.00    +0.000 C 
ATOM      8  C   UNL     1       5.372   5.248  19.029  0.00  0.00    +0.000 A 
BRANCH   5   9
ATOM      9  O   UNL     1       8.016   4.622  16.585  0.00  0.00    +0.000 OA
ATOM     10  H   UNL     1       8.433   3.780  16.829  0.00  0.00    +0.000 HD
ENDBRANCH   5   9
ENDBRANCH   1   2
BRANCH   1  11
ATOM     11  C   UNL     1       2.389   6.440  19.051  0.00  0.00    +0.000 A 
ATOM     12  C   UNL     1       2.413   7.208  17.889  0.00  0.00    +0.000 A 
ATOM     13  C   UNL     1       1.956   8.517  17.893  0.00  0.00    +0.000 A 
ATOM     14  C   UNL     1       1.466   9.140  19.056  0.00  0.00    +0.000 A 
ATOM     15  C   UNL     1       1.496   8.414  20.254  0.00  0.00    +0.000 A 
ATOM     16  C   UNL     1       1.050   8.947  21.586  0.00  0.00    +0.000 C 
ATOM     17  C   UNL     1       1.958   7.075  20.230  0.00  0.00    +0.000 A 
BRANCH  14  18
ATOM     18  O   UNL     1       0.944  10.433  19.040  0.00  0.00    +0.000 OA
BRANCH  18  19
ATOM     19  C   UNL     1      -0.386  10.451  18.501  0.00  0.00    +0.000 C 
BRANCH  19  20
ATOM     20  C   UNL     1      -1.225  11.712  18.676  0.00  0.00    +0.000 C 
BRANCH  20  21
ATOM     21  C   UNL     1      -2.547  11.545  17.868  0.00  0.00    +0.000 C 
ATOM     22  C   UNL     1      -2.683  10.163  17.219  0.00  0.00    +0.000 C 
ATOM     23  C   UNL     1      -3.773  11.830  18.727  0.00  0.00    +0.000 C 
ENDBRANCH  20  21
ENDBRANCH  19  20
ENDBRANCH  18  19
ENDBRANCH  14  18
ENDBRANCH   1  11
BRANCH   1  24
ATOM     24  C   UNL     1       1.704   4.243  18.039  0.00  0.00    +0.000 C 
BRANCH  24  26
ATOM     25  C   UNL     1       2.435   1.853  17.788  0.00  0.00    +0.000 C 
ATOM     26  C   UNL     1       1.369   2.777  18.364  0.00  0.00    +0.000 C 
ENDBRANCH  24  26
ENDBRANCH   1  24
BRANCH   1  27
ATOM     27  C   UNL     1       2.800   4.260  20.362  0.00  0.00    +0.000 C 
BRANCH  27  28
ATOM     28  C   UNL     1       1.430   3.951  20.977  0.00  0.00    +0.000 C 
ATOM     29  C   UNL     1       1.494   2.679  21.811  0.00  0.00    +0.000 C 
ENDBRANCH  27  28
ENDBRANCH   1  27
TORSDOF 11
ENDMDL
MODEL 6
REMARK VINA RESULT:      -7.6      0.795      1.761
REMARK  Name = 
REMARK  17 active torsions:
REMARK  status: ('A' for Active; 'I' for Inactive)
REMARK    1  A    between atoms: C_1  and  C_2
REMARK    2  A    between atoms: C_2  and  C_3
REMARK    3  A    between atoms: C_3  and  C_4
REMARK    4  A    between atoms: C_4  and  C_5
REMARK    5  A    between atoms: C_4  and  C_8
REMARK    6  A    between atoms: C_4  and  C_16
REMARK    7  A    between atoms: C_5  and  C_6
REMARK    8  A    between atoms: C_6  and  C_7
REMARK    9  A    between atoms: C_11  and  O_12
REMARK   10  A    between atoms: C_13  and  C_14
REMARK   11  A    between atoms: C_19  and  O_20
REMARK   12  A    between atoms: O_20  and  C_21
REMARK   13  A    between atoms: C_21  and  C_22
REMARK   14  A    between atoms: C_22  and  C_23
REMARK   15  A    between atoms: C_23  and  C_24
REMARK   16  A    between atoms: C_23  and  C_25
REMARK   17  A    between atoms: C_26  and  C_27
REMARK                            x       y       z     vdW  Elec       q    Type
REMARK                         _______ _______ _______ _____ _____    ______ ____
ROOT
ATOM      1  C   UNL     1       3.280   5.215  18.379  0.00  0.00    +0.000 C 
ENDROOT
BRANCH   1   2
ATOM      2  C   UNL     1       4.486   5.337  17.395  0.00  0.00    +0.000 A 
ATOM      3  C   UNL     1       5.594   6.140  17.730  0.00  0.00    +0.000 A 
ATOM      4  C   UNL     1       6.702   6.240  16.884  0.00  0.00    +0.000 A 
ATOM      5  C   UNL     1       6.725   5.536  15.682  0.00  0.00    +0.000 A 
ATOM      6  C   UNL     1       5.646   4.742  15.303  0.00  0.00    +0.000 A 
ATOM      7  C   UNL     1       5.637   3.931  14.040  0.00  0.00    +0.000 C 
ATOM      8  C   UNL     1       4.533   4.662  16.160  0.00  0.00    +0.000 A 
BRANCH   5   9
ATOM      9  O   UNL     1       7.813   5.616  14.860  0.00  0.00    +0.000 OA
ATOM     10  H   UNL     1       8.008   6.552  14.693  0.00  0.00    +0.000 HD
ENDBRANCH   5   9
ENDBRANCH   1   2
BRANCH   1  11
ATOM     11  C   UNL     1       2.721   6.631  18.672  0.00  0.00    +0.000 A 
ATOM     12  C   UNL     1       2.640   7.542  17.621  0.00  0.00    +0.000 A 
ATOM     13  C   UNL     1       2.038   8.778  17.798  0.00  0.00    +0.000 A 
ATOM     14  C   UNL     1       1.501   9.185  19.033  0.00  0.00    +0.000 A 
ATOM     15  C   UNL     1       1.633   8.317  20.126  0.00  0.00    +0.000 A 
ATOM     16  C   UNL     1       1.151   8.619  21.518  0.00  0.00    +0.000 C 
ATOM     17  C   UNL     1       2.241   7.054  19.926  0.00  0.00    +0.000 A 
BRANCH  14  18
ATOM     18  O   UNL     1       0.837  10.401  19.188  0.00  0.00    +0.000 OA
BRANCH  18  19
ATOM     19  C   UNL     1      -0.517  10.319  18.718  0.00  0.00    +0.000 C 
BRANCH  19  20
ATOM     20  C   UNL     1      -1.326  11.606  18.601  0.00  0.00    +0.000 C 
BRANCH  20  21
ATOM     21  C   UNL     1      -1.847  11.995  20.016  0.00  0.00    +0.000 C 
ATOM     22  C   UNL     1      -0.914  12.962  20.755  0.00  0.00    +0.000 C 
ATOM     23  C   UNL     1      -3.251  12.584  19.959  0.00  0.00    +0.000 C 
ENDBRANCH  20  21
ENDBRANCH  19  20
ENDBRANCH  18  19
ENDBRANCH  14  18
ENDBRANCH   1  11
BRANCH   1  24
ATOM     24  C   UNL     1       2.099   4.377  17.750  0.00  0.00    +0.000 C 
BRANCH  24  26
ATOM     25  C   UNL     1       1.069   2.257  18.620  0.00  0.00    +0.000 C 
ATOM     26  C   UNL     1       1.077   3.777  18.731  0.00  0.00    +0.000 C 
ENDBRANCH  24  26
ENDBRANCH   1  24
BRANCH   1  27
ATOM     27  C   UNL     1       3.783   4.513  19.686  0.00  0.00    +0.000 C 
BRANCH  27  28
ATOM     28  C   UNL     1       4.671   3.279  19.488  0.00  0.00    +0.000 C 
ATOM     29  C   UNL     1       4.240   2.156  20.422  0.00  0.00    +0.000 C 
ENDBRANCH  27  28
ENDBRANCH   1  27
TORSDOF 11
ENDMDL
MODEL 7
REMARK VINA RESULT:      -7.5      1.994      7.336
REMARK  Name = 
REMARK  17 active torsions:
REMARK  status: ('A' for Active; 'I' for Inactive)
REMARK    1  A    between atoms: C_1  and  C_2
REMARK    2  A    between atoms: C_2  and  C_3
REMARK    3  A    between atoms: C_3  and  C_4
REMARK    4  A    between atoms: C_4  and  C_5
REMARK    5  A    between atoms: C_4  and  C_8
REMARK    6  A    between atoms: C_4  and  C_16
REMARK    7  A    between atoms: C_5  and  C_6
REMARK    8  A    between atoms: C_6  and  C_7
REMARK    9  A    between atoms: C_11  and  O_12
REMARK   10  A    between atoms: C_13  and  C_14
REMARK   11  A    between atoms: C_19  and  O_20
REMARK   12  A    between atoms: O_20  and  C_21
REMARK   13  A    between atoms: C_21  and  C_22
REMARK   14  A    between atoms: C_22  and  C_23
REMARK   15  A    between atoms: C_23  and  C_24
REMARK   16  A    between atoms: C_23  and  C_25
REMARK   17  A    between atoms: C_26  and  C_27
REMARK                            x       y       z     vdW  Elec       q    Type
REMARK                         _______ _______ _______ _____ _____    ______ ____
ROOT
ATOM      1  C   UNL     1       2.877   5.108  18.708  0.00  0.00    +0.000 C 
ENDROOT
BRANCH   1   2
ATOM      2  C   UNL     1       2.432   6.599  18.828  0.00  0.00    +0.000 A 
ATOM      3  C   UNL     1       2.432   7.431  17.691  0.00  0.00    +0.000 A 
ATOM      4  C   UNL     1       2.007   8.761  17.764  0.00  0.00    +0.000 A 
ATOM      5  C   UNL     1       1.571   9.287  18.977  0.00  0.00    +0.000 A 
ATOM      6  C   UNL     1       1.568   8.505  20.130  0.00  0.00    +0.000 A 
ATOM      7  C   UNL     1       1.069   9.009  21.453  0.00  0.00    +0.000 C 
ATOM      8  C   UNL     1       2.011   7.173  20.043  0.00  0.00    +0.000 A 
BRANCH   5   9
ATOM      9  O   UNL     1       1.137  10.579  19.051  0.00  0.00    +0.000 OA
ATOM     10  H   UNL     1       0.176  10.592  18.910  0.00  0.00    +0.000 HD
ENDBRANCH   5   9
ENDBRANCH   1   2
BRANCH   1  11
ATOM     11  C   UNL     1       4.140   5.026  17.814  0.00  0.00    +0.000 A 
ATOM     12  C   UNL     1       4.169   4.077  16.794  0.00  0.00    +0.000 A 
ATOM     13  C   UNL     1       5.220   4.039  15.890  0.00  0.00    +0.000 A 
ATOM     14  C   UNL     1       6.308   4.927  15.961  0.00  0.00    +0.000 A 
ATOM     15  C   UNL     1       6.340   5.845  17.020  0.00  0.00    +0.000 A 
ATOM     16  C   UNL     1       7.448   6.831  17.260  0.00  0.00    +0.000 C 
ATOM     17  C   UNL     1       5.255   5.878  17.928  0.00  0.00    +0.000 A 
BRANCH  14  18
ATOM     18  O   UNL     1       7.328   4.929  15.009  0.00  0.00    +0.000 OA
BRANCH  18  19
ATOM     19  C   UNL     1       6.807   5.148  13.690  0.00  0.00    +0.000 C 
BRANCH  19  20
ATOM     20  C   UNL     1       7.273   4.233  12.562  0.00  0.00    +0.000 C 
BRANCH  20  21
ATOM     21  C   UNL     1       6.229   3.091  12.387  0.00  0.00    +0.000 C 
ATOM     22  C   UNL     1       4.851   3.599  11.947  0.00  0.00    +0.000 C 
ATOM     23  C   UNL     1       6.716   2.026  11.411  0.00  0.00    +0.000 C 
ENDBRANCH  20  21
ENDBRANCH  19  20
ENDBRANCH  18  19
ENDBRANCH  14  18
ENDBRANCH   1  11
BRANCH   1  24
ATOM     24  C   UNL     1       3.269   4.502  20.113  0.00  0.00    +0.000 C 
BRANCH  24  26
ATOM     25  C   UNL     1       2.217   2.968  21.802  0.00  0.00    +0.000 C 
ATOM     26  C   UNL     1       2.132   4.337  21.136  0.00  0.00    +0.000 C 
ENDBRANCH  24  26
ENDBRANCH   1  24
BRANCH   1  27
ATOM     27  C   UNL     1       1.687   4.289  18.099  0.00  0.00    +0.000 C 
BRANCH  27  28
ATOM     28  C   UNL     1       1.830   2.763  18.136  0.00  0.00    +0.000 C 
ATOM     29  C   UNL     1       0.575   2.124  18.715  0.00  0.00    +0.000 C 
ENDBRANCH  27  28
ENDBRANCH   1  27
TORSDOF 11
ENDMDL
MODEL 8
REMARK VINA RESULT:      -7.5      1.495      1.791
REMARK  Name = 
REMARK  17 active torsions:
REMARK  status: ('A' for Active; 'I' for Inactive)
REMARK    1  A    between atoms: C_1  and  C_2
REMARK    2  A    between atoms: C_2  and  C_3
REMARK    3  A    between atoms: C_3  and  C_4
REMARK    4  A    between atoms: C_4  and  C_5
REMARK    5  A    between atoms: C_4  and  C_8
REMARK    6  A    between atoms: C_4  and  C_16
REMARK    7  A    between atoms: C_5  and  C_6
REMARK    8  A    between atoms: C_6  and  C_7
REMARK    9  A    between atoms: C_11  and  O_12
REMARK   10  A    between atoms: C_13  and  C_14
REMARK   11  A    between atoms: C_19  and  O_20
REMARK   12  A    between atoms: O_20  and  C_21
REMARK   13  A    between atoms: C_21  and  C_22
REMARK   14  A    between atoms: C_22  and  C_23
REMARK   15  A    between atoms: C_23  and  C_24
REMARK   16  A    between atoms: C_23  and  C_25
REMARK   17  A    between atoms: C_26  and  C_27
REMARK                            x       y       z     vdW  Elec       q    Type
REMARK                         _______ _______ _______ _____ _____    ______ ____
ROOT
ATOM      1  C   UNL     1       3.176   5.160  18.499  0.00  0.00    +0.000 C 
ENDROOT
BRANCH   1   2
ATOM      2  C   UNL     1       4.433   5.278  17.581  0.00  0.00    +0.000 A 
ATOM      3  C   UNL     1       4.528   4.505  16.408  0.00  0.00    +0.000 A 
ATOM      4  C   UNL     1       5.627   4.617  15.551  0.00  0.00    +0.000 A 
ATOM      5  C   UNL     1       6.656   5.506  15.851  0.00  0.00    +0.000 A 
ATOM      6  C   UNL     1       6.611   6.279  17.008  0.00  0.00    +0.000 A 
ATOM      7  C   UNL     1       7.672   7.283  17.357  0.00  0.00    +0.000 C 
ATOM      8  C   UNL     1       5.505   6.146  17.867  0.00  0.00    +0.000 A 
BRANCH   5   9
ATOM      9  O   UNL     1       7.723   5.633  15.008  0.00  0.00    +0.000 OA
ATOM     10  H   UNL     1       7.638   6.470  14.524  0.00  0.00    +0.000 HD
ENDBRANCH   5   9
ENDBRANCH   1   2
BRANCH   1  11
ATOM     11  C   UNL     1       2.626   6.579  18.789  0.00  0.00    +0.000 A 
ATOM     12  C   UNL     1       2.513   7.476  17.729  0.00  0.00    +0.000 A 
ATOM     13  C   UNL     1       1.917   8.715  17.906  0.00  0.00    +0.000 A 
ATOM     14  C   UNL     1       1.417   9.139  19.151  0.00  0.00    +0.000 A 
ATOM     15  C   UNL     1       1.582   8.287  20.251  0.00  0.00    +0.000 A 
ATOM     16  C   UNL     1       1.143   8.608  21.652  0.00  0.00    +0.000 C 
ATOM     17  C   UNL     1       2.184   7.021  20.051  0.00  0.00    +0.000 A 
BRANCH  14  18
ATOM     18  O   UNL     1       0.758  10.358  19.309  0.00  0.00    +0.000 OA
BRANCH  18  19
ATOM     19  C   UNL     1       1.482  11.426  18.679  0.00  0.00    +0.000 C 
BRANCH  19  20
ATOM     20  C   UNL     1       1.609  12.754  19.419  0.00  0.00    +0.000 C 
BRANCH  20  21
ATOM     21  C   UNL     1       0.606  13.768  18.794  0.00  0.00    +0.000 C 
ATOM     22  C   UNL     1      -0.804  13.661  19.387  0.00  0.00    +0.000 C 
ATOM     23  C   UNL     1       1.104  15.203  18.916  0.00  0.00    +0.000 C 
ENDBRANCH  20  21
ENDBRANCH  19  20
ENDBRANCH  18  19
ENDBRANCH  14  18
ENDBRANCH   1  11
BRANCH   1  24
ATOM     24  C   UNL     1       2.015   4.354  17.794  0.00  0.00    +0.000 C 
BRANCH  24  26
ATOM     25  C   UNL     1       1.054   2.181  18.613  0.00  0.00    +0.000 C 
ATOM     26  C   UNL     1       0.970   3.700  18.715  0.00  0.00    +0.000 C 
ENDBRANCH  24  26
ENDBRANCH   1  24
BRANCH   1  27
ATOM     27  C   UNL     1       3.598   4.426  19.817  0.00  0.00    +0.000 C 
BRANCH  27  28
ATOM     28  C   UNL     1       4.545   3.231  19.649  0.00  0.00    +0.000 C 
ATOM     29  C   UNL     1       4.167   2.112  20.609  0.00  0.00    +0.000 C 
ENDBRANCH  27  28
ENDBRANCH   1  27
TORSDOF 11
ENDMDL
MODEL 9
REMARK VINA RESULT:      -7.5      1.129      1.575
REMARK  Name = 
REMARK  17 active torsions:
REMARK  status: ('A' for Active; 'I' for Inactive)
REMARK    1  A    between atoms: C_1  and  C_2
REMARK    2  A    between atoms: C_2  and  C_3
REMARK    3  A    between atoms: C_3  and  C_4
REMARK    4  A    between atoms: C_4  and  C_5
REMARK    5  A    between atoms: C_4  and  C_8
REMARK    6  A    between atoms: C_4  and  C_16
REMARK    7  A    between atoms: C_5  and  C_6
REMARK    8  A    between atoms: C_6  and  C_7
REMARK    9  A    between atoms: C_11  and  O_12
REMARK   10  A    between atoms: C_13  and  C_14
REMARK   11  A    between atoms: C_19  and  O_20
REMARK   12  A    between atoms: O_20  and  C_21
REMARK   13  A    between atoms: C_21  and  C_22
REMARK   14  A    between atoms: C_22  and  C_23
REMARK   15  A    between atoms: C_23  and  C_24
REMARK   16  A    between atoms: C_23  and  C_25
REMARK   17  A    between atoms: C_26  and  C_27
REMARK                            x       y       z     vdW  Elec       q    Type
REMARK                         _______ _______ _______ _____ _____    ______ ____
ROOT
ATOM      1  C   UNL     1       2.963   5.380  18.738  0.00  0.00    +0.000 C 
ENDROOT
BRANCH   1   2
ATOM      2  C   UNL     1       4.265   5.423  17.878  0.00  0.00    +0.000 A 
ATOM      3  C   UNL     1       4.287   4.835  16.598  0.00  0.00    +0.000 A 
ATOM      4  C   UNL     1       5.429   4.889  15.794  0.00  0.00    +0.000 A 
ATOM      5  C   UNL     1       6.575   5.534  16.253  0.00  0.00    +0.000 A 
ATOM      6  C   UNL     1       6.603   6.115  17.519  0.00  0.00    +0.000 A 
ATOM      7  C   UNL     1       7.796   6.859  18.046  0.00  0.00    +0.000 C 
ATOM      8  C   UNL     1       5.450   6.042  18.321  0.00  0.00    +0.000 A 
BRANCH   5   9
ATOM      9  O   UNL     1       7.687   5.606  15.464  0.00  0.00    +0.000 OA
ATOM     10  H   UNL     1       8.011   4.705  15.303  0.00  0.00    +0.000 HD
ENDBRANCH   5   9
ENDBRANCH   1   2
BRANCH   1  11
ATOM     11  C   UNL     1       2.431   6.824  18.925  0.00  0.00    +0.000 A 
ATOM     12  C   UNL     1       2.312   7.636  17.799  0.00  0.00    +0.000 A 
ATOM     13  C   UNL     1       1.731   8.891  17.888  0.00  0.00    +0.000 A 
ATOM     14  C   UNL     1       1.254   9.417  19.103  0.00  0.00    +0.000 A 
ATOM     15  C   UNL     1       1.427   8.651  20.264  0.00  0.00    +0.000 A 
ATOM     16  C   UNL     1       1.012   9.085  21.642  0.00  0.00    +0.000 C 
ATOM     17  C   UNL     1       2.013   7.367  20.154  0.00  0.00    +0.000 A 
BRANCH  14  18
ATOM     18  O   UNL     1       0.610  10.652  19.174  0.00  0.00    +0.000 OA
BRANCH  18  19
ATOM     19  C   UNL     1      -0.740  10.563  18.693  0.00  0.00    +0.000 C 
BRANCH  19  20
ATOM     20  C   UNL     1      -1.795  11.471  19.315  0.00  0.00    +0.000 C 
BRANCH  20  21
ATOM     21  C   UNL     1      -1.114  12.349  20.407  0.00  0.00    +0.000 C 
ATOM     22  C   UNL     1      -1.466  13.836  20.287  0.00  0.00    +0.000 C 
ATOM     23  C   UNL     1      -1.442  11.857  21.811  0.00  0.00    +0.000 C 
ENDBRANCH  20  21
ENDBRANCH  19  20
ENDBRANCH  18  19
ENDBRANCH  14  18
ENDBRANCH   1  11
BRANCH   1  24
ATOM     24  C   UNL     1       1.819   4.559  18.023  0.00  0.00    +0.000 C 
BRANCH  24  26
ATOM     25  C   UNL     1       0.788   2.334  18.569  0.00  0.00    +0.000 C 
ATOM     26  C   UNL     1       1.999   3.032  17.961  0.00  0.00    +0.000 C 
ENDBRANCH  24  26
ENDBRANCH   1  24
BRANCH   1  27
ATOM     27  C   UNL     1       3.306   4.711  20.113  0.00  0.00    +0.000 C 
BRANCH  27  28
ATOM     28  C   UNL     1       2.130   4.509  21.076  0.00  0.00    +0.000 C 
ATOM     29  C   UNL     1       2.220   3.147  21.750  0.00  0.00    +0.000 C 
ENDBRANCH  27  28
ENDBRANCH   1  27
TORSDOF 11
ENDMDL
