MODEL 1
REMARK VINA RESULT:      -8.3      0.000      0.000
REMARK  Name = 
REMARK  4 active torsions:
REMARK  status: ('A' for Active; 'I' for Inactive)
REMARK    1  A    between atoms: C_2  and  C_3
REMARK    2  A    between atoms: C_2  and  C_9
REMARK    3  A    between atoms: C_9  and  C_10
REMARK    4  A    between atoms: C_9  and  N_16
REMARK                            x       y       z     vdW  Elec       q    Type
REMARK                         _______ _______ _______ _____ _____    ______ ____
ROOT
ATOM      1  C   UNL     1       3.803   5.713  19.090  0.00  0.00    +0.000 C 
ENDROOT
BRANCH   1   2
ATOM      2  N   UNL     1       5.183   5.465  18.579  0.00  0.00    +0.000 N 
ATOM      3  C   UNL     1       6.239   5.519  19.372  0.00  0.00    +0.000 A 
ATOM      4  S   UNL     1       7.676   5.671  18.468  0.00  0.00    +0.000 S 
ATOM      5  C   UNL     1       6.875   5.166  17.031  0.00  0.00    +0.000 A 
ATOM      6  C   UNL     1       7.453   4.850  15.789  0.00  0.00    +0.000 A 
ATOM      7  C   UNL     1       6.638   4.266  14.817  0.00  0.00    +0.000 A 
ATOM      8  C   UNL     1       5.282   4.082  15.060  0.00  0.00    +0.000 A 
ATOM      9  C   UNL     1       4.681   4.517  16.261  0.00  0.00    +0.000 A 
ATOM     10  C   UNL     1       5.503   5.050  17.281  0.00  0.00    +0.000 A 
ENDBRANCH   1   2
BRANCH   1  11
ATOM     11  C   UNL     1       2.894   4.475  18.940  0.00  0.00    +0.000 A 
ATOM     12  C   UNL     1       1.709   4.490  18.158  0.00  0.00    +0.000 A 
ATOM     13  C   UNL     1       0.853   3.381  18.125  0.00  0.00    +0.000 A 
ATOM     14  C   UNL     1       1.153   2.239  18.860  0.00  0.00    +0.000 A 
ATOM     15  C   UNL     1       2.326   2.192  19.605  0.00  0.00    +0.000 A 
ATOM     16  C   UNL     1       3.197   3.292  19.633  0.00  0.00    +0.000 A 
ENDBRANCH   1  11
BRANCH   1  18
ATOM     17  O   UNL     1       3.590   7.306  17.308  0.00  0.00    +0.000 OA
ATOM     18  C   UNL     1       3.225   6.959  18.432  0.00  0.00    +0.000 C 
BRANCH  18  19
ATOM     19  C   UNL     1       2.241   7.778  19.191  0.00  0.00    +0.000 A 
ATOM     20  C   UNL     1       1.827   7.482  20.491  0.00  0.00    +0.000 A 
ATOM     21  C   UNL     1       0.921   8.321  21.152  0.00  0.00    +0.000 A 
ATOM     22  C   UNL     1       0.420   9.452  20.514  0.00  0.00    +0.000 A 
ATOM     23  C   UNL     1       0.806   9.744  19.209  0.00  0.00    +0.000 A 
ATOM     24  C   UNL     1       1.706   8.901  18.550  0.00  0.00    +0.000 A 
ENDBRANCH  18  19
ENDBRANCH   1  18
TORSDOF 4
ENDMDL
MODEL 2
REMARK VINA RESULT:      -8.1      0.116      1.393
REMARK  Name = 
REMARK  4 active torsions:
REMARK  status: ('A' for Active; 'I' for Inactive)
REMARK    1  A    between atoms: C_2  and  C_3
REMARK    2  A    between atoms: C_2  and  C_9
REMARK    3  A    between atoms: C_9  and  C_10
REMARK    4  A    between atoms: C_9  and  N_16
REMARK                            x       y       z     vdW  Elec       q    Type
REMARK                         _______ _______ _______ _____ _____    ______ ____
ROOT
ATOM      1  C   UNL     1       3.780   5.804  19.115  0.00  0.00    +0.000 C 
ENDROOT
BRANCH   1   2
ATOM      2  N   UNL     1       5.152   5.501  18.614  0.00  0.00    +0.000 N 
ATOM      3  C   UNL     1       6.207   5.538  19.408  0.00  0.00    +0.000 A 
ATOM      4  S   UNL     1       7.651   5.623  18.505  0.00  0.00    +0.000 S 
ATOM      5  C   UNL     1       6.836   5.112  17.078  0.00  0.00    +0.000 A 
ATOM      6  C   UNL     1       7.406   4.750  15.845  0.00  0.00    +0.000 A 
ATOM      7  C   UNL     1       6.575   4.172  14.884  0.00  0.00    +0.000 A 
ATOM      8  C   UNL     1       5.213   4.037  15.127  0.00  0.00    +0.000 A 
ATOM      9  C   UNL     1       4.624   4.518  16.316  0.00  0.00    +0.000 A 
ATOM     10  C   UNL     1       5.461   5.046  17.327  0.00  0.00    +0.000 A 
ENDBRANCH   1   2
BRANCH   1  11
ATOM     11  C   UNL     1       2.849   4.575  19.052  0.00  0.00    +0.000 A 
ATOM     12  C   UNL     1       3.082   3.402  19.818  0.00  0.00    +0.000 A 
ATOM     13  C   UNL     1       2.276   2.266  19.661  0.00  0.00    +0.000 A 
ATOM     14  C   UNL     1       1.226   2.270  18.749  0.00  0.00    +0.000 A 
ATOM     15  C   UNL     1       0.960   3.421  18.015  0.00  0.00    +0.000 A 
ATOM     16  C   UNL     1       1.753   4.568  18.175  0.00  0.00    +0.000 A 
ENDBRANCH   1  11
BRANCH   1  18
ATOM     17  O   UNL     1       3.592   7.291  17.242  0.00  0.00    +0.000 OA
ATOM     18  C   UNL     1       3.218   7.016  18.383  0.00  0.00    +0.000 C 
BRANCH  18  19
ATOM     19  C   UNL     1       2.240   7.888  19.086  0.00  0.00    +0.000 A 
ATOM     20  C   UNL     1       1.637   9.003  18.502  0.00  0.00    +0.000 A 
ATOM     21  C   UNL     1       0.700   9.757  19.219  0.00  0.00    +0.000 A 
ATOM     22  C   UNL     1       0.368   9.404  20.524  0.00  0.00    +0.000 A 
ATOM     23  C   UNL     1       0.981   8.309  21.127  0.00  0.00    +0.000 A 
ATOM     24  C   UNL     1       1.921   7.563  20.410  0.00  0.00    +0.000 A 
ENDBRANCH  18  19
ENDBRANCH   1  18
TORSDOF 4
ENDMDL
MODEL 3
REMARK VINA RESULT:      -7.8      2.532      6.736
REMARK  Name = 
REMARK  4 active torsions:
REMARK  status: ('A' for Active; 'I' for Inactive)
REMARK    1  A    between atoms: C_2  and  C_3
REMARK    2  A    between atoms: C_2  and  C_9
REMARK    3  A    between atoms: C_9  and  C_10
REMARK    4  A    between atoms: C_9  and  N_16
REMARK                            x       y       z     vdW  Elec       q    Type
REMARK                         _______ _______ _______ _____ _____    ______ ____
ROOT
ATOM      1  C   UNL     1       5.526   5.373  16.767  0.00  0.00    +0.000 C 
ENDROOT
BRANCH   1   2
ATOM      2  N   UNL     1       4.214   5.471  17.470  0.00  0.00    +0.000 N 
ATOM      3  C   UNL     1       3.678   6.637  17.784  0.00  0.00    +0.000 A 
ATOM      4  S   UNL     1       2.464   6.455  18.967  0.00  0.00    +0.000 S 
ATOM      5  C   UNL     1       2.361   4.765  18.660  0.00  0.00    +0.000 A 
ATOM      6  C   UNL     1       1.404   3.858  19.149  0.00  0.00    +0.000 A 
ATOM      7  C   UNL     1       1.388   2.570  18.611  0.00  0.00    +0.000 A 
ATOM      8  C   UNL     1       2.345   2.190  17.677  0.00  0.00    +0.000 A 
ATOM      9  C   UNL     1       3.380   3.064  17.282  0.00  0.00    +0.000 A 
ATOM     10  C   UNL     1       3.372   4.393  17.768  0.00  0.00    +0.000 A 
ENDBRANCH   1   2
BRANCH   1  11
ATOM     11  C   UNL     1       6.660   6.073  17.545  0.00  0.00    +0.000 A 
ATOM     12  C   UNL     1       7.249   5.508  18.707  0.00  0.00    +0.000 A 
ATOM     13  C   UNL     1       8.205   6.215  19.448  0.00  0.00    +0.000 A 
ATOM     14  C   UNL     1       8.598   7.490  19.054  0.00  0.00    +0.000 A 
ATOM     15  C   UNL     1       8.059   8.046  17.899  0.00  0.00    +0.000 A 
ATOM     16  C   UNL     1       7.111   7.340  17.142  0.00  0.00    +0.000 A 
ENDBRANCH   1  11
BRANCH   1  18
ATOM     17  O   UNL     1       4.873   6.974  15.104  0.00  0.00    +0.000 OA
ATOM     18  C   UNL     1       5.385   5.878  15.337  0.00  0.00    +0.000 C 
BRANCH  18  19
ATOM     19  C   UNL     1       5.836   5.004  14.221  0.00  0.00    +0.000 A 
ATOM     20  C   UNL     1       5.045   4.005  13.652  0.00  0.00    +0.000 A 
ATOM     21  C   UNL     1       5.529   3.245  12.580  0.00  0.00    +0.000 A 
ATOM     22  C   UNL     1       6.807   3.475  12.079  0.00  0.00    +0.000 A 
ATOM     23  C   UNL     1       7.614   4.453  12.653  0.00  0.00    +0.000 A 
ATOM     24  C   UNL     1       7.131   5.205  13.727  0.00  0.00    +0.000 A 
ENDBRANCH  18  19
ENDBRANCH   1  18
TORSDOF 4
ENDMDL
MODEL 4
REMARK VINA RESULT:      -7.7      1.396      4.218
REMARK  Name = 
REMARK  4 active torsions:
REMARK  status: ('A' for Active; 'I' for Inactive)
REMARK    1  A    between atoms: C_2  and  C_3
REMARK    2  A    between atoms: C_2  and  C_9
REMARK    3  A    between atoms: C_9  and  C_10
REMARK    4  A    between atoms: C_9  and  N_16
REMARK                            x       y       z     vdW  Elec       q    Type
REMARK                         _______ _______ _______ _____ _____    ______ ____
ROOT
ATOM      1  C   UNL     1       2.713   5.827  17.786  0.00  0.00    +0.000 C 
ENDROOT
BRANCH   1   2
ATOM      2  N   UNL     1       4.158   5.520  17.996  0.00  0.00    +0.000 N 
ATOM      3  C   UNL     1       4.709   5.555  19.196  0.00  0.00    +0.000 A 
ATOM      4  S   UNL     1       6.409   5.636  19.088  0.00  0.00    +0.000 S 
ATOM      5  C   UNL     1       6.369   5.126  17.444  0.00  0.00    +0.000 A 
ATOM      6  C   UNL     1       7.455   4.762  16.630  0.00  0.00    +0.000 A 
ATOM      7  C   UNL     1       7.179   4.184  15.389  0.00  0.00    +0.000 A 
ATOM      8  C   UNL     1       5.864   4.053  14.956  0.00  0.00    +0.000 A 
ATOM      9  C   UNL     1       4.782   4.536  15.723  0.00  0.00    +0.000 A 
ATOM     10  C   UNL     1       5.040   5.064  17.010  0.00  0.00    +0.000 A 
ENDBRANCH   1   2
BRANCH   1  11
ATOM     11  C   UNL     1       2.243   7.031  18.630  0.00  0.00    +0.000 A 
ATOM     12  C   UNL     1       2.031   6.942  20.031  0.00  0.00    +0.000 A 
ATOM     13  C   UNL     1       1.507   8.024  20.752  0.00  0.00    +0.000 A 
ATOM     14  C   UNL     1       1.188   9.212  20.102  0.00  0.00    +0.000 A 
ATOM     15  C   UNL     1       1.421   9.330  18.736  0.00  0.00    +0.000 A 
ATOM     16  C   UNL     1       1.958   8.257  18.009  0.00  0.00    +0.000 A 
ENDBRANCH   1  11
BRANCH   1  18
ATOM     17  O   UNL     1       1.002   4.244  17.219  0.00  0.00    +0.000 OA
ATOM     18  C   UNL     1       1.879   4.574  18.019  0.00  0.00    +0.000 C 
BRANCH  18  19
ATOM     19  C   UNL     1       2.110   3.779  19.255  0.00  0.00    +0.000 A 
ATOM     20  C   UNL     1       3.212   2.945  19.443  0.00  0.00    +0.000 A 
ATOM     21  C   UNL     1       3.378   2.254  20.650  0.00  0.00    +0.000 A 
ATOM     22  C   UNL     1       2.438   2.388  21.668  0.00  0.00    +0.000 A 
ATOM     23  C   UNL     1       1.321   3.198  21.483  0.00  0.00    +0.000 A 
ATOM     24  C   UNL     1       1.156   3.881  20.275  0.00  0.00    +0.000 A 
ENDBRANCH  18  19
ENDBRANCH   1  18
TORSDOF 4
ENDMDL
MODEL 5
REMARK VINA RESULT:      -7.4      2.140      6.139
REMARK  Name = 
REMARK  4 active torsions:
REMARK  status: ('A' for Active; 'I' for Inactive)
REMARK    1  A    between atoms: C_2  and  C_3
REMARK    2  A    between atoms: C_2  and  C_9
REMARK    3  A    between atoms: C_9  and  C_10
REMARK    4  A    between atoms: C_9  and  N_16
REMARK                            x       y       z     vdW  Elec       q    Type
REMARK                         _______ _______ _______ _____ _____    ______ ____
ROOT
ATOM      1  C   UNL     1       3.267   6.223  18.767  0.00  0.00    +0.000 C 
ENDROOT
BRANCH   1   2
ATOM      2  N   UNL     1       2.538   7.520  18.656  0.00  0.00    +0.000 N 
ATOM      3  C   UNL     1       2.450   8.173  17.510  0.00  0.00    +0.000 A 
ATOM      4  S   UNL     1       1.999   9.797  17.764  0.00  0.00    +0.000 S 
ATOM      5  C   UNL     1       1.461   9.441  19.360  0.00  0.00    +0.000 A 
ATOM      6  C   UNL     1       0.748  10.280  20.234  0.00  0.00    +0.000 A 
ATOM      7  C   UNL     1       0.235   9.720  21.405  0.00  0.00    +0.000 A 
ATOM      8  C   UNL     1       0.498   8.391  21.719  0.00  0.00    +0.000 A 
ATOM      9  C   UNL     1       1.321   7.588  20.900  0.00  0.00    +0.000 A 
ATOM     10  C   UNL     1       1.794   8.121  19.677  0.00  0.00    +0.000 A 
ENDBRANCH   1   2
BRANCH   1  11
ATOM     11  C   UNL     1       4.432   6.119  17.759  0.00  0.00    +0.000 A 
ATOM     12  C   UNL     1       4.442   5.170  16.703  0.00  0.00    +0.000 A 
ATOM     13  C   UNL     1       5.560   5.033  15.867  0.00  0.00    +0.000 A 
ATOM     14  C   UNL     1       6.682   5.833  16.058  0.00  0.00    +0.000 A 
ATOM     15  C   UNL     1       6.676   6.793  17.065  0.00  0.00    +0.000 A 
ATOM     16  C   UNL     1       5.557   6.946  17.897  0.00  0.00    +0.000 A 
ENDBRANCH   1  11
BRANCH   1  18
ATOM     17  O   UNL     1       1.508   4.983  17.705  0.00  0.00    +0.000 OA
ATOM     18  C   UNL     1       2.282   5.066  18.660  0.00  0.00    +0.000 C 
BRANCH  18  19
ATOM     19  C   UNL     1       2.241   4.059  19.754  0.00  0.00    +0.000 A 
ATOM     20  C   UNL     1       1.114   3.819  20.542  0.00  0.00    +0.000 A 
ATOM     21  C   UNL     1       1.142   2.829  21.533  0.00  0.00    +0.000 A 
ATOM     22  C   UNL     1       2.297   2.081  21.743  0.00  0.00    +0.000 A 
ATOM     23  C   UNL     1       3.435   2.328  20.979  0.00  0.00    +0.000 A 
ATOM     24  C   UNL     1       3.405   3.321  19.997  0.00  0.00    +0.000 A 
ENDBRANCH  18  19
ENDBRANCH   1  18
TORSDOF 4
ENDMDL
MODEL 6
REMARK VINA RESULT:      -7.4      2.150      5.684
REMARK  Name = 
REMARK  4 active torsions:
REMARK  status: ('A' for Active; 'I' for Inactive)
REMARK    1  A    between atoms: C_2  and  C_3
REMARK    2  A    between atoms: C_2  and  C_9
REMARK    3  A    between atoms: C_9  and  C_10
REMARK    4  A    between atoms: C_9  and  N_16
REMARK                            x       y       z     vdW  Elec       q    Type
REMARK                         _______ _______ _______ _____ _____    ______ ____
ROOT
ATOM      1  C   UNL     1       2.521   5.853  18.653  0.00  0.00    +0.000 C 
ENDROOT
BRANCH   1   2
ATOM      2  N   UNL     1       2.066   6.995  19.498  0.00  0.00    +0.000 N 
ATOM      3  C   UNL     1       1.891   6.870  20.801  0.00  0.00    +0.000 A 
ATOM      4  S   UNL     1       0.939   8.144  21.417  0.00  0.00    +0.000 S 
ATOM      5  C   UNL     1       1.205   9.082  19.999  0.00  0.00    +0.000 A 
ATOM      6  C   UNL     1       0.866  10.429  19.782  0.00  0.00    +0.000 A 
ATOM      7  C   UNL     1       1.356  11.052  18.633  0.00  0.00    +0.000 A 
ATOM      8  C   UNL     1       2.092  10.324  17.704  0.00  0.00    +0.000 A 
ATOM      9  C   UNL     1       2.323   8.941  17.864  0.00  0.00    +0.000 A 
ATOM     10  C   UNL     1       1.889   8.311  19.053  0.00  0.00    +0.000 A 
ENDBRANCH   1   2
BRANCH   1  11
ATOM     11  C   UNL     1       1.955   4.503  19.143  0.00  0.00    +0.000 A 
ATOM     12  C   UNL     1       2.173   4.019  20.460  0.00  0.00    +0.000 A 
ATOM     13  C   UNL     1       1.733   2.744  20.843  0.00  0.00    +0.000 A 
ATOM     14  C   UNL     1       1.068   1.928  19.933  0.00  0.00    +0.000 A 
ATOM     15  C   UNL     1       0.815   2.398  18.649  0.00  0.00    +0.000 A 
ATOM     16  C   UNL     1       1.239   3.678  18.261  0.00  0.00    +0.000 A 
ENDBRANCH   1  11
BRANCH   1  18
ATOM     17  O   UNL     1       4.737   6.168  19.516  0.00  0.00    +0.000 OA
ATOM     18  C   UNL     1       4.040   5.859  18.548  0.00  0.00    +0.000 C 
BRANCH  18  19
ATOM     19  C   UNL     1       4.669   5.529  17.241  0.00  0.00    +0.000 A 
ATOM     20  C   UNL     1       4.959   6.478  16.260  0.00  0.00    +0.000 A 
ATOM     21  C   UNL     1       5.583   6.093  15.067  0.00  0.00    +0.000 A 
ATOM     22  C   UNL     1       5.913   4.758  14.847  0.00  0.00    +0.000 A 
ATOM     23  C   UNL     1       5.606   3.799  15.808  0.00  0.00    +0.000 A 
ATOM     24  C   UNL     1       4.977   4.185  16.995  0.00  0.00    +0.000 A 
ENDBRANCH  18  19
ENDBRANCH   1  18
TORSDOF 4
ENDMDL
MODEL 7
REMARK VINA RESULT:      -7.3      1.937      5.650
REMARK  Name = 
REMARK  4 active torsions:
REMARK  status: ('A' for Active; 'I' for Inactive)
REMARK    1  A    between atoms: C_2  and  C_3
REMARK    2  A    between atoms: C_2  and  C_9
REMARK    3  A    between atoms: C_9  and  C_10
REMARK    4  A    between atoms: C_9  and  N_16
REMARK                            x       y       z     vdW  Elec       q    Type
REMARK                         _______ _______ _______ _____ _____    ______ ____
ROOT
ATOM      1  C   UNL     1       3.095   5.611  18.259  0.00  0.00    +0.000 C 
ENDROOT
BRANCH   1   2
ATOM      2  N   UNL     1       2.485   6.585  19.211  0.00  0.00    +0.000 N 
ATOM      3  C   UNL     1       2.322   6.298  20.491  0.00  0.00    +0.000 A 
ATOM      4  S   UNL     1       1.203   7.357  21.219  0.00  0.00    +0.000 S 
ATOM      5  C   UNL     1       1.345   8.470  19.914  0.00  0.00    +0.000 A 
ATOM      6  C   UNL     1       0.825   9.774  19.835  0.00  0.00    +0.000 A 
ATOM      7  C   UNL     1       1.231  10.577  18.767  0.00  0.00    +0.000 A 
ATOM      8  C   UNL     1       2.063  10.060  17.780  0.00  0.00    +0.000 A 
ATOM      9  C   UNL     1       2.481   8.712  17.798  0.00  0.00    +0.000 A 
ATOM     10  C   UNL     1       2.132   7.904  18.905  0.00  0.00    +0.000 A 
ENDBRANCH   1   2
BRANCH   1  11
ATOM     11  C   UNL     1       2.529   4.186  18.439  0.00  0.00    +0.000 A 
ATOM     12  C   UNL     1       1.138   3.907  18.389  0.00  0.00    +0.000 A 
ATOM     13  C   UNL     1       0.651   2.620  18.656  0.00  0.00    +0.000 A 
ATOM     14  C   UNL     1       1.528   1.588  18.973  0.00  0.00    +0.000 A 
ATOM     15  C   UNL     1       2.897   1.834  18.992  0.00  0.00    +0.000 A 
ATOM     16  C   UNL     1       3.395   3.116  18.713  0.00  0.00    +0.000 A 
ENDBRANCH   1  11
BRANCH   1  18
ATOM     17  O   UNL     1       5.160   6.003  19.417  0.00  0.00    +0.000 OA
ATOM     18  C   UNL     1       4.613   5.667  18.365  0.00  0.00    +0.000 C 
BRANCH  18  19
ATOM     19  C   UNL     1       5.427   5.352  17.160  0.00  0.00    +0.000 A 
ATOM     20  C   UNL     1       4.959   5.493  15.852  0.00  0.00    +0.000 A 
ATOM     21  C   UNL     1       5.797   5.207  14.768  0.00  0.00    +0.000 A 
ATOM     22  C   UNL     1       7.102   4.773  14.986  0.00  0.00    +0.000 A 
ATOM     23  C   UNL     1       7.572   4.606  16.286  0.00  0.00    +0.000 A 
ATOM     24  C   UNL     1       6.730   4.885  17.366  0.00  0.00    +0.000 A 
ENDBRANCH  18  19
ENDBRANCH   1  18
TORSDOF 4
ENDMDL
MODEL 8
REMARK VINA RESULT:      -7.3      1.525      2.151
REMARK  Name = 
REMARK  4 active torsions:
REMARK  status: ('A' for Active; 'I' for Inactive)
REMARK    1  A    between atoms: C_2  and  C_3
REMARK    2  A    between atoms: C_2  and  C_9
REMARK    3  A    between atoms: C_9  and  C_10
REMARK    4  A    between atoms: C_9  and  N_16
REMARK                            x       y       z     vdW  Elec       q    Type
REMARK                         _______ _______ _______ _____ _____    ______ ____
ROOT
ATOM      1  C   UNL     1       3.000   6.624  19.023  0.00  0.00    +0.000 C 
ENDROOT
BRANCH   1   2
ATOM      2  N   UNL     1       4.079   6.543  17.995  0.00  0.00    +0.000 N 
ATOM      3  C   UNL     1       4.003   7.204  16.854  0.00  0.00    +0.000 A 
ATOM      4  S   UNL     1       5.095   6.573  15.707  0.00  0.00    +0.000 S 
ATOM      5  C   UNL     1       5.977   5.754  16.937  0.00  0.00    +0.000 A 
ATOM      6  C   UNL     1       7.212   5.094  16.816  0.00  0.00    +0.000 A 
ATOM      7  C   UNL     1       7.847   4.671  17.985  0.00  0.00    +0.000 A 
ATOM      8  C   UNL     1       7.226   4.839  19.218  0.00  0.00    +0.000 A 
ATOM      9  C   UNL     1       5.930   5.389  19.323  0.00  0.00    +0.000 A 
ATOM     10  C   UNL     1       5.301   5.881  18.155  0.00  0.00    +0.000 A 
ENDBRANCH   1   2
BRANCH   1  11
ATOM     11  C   UNL     1       2.275   5.275  19.216  0.00  0.00    +0.000 A 
ATOM     12  C   UNL     1       1.861   4.469  18.123  0.00  0.00    +0.000 A 
ATOM     13  C   UNL     1       1.117   3.300  18.330  0.00  0.00    +0.000 A 
ATOM     14  C   UNL     1       0.771   2.905  19.618  0.00  0.00    +0.000 A 
ATOM     15  C   UNL     1       1.198   3.663  20.704  0.00  0.00    +0.000 A 
ATOM     16  C   UNL     1       1.955   4.827  20.508  0.00  0.00    +0.000 A 
ENDBRANCH   1  11
BRANCH   1  18
ATOM     17  O   UNL     1       1.800   8.054  17.516  0.00  0.00    +0.000 OA
ATOM     18  C   UNL     1       2.050   7.767  18.687  0.00  0.00    +0.000 C 
BRANCH  18  19
ATOM     19  C   UNL     1       1.465   8.561  19.800  0.00  0.00    +0.000 A 
ATOM     20  C   UNL     1       1.545   8.189  21.142  0.00  0.00    +0.000 A 
ATOM     21  C   UNL     1       0.996   9.007  22.137  0.00  0.00    +0.000 A 
ATOM     22  C   UNL     1       0.360  10.197  21.794  0.00  0.00    +0.000 A 
ATOM     23  C   UNL     1       0.252  10.568  20.456  0.00  0.00    +0.000 A 
ATOM     24  C   UNL     1       0.795   9.744  19.465  0.00  0.00    +0.000 A 
ENDBRANCH  18  19
ENDBRANCH   1  18
TORSDOF 4
ENDMDL
MODEL 9
REMARK VINA RESULT:      -7.3      2.082      5.598
REMARK  Name = 
REMARK  4 active torsions:
REMARK  status: ('A' for Active; 'I' for Inactive)
REMARK    1  A    between atoms: C_2  and  C_3
REMARK    2  A    between atoms: C_2  and  C_9
REMARK    3  A    between atoms: C_9  and  C_10
REMARK    4  A    between atoms: C_9  and  N_16
REMARK                            x       y       z     vdW  Elec       q    Type
REMARK                         _______ _______ _______ _____ _____    ______ ____
ROOT
ATOM      1  C   UNL     1       2.912   5.801  18.466  0.00  0.00    +0.000 C 
ENDROOT
BRANCH   1   2
ATOM      2  N   UNL     1       2.342   6.848  19.363  0.00  0.00    +0.000 N 
ATOM      3  C   UNL     1       2.176   6.640  20.657  0.00  0.00    +0.000 A 
ATOM      4  S   UNL     1       1.099   7.778  21.328  0.00  0.00    +0.000 S 
ATOM      5  C   UNL     1       1.273   8.809  19.961  0.00  0.00    +0.000 A 
ATOM      6  C   UNL     1       0.800  10.125  19.810  0.00  0.00    +0.000 A 
ATOM      7  C   UNL     1       1.229  10.851  18.697  0.00  0.00    +0.000 A 
ATOM      8  C   UNL     1       2.037  10.250  17.739  0.00  0.00    +0.000 A 
ATOM      9  C   UNL     1       2.406   8.891  17.831  0.00  0.00    +0.000 A 
ATOM     10  C   UNL     1       2.035   8.160  18.984  0.00  0.00    +0.000 A 
ENDBRANCH   1   2
BRANCH   1  11
ATOM     11  C   UNL     1       2.195   4.444  18.622  0.00  0.00    +0.000 A 
ATOM     12  C   UNL     1       1.255   4.194  19.657  0.00  0.00    +0.000 A 
ATOM     13  C   UNL     1       0.697   2.920  19.832  0.00  0.00    +0.000 A 
ATOM     14  C   UNL     1       1.056   1.873  18.989  0.00  0.00    +0.000 A 
ATOM     15  C   UNL     1       1.949   2.107  17.949  0.00  0.00    +0.000 A 
ATOM     16  C   UNL     1       2.501   3.382  17.756  0.00  0.00    +0.000 A 
ENDBRANCH   1  11
BRANCH   1  18
ATOM     17  O   UNL     1       4.913   5.888  19.786  0.00  0.00    +0.000 OA
ATOM     18  C   UNL     1       4.418   5.707  18.673  0.00  0.00    +0.000 C 
BRANCH  18  19
ATOM     19  C   UNL     1       5.287   5.434  17.497  0.00  0.00    +0.000 A 
ATOM     20  C   UNL     1       6.472   4.701  17.564  0.00  0.00    +0.000 A 
ATOM     21  C   UNL     1       7.220   4.458  16.405  0.00  0.00    +0.000 A 
ATOM     22  C   UNL     1       6.790   4.954  15.177  0.00  0.00    +0.000 A 
ATOM     23  C   UNL     1       5.622   5.708  15.101  0.00  0.00    +0.000 A 
ATOM     24  C   UNL     1       4.882   5.954  16.261  0.00  0.00    +0.000 A 
ENDBRANCH  18  19
ENDBRANCH   1  18
TORSDOF 4
ENDMDL
