MODEL 1
REMARK VINA RESULT:      -8.1      0.000      0.000
REMARK  Name = 
REMARK  4 active torsions:
REMARK  status: ('A' for Active; 'I' for Inactive)
REMARK    1  A    between atoms: C_1  and  C_2
REMARK    2  A    between atoms: N_4  and  C_5
REMARK    3  A    between atoms: C_16  and  N_17
REMARK    4  A    between atoms: C_18  and  C_19
REMARK                            x       y       z     vdW  Elec       q    Type
REMARK                         _______ _______ _______ _____ _____    ______ ____
ROOT
ATOM      1  C   UNL     1       3.862   4.506  18.271  0.00  0.00    +0.000 A 
ATOM      2  C   UNL     1       4.197   5.347  17.201  0.00  0.00    +0.000 A 
ATOM      3  C   UNL     1       3.765   6.685  17.158  0.00  0.00    +0.000 A 
ATOM      4  C   UNL     1       2.956   7.188  18.184  0.00  0.00    +0.000 A 
ATOM      5  C   UNL     1       2.686   6.373  19.277  0.00  0.00    +0.000 A 
ATOM      6  C   UNL     1       3.189   5.071  19.346  0.00  0.00    +0.000 A 
ATOM      7  C   UNL     1       1.818   6.832  20.367  0.00  0.00    +0.000 C 
ATOM      8  O   UNL     1       1.527   6.079  21.288  0.00  0.00    +0.000 OA
ATOM      9  C   UNL     1       1.260   8.188  20.315  0.00  0.00    +0.000 A 
ATOM     10  C   UNL     1       0.499   8.637  21.390  0.00  0.00    +0.000 A 
ATOM     11  C   UNL     1      -0.070   9.909  21.356  0.00  0.00    +0.000 A 
ATOM     12  C   UNL     1       0.037  10.715  20.220  0.00  0.00    +0.000 A 
ATOM     13  C   UNL     1       0.848  10.263  19.162  0.00  0.00    +0.000 A 
ATOM     14  C   UNL     1       1.478   9.008  19.211  0.00  0.00    +0.000 A 
ATOM     15  C   UNL     1       2.372   8.554  18.111  0.00  0.00    +0.000 C 
ATOM     16  O   UNL     1       2.619   9.285  17.160  0.00  0.00    +0.000 OA
ENDROOT
BRANCH   1  20
ATOM     17  C   UNL     1       1.920   2.216  18.325  0.00  0.00    +0.000 C 
ATOM     18  C   UNL     1       3.432   2.151  18.229  0.00  0.00    +0.000 C 
ATOM     19  N   UNL     1       3.970   0.894  18.157  0.00  0.00    +0.000 N 
ATOM     20  N   UNL     1       4.261   3.160  18.230  0.00  0.00    +0.000 NA
ATOM     21  H   UNL     1       3.450   0.136  18.580  0.00  0.00    +0.000 HD
ATOM     22  H   UNL     1       4.968   0.875  18.336  0.00  0.00    +0.000 HD
ENDBRANCH   1  20
BRANCH  12  23
ATOM     23  N   UNL     1      -0.532  11.991  20.096  0.00  0.00    +0.000 NA
ATOM     24  C   UNL     1      -1.587  12.308  19.404  0.00  0.00    +0.000 C 
ATOM     25  C   UNL     1      -2.464  11.392  18.580  0.00  0.00    +0.000 C 
ATOM     26  N   UNL     1      -1.966  13.624  19.433  0.00  0.00    +0.000 N 
ATOM     27  H   UNL     1      -1.221  14.240  19.738  0.00  0.00    +0.000 HD
ATOM     28  H   UNL     1      -2.509  13.978  18.655  0.00  0.00    +0.000 HD
ENDBRANCH  12  23
TORSDOF 2
ENDMDL
MODEL 2
REMARK VINA RESULT:      -8.0      0.819      1.074
REMARK  Name = 
REMARK  4 active torsions:
REMARK  status: ('A' for Active; 'I' for Inactive)
REMARK    1  A    between atoms: C_1  and  C_2
REMARK    2  A    between atoms: N_4  and  C_5
REMARK    3  A    between atoms: C_16  and  N_17
REMARK    4  A    between atoms: C_18  and  C_19
REMARK                            x       y       z     vdW  Elec       q    Type
REMARK                         _______ _______ _______ _____ _____    ______ ____
ROOT
ATOM      1  C   UNL     1       3.910   4.624  18.677  0.00  0.00    +0.000 A 
ATOM      2  C   UNL     1       4.267   5.375  17.549  0.00  0.00    +0.000 A 
ATOM      3  C   UNL     1       3.796   6.687  17.363  0.00  0.00    +0.000 A 
ATOM      4  C   UNL     1       2.926   7.253  18.302  0.00  0.00    +0.000 A 
ATOM      5  C   UNL     1       2.632   6.532  19.454  0.00  0.00    +0.000 A 
ATOM      6  C   UNL     1       3.172   5.261  19.665  0.00  0.00    +0.000 A 
ATOM      7  C   UNL     1       1.701   7.058  20.458  0.00  0.00    +0.000 C 
ATOM      8  O   UNL     1       1.392   6.383  21.433  0.00  0.00    +0.000 OA
ATOM      9  C   UNL     1       1.103   8.383  20.256  0.00  0.00    +0.000 A 
ATOM     10  C   UNL     1       0.280   8.902  21.251  0.00  0.00    +0.000 A 
ATOM     11  C   UNL     1      -0.326  10.144  21.075  0.00  0.00    +0.000 A 
ATOM     12  C   UNL     1      -0.192  10.845  19.874  0.00  0.00    +0.000 A 
ATOM     13  C   UNL     1       0.680  10.328  18.898  0.00  0.00    +0.000 A 
ATOM     14  C   UNL     1       1.346   9.106  19.091  0.00  0.00    +0.000 A 
ATOM     15  C   UNL     1       2.304   8.584  18.077  0.00  0.00    +0.000 C 
ATOM     16  O   UNL     1       2.570   9.233  17.073  0.00  0.00    +0.000 OA
ENDROOT
BRANCH   1  20
ATOM     17  C   UNL     1       2.260   2.273  17.802  0.00  0.00    +0.000 C 
ATOM     18  C   UNL     1       3.660   2.261  18.383  0.00  0.00    +0.000 C 
ATOM     19  N   UNL     1       4.237   1.027  18.521  0.00  0.00    +0.000 N 
ATOM     20  N   UNL     1       4.352   3.294  18.779  0.00  0.00    +0.000 NA
ATOM     21  H   UNL     1       3.621   0.233  18.649  0.00  0.00    +0.000 HD
ATOM     22  H   UNL     1       5.053   1.030  19.122  0.00  0.00    +0.000 HD
ENDBRANCH   1  20
BRANCH  12  23
ATOM     23  N   UNL     1      -0.795  12.084  19.608  0.00  0.00    +0.000 NA
ATOM     24  C   UNL     1      -0.345  13.256  19.948  0.00  0.00    +0.000 C 
ATOM     25  C   UNL     1       0.932  13.577  20.694  0.00  0.00    +0.000 C 
ATOM     26  N   UNL     1      -1.101  14.335  19.577  0.00  0.00    +0.000 N 
ATOM     27  H   UNL     1      -2.057  14.084  19.350  0.00  0.00    +0.000 HD
ATOM     28  H   UNL     1      -1.010  15.187  20.116  0.00  0.00    +0.000 HD
ENDBRANCH  12  23
TORSDOF 2
ENDMDL
MODEL 3
REMARK VINA RESULT:      -7.9      0.284      8.005
REMARK  Name = 
REMARK  4 active torsions:
REMARK  status: ('A' for Active; 'I' for Inactive)
REMARK    1  A    between atoms: C_1  and  C_2
REMARK    2  A    between atoms: N_4  and  C_5
REMARK    3  A    between atoms: C_16  and  N_17
REMARK    4  A    between atoms: C_18  and  C_19
REMARK                            x       y       z     vdW  Elec       q    Type
REMARK                         _______ _______ _______ _____ _____    ______ ____
ROOT
ATOM      1  C   UNL     1       0.283  10.633  20.044  0.00  0.00    +0.000 A 
ATOM      2  C   UNL     1       0.008   9.850  21.173  0.00  0.00    +0.000 A 
ATOM      3  C   UNL     1       0.557   8.563  21.323  0.00  0.00    +0.000 A 
ATOM      4  C   UNL     1       1.371   8.032  20.316  0.00  0.00    +0.000 A 
ATOM      5  C   UNL     1       1.699   8.840  19.232  0.00  0.00    +0.000 A 
ATOM      6  C   UNL     1       1.211  10.146  19.134  0.00  0.00    +0.000 A 
ATOM      7  C   UNL     1       2.519   8.329  18.129  0.00  0.00    +0.000 C 
ATOM      8  O   UNL     1       2.740   9.024  17.145  0.00  0.00    +0.000 OA
ATOM      9  C   UNL     1       3.031   6.956  18.194  0.00  0.00    +0.000 A 
ATOM     10  C   UNL     1       3.869   6.508  17.177  0.00  0.00    +0.000 A 
ATOM     11  C   UNL     1       4.346   5.199  17.195  0.00  0.00    +0.000 A 
ATOM     12  C   UNL     1       3.928   4.294  18.174  0.00  0.00    +0.000 A 
ATOM     13  C   UNL     1       3.118   4.777  19.219  0.00  0.00    +0.000 A 
ATOM     14  C   UNL     1       2.681   6.112  19.245  0.00  0.00    +0.000 A 
ATOM     15  C   UNL     1       1.863   6.631  20.375  0.00  0.00    +0.000 C 
ATOM     16  O   UNL     1       1.593   5.918  21.334  0.00  0.00    +0.000 OA
ENDROOT
BRANCH   1  20
ATOM     17  C   UNL     1      -2.264  11.033  18.503  0.00  0.00    +0.000 C 
ATOM     18  C   UNL     1      -1.466  12.072  19.265  0.00  0.00    +0.000 C 
ATOM     19  N   UNL     1      -1.973  13.343  19.247  0.00  0.00    +0.000 N 
ATOM     20  N   UNL     1      -0.347  11.882  19.911  0.00  0.00    +0.000 NA
ATOM     21  H   UNL     1      -2.537  13.612  18.450  0.00  0.00    +0.000 HD
ATOM     22  H   UNL     1      -1.309  14.045  19.552  0.00  0.00    +0.000 HD
ENDBRANCH   1  20
BRANCH  12  23
ATOM     23  N   UNL     1       4.338   2.954  18.243  0.00  0.00    +0.000 NA
ATOM     24  C   UNL     1       3.571   1.904  18.211  0.00  0.00    +0.000 C 
ATOM     25  C   UNL     1       2.064   1.861  18.078  0.00  0.00    +0.000 C 
ATOM     26  N   UNL     1       4.194   0.687  18.288  0.00  0.00    +0.000 N 
ATOM     27  H   UNL     1       5.135   0.751  18.660  0.00  0.00    +0.000 HD
ATOM     28  H   UNL     1       3.659  -0.098  18.639  0.00  0.00    +0.000 HD
ENDBRANCH  12  23
TORSDOF 2
ENDMDL
MODEL 4
REMARK VINA RESULT:      -7.7      0.894      8.165
REMARK  Name = 
REMARK  4 active torsions:
REMARK  status: ('A' for Active; 'I' for Inactive)
REMARK    1  A    between atoms: C_1  and  C_2
REMARK    2  A    between atoms: N_4  and  C_5
REMARK    3  A    between atoms: C_16  and  N_17
REMARK    4  A    between atoms: C_18  and  C_19
REMARK                            x       y       z     vdW  Elec       q    Type
REMARK                         _______ _______ _______ _____ _____    ______ ____
ROOT
ATOM      1  C   UNL     1      -0.141  11.058  19.725  0.00  0.00    +0.000 A 
ATOM      2  C   UNL     1      -0.446  10.357  20.900  0.00  0.00    +0.000 A 
ATOM      3  C   UNL     1       0.142   9.111  21.183  0.00  0.00    +0.000 A 
ATOM      4  C   UNL     1       1.027   8.534  20.266  0.00  0.00    +0.000 A 
ATOM      5  C   UNL     1       1.382   9.264  19.136  0.00  0.00    +0.000 A 
ATOM      6  C   UNL     1       0.853  10.537  18.906  0.00  0.00    +0.000 A 
ATOM      7  C   UNL     1       2.278   8.700  18.122  0.00  0.00    +0.000 C 
ATOM      8  O   UNL     1       2.525   9.322  17.096  0.00  0.00    +0.000 OA
ATOM      9  C   UNL     1       2.837   7.359  18.326  0.00  0.00    +0.000 A 
ATOM     10  C   UNL     1       3.744   6.865  17.393  0.00  0.00    +0.000 A 
ATOM     11  C   UNL     1       4.267   5.583  17.544  0.00  0.00    +0.000 A 
ATOM     12  C   UNL     1       3.831   4.744  18.573  0.00  0.00    +0.000 A 
ATOM     13  C   UNL     1       2.950   5.276  19.532  0.00  0.00    +0.000 A 
ATOM     14  C   UNL     1       2.463   6.589  19.425  0.00  0.00    +0.000 A 
ATOM     15  C   UNL     1       1.567   7.164  20.466  0.00  0.00    +0.000 C 
ATOM     16  O   UNL     1       1.273   6.521  21.466  0.00  0.00    +0.000 OA
ENDROOT
BRANCH   1  20
ATOM     17  C   UNL     1       0.908  13.739  20.578  0.00  0.00    +0.000 C 
ATOM     18  C   UNL     1      -0.358  13.441  19.800  0.00  0.00    +0.000 C 
ATOM     19  N   UNL     1      -1.108  14.530  19.444  0.00  0.00    +0.000 N 
ATOM     20  N   UNL     1      -0.808  12.264  19.458  0.00  0.00    +0.000 NA
ATOM     21  H   UNL     1      -1.049  15.353  20.031  0.00  0.00    +0.000 HD
ATOM     22  H   UNL     1      -2.047  14.290  19.146  0.00  0.00    +0.000 HD
ENDBRANCH   1  20
BRANCH  12  23
ATOM     23  N   UNL     1       4.287   3.432  18.773  0.00  0.00    +0.000 NA
ATOM     24  C   UNL     1       3.664   2.335  18.453  0.00  0.00    +0.000 C 
ATOM     25  C   UNL     1       2.315   2.199  17.780  0.00  0.00    +0.000 C 
ATOM     26  N   UNL     1       4.304   1.160  18.739  0.00  0.00    +0.000 N 
ATOM     27  H   UNL     1       5.039   1.272  19.429  0.00  0.00    +0.000 HD
ATOM     28  H   UNL     1       3.739   0.330  18.863  0.00  0.00    +0.000 HD
ENDBRANCH  12  23
TORSDOF 2
ENDMDL
MODEL 5
REMARK VINA RESULT:      -7.6      3.253      8.180
REMARK  Name = 
REMARK  4 active torsions:
REMARK  status: ('A' for Active; 'I' for Inactive)
REMARK    1  A    between atoms: C_1  and  C_2
REMARK    2  A    between atoms: N_4  and  C_5
REMARK    3  A    between atoms: C_16  and  N_17
REMARK    4  A    between atoms: C_18  and  C_19
REMARK                            x       y       z     vdW  Elec       q    Type
REMARK                         _______ _______ _______ _____ _____    ______ ____
ROOT
ATOM      1  C   UNL     1       1.756   6.429  20.490  0.00  0.00    +0.000 A 
ATOM      2  C   UNL     1       1.646   5.038  20.621  0.00  0.00    +0.000 A 
ATOM      3  C   UNL     1       2.330   4.164  19.757  0.00  0.00    +0.000 A 
ATOM      4  C   UNL     1       3.114   4.683  18.720  0.00  0.00    +0.000 A 
ATOM      5  C   UNL     1       3.278   6.062  18.637  0.00  0.00    +0.000 A 
ATOM      6  C   UNL     1       2.658   6.916  19.553  0.00  0.00    +0.000 A 
ATOM      7  C   UNL     1       4.060   6.667  17.555  0.00  0.00    +0.000 C 
ATOM      8  O   UNL     1       4.136   7.885  17.449  0.00  0.00    +0.000 OA
ATOM      9  C   UNL     1       4.709   5.797  16.567  0.00  0.00    +0.000 A 
ATOM     10  C   UNL     1       5.509   6.380  15.589  0.00  0.00    +0.000 A 
ATOM     11  C   UNL     1       6.114   5.582  14.619  0.00  0.00    +0.000 A 
ATOM     12  C   UNL     1       5.862   4.209  14.558  0.00  0.00    +0.000 A 
ATOM     13  C   UNL     1       5.089   3.631  15.582  0.00  0.00    +0.000 A 
ATOM     14  C   UNL     1       4.525   4.417  16.601  0.00  0.00    +0.000 A 
ATOM     15  C   UNL     1       3.747   3.797  17.708  0.00  0.00    +0.000 C 
ATOM     16  O   UNL     1       3.622   2.581  17.783  0.00  0.00    +0.000 OA
ENDROOT
BRANCH   1  20
ATOM     17  C   UNL     1       0.942   9.224  19.754  0.00  0.00    +0.000 C 
ATOM     18  C   UNL     1       0.614   8.464  21.024  0.00  0.00    +0.000 C 
ATOM     19  N   UNL     1      -0.147   9.138  21.941  0.00  0.00    +0.000 N 
ATOM     20  N   UNL     1       0.997   7.255  21.335  0.00  0.00    +0.000 NA
ATOM     21  H   UNL     1      -0.087  10.149  21.949  0.00  0.00    +0.000 HD
ATOM     22  H   UNL     1      -0.145   8.707  22.858  0.00  0.00    +0.000 HD
ENDBRANCH   1  20
BRANCH  12  23
ATOM     23  N   UNL     1       6.407   3.345  13.596  0.00  0.00    +0.000 NA
ATOM     24  C   UNL     1       5.881   3.027  12.449  0.00  0.00    +0.000 C 
ATOM     25  C   UNL     1       4.573   3.513  11.864  0.00  0.00    +0.000 C 
ATOM     26  N   UNL     1       6.597   2.164  11.664  0.00  0.00    +0.000 N 
ATOM     27  H   UNL     1       7.295   1.646  12.187  0.00  0.00    +0.000 HD
ATOM     28  H   UNL     1       6.092   1.613  10.983  0.00  0.00    +0.000 HD
ENDBRANCH  12  23
TORSDOF 2
ENDMDL
MODEL 6
REMARK VINA RESULT:      -7.6      2.394      8.743
REMARK  Name = 
REMARK  4 active torsions:
REMARK  status: ('A' for Active; 'I' for Inactive)
REMARK    1  A    between atoms: C_1  and  C_2
REMARK    2  A    between atoms: N_4  and  C_5
REMARK    3  A    between atoms: C_16  and  N_17
REMARK    4  A    between atoms: C_18  and  C_19
REMARK                            x       y       z     vdW  Elec       q    Type
REMARK                         _______ _______ _______ _____ _____    ______ ____
ROOT
ATOM      1  C   UNL     1      -2.404  12.470  21.885  0.00  0.00    +0.000 A 
ATOM      2  C   UNL     1      -1.953  11.817  23.040  0.00  0.00    +0.000 A 
ATOM      3  C   UNL     1      -0.950  10.833  22.982  0.00  0.00    +0.000 A 
ATOM      4  C   UNL     1      -0.405  10.468  21.745  0.00  0.00    +0.000 A 
ATOM      5  C   UNL     1      -0.803  11.168  20.611  0.00  0.00    +0.000 A 
ATOM      6  C   UNL     1      -1.743  12.199  20.695  0.00  0.00    +0.000 A 
ATOM      7  C   UNL     1      -0.293  10.810  19.284  0.00  0.00    +0.000 C 
ATOM      8  O   UNL     1      -0.707  11.383  18.283  0.00  0.00    +0.000 OA
ATOM      9  C   UNL     1       0.681   9.719  19.161  0.00  0.00    +0.000 A 
ATOM     10  C   UNL     1       1.213   9.438  17.906  0.00  0.00    +0.000 A 
ATOM     11  C   UNL     1       2.117   8.389  17.753  0.00  0.00    +0.000 A 
ATOM     12  C   UNL     1       2.437   7.553  18.825  0.00  0.00    +0.000 A 
ATOM     13  C   UNL     1       1.926   7.880  20.095  0.00  0.00    +0.000 A 
ATOM     14  C   UNL     1       1.062   8.974  20.274  0.00  0.00    +0.000 A 
ATOM     15  C   UNL     1       0.561   9.345  21.626  0.00  0.00    +0.000 C 
ATOM     16  O   UNL     1       0.930   8.734  22.621  0.00  0.00    +0.000 OA
ENDROOT
BRANCH   1  20
ATOM     17  C   UNL     1      -1.982  15.377  22.509  0.00  0.00    +0.000 C 
ATOM     18  C   UNL     1      -3.293  14.665  22.239  0.00  0.00    +0.000 C 
ATOM     19  N   UNL     1      -4.416  15.447  22.284  0.00  0.00    +0.000 N 
ATOM     20  N   UNL     1      -3.457  13.393  21.991  0.00  0.00    +0.000 NA
ATOM     21  H   UNL     1      -4.391  16.270  22.874  0.00  0.00    +0.000 HD
ATOM     22  H   UNL     1      -5.275  14.912  22.339  0.00  0.00    +0.000 HD
ENDBRANCH   1  20
BRANCH  12  23
ATOM     23  N   UNL     1       3.313   6.460  18.745  0.00  0.00    +0.000 NA
ATOM     24  C   UNL     1       3.017   5.254  18.357  0.00  0.00    +0.000 C 
ATOM     25  C   UNL     1       1.675   4.735  17.888  0.00  0.00    +0.000 C 
ATOM     26  N   UNL     1       4.039   4.342  18.354  0.00  0.00    +0.000 N 
ATOM     27  H   UNL     1       4.822   4.630  18.931  0.00  0.00    +0.000 HD
ATOM     28  H   UNL     1       3.800   3.362  18.432  0.00  0.00    +0.000 HD
ENDBRANCH  12  23
TORSDOF 2
ENDMDL
MODEL 7
REMARK VINA RESULT:      -7.5      2.431      8.682
REMARK  Name = 
REMARK  4 active torsions:
REMARK  status: ('A' for Active; 'I' for Inactive)
REMARK    1  A    between atoms: C_1  and  C_2
REMARK    2  A    between atoms: N_4  and  C_5
REMARK    3  A    between atoms: C_16  and  N_17
REMARK    4  A    between atoms: C_18  and  C_19
REMARK                            x       y       z     vdW  Elec       q    Type
REMARK                         _______ _______ _______ _____ _____    ______ ____
ROOT
ATOM      1  C   UNL     1      -2.614  12.852  21.636  0.00  0.00    +0.000 A 
ATOM      2  C   UNL     1      -2.282  12.257  22.860  0.00  0.00    +0.000 A 
ATOM      3  C   UNL     1      -1.316  11.238  22.942  0.00  0.00    +0.000 A 
ATOM      4  C   UNL     1      -0.690  10.778  21.778  0.00  0.00    +0.000 A 
ATOM      5  C   UNL     1      -0.969  11.419  20.576  0.00  0.00    +0.000 A 
ATOM      6  C   UNL     1      -1.872  12.485  20.521  0.00  0.00    +0.000 A 
ATOM      7  C   UNL     1      -0.371  10.962  19.318  0.00  0.00    +0.000 C 
ATOM      8  O   UNL     1      -0.681  11.487  18.255  0.00  0.00    +0.000 OA
ATOM      9  C   UNL     1       0.567   9.834  19.339  0.00  0.00    +0.000 A 
ATOM     10  C   UNL     1       1.185   9.458  18.150  0.00  0.00    +0.000 A 
ATOM     11  C   UNL     1       2.057   8.371  18.134  0.00  0.00    +0.000 A 
ATOM     12  C   UNL     1       2.258   7.592  19.276  0.00  0.00    +0.000 A 
ATOM     13  C   UNL     1       1.662   8.015  20.479  0.00  0.00    +0.000 A 
ATOM     14  C   UNL     1       0.830   9.146  20.522  0.00  0.00    +0.000 A 
ATOM     15  C   UNL     1       0.238   9.617  21.804  0.00  0.00    +0.000 C 
ATOM     16  O   UNL     1       0.503   9.058  22.860  0.00  0.00    +0.000 OA
ENDROOT
BRANCH   1  20
ATOM     17  C   UNL     1      -5.437  12.225  20.826  0.00  0.00    +0.000 C 
ATOM     18  C   UNL     1      -4.873  13.559  21.274  0.00  0.00    +0.000 C 
ATOM     19  N   UNL     1      -5.763  14.598  21.314  0.00  0.00    +0.000 N 
ATOM     20  N   UNL     1      -3.636  13.816  21.601  0.00  0.00    +0.000 NA
ATOM     21  H   UNL     1      -6.556  14.562  20.685  0.00  0.00    +0.000 HD
ATOM     22  H   UNL     1      -5.317  15.506  21.380  0.00  0.00    +0.000 HD
ENDBRANCH   1  20
BRANCH  12  23
ATOM     23  N   UNL     1       3.094   6.467  19.332  0.00  0.00    +0.000 NA
ATOM     24  C   UNL     1       2.880   5.311  18.774  0.00  0.00    +0.000 C 
ATOM     25  C   UNL     1       1.699   4.898  17.923  0.00  0.00    +0.000 C 
ATOM     26  N   UNL     1       3.841   4.354  18.959  0.00  0.00    +0.000 N 
ATOM     27  H   UNL     1       4.449   4.556  19.745  0.00  0.00    +0.000 HD
ATOM     28  H   UNL     1       3.565   3.383  18.883  0.00  0.00    +0.000 HD
ENDBRANCH  12  23
TORSDOF 2
ENDMDL
MODEL 8
REMARK VINA RESULT:      -7.5      2.039      3.627
REMARK  Name = 
REMARK  4 active torsions:
REMARK  status: ('A' for Active; 'I' for Inactive)
REMARK    1  A    between atoms: C_1  and  C_2
REMARK    2  A    between atoms: N_4  and  C_5
REMARK    3  A    between atoms: C_16  and  N_17
REMARK    4  A    between atoms: C_18  and  C_19
REMARK                            x       y       z     vdW  Elec       q    Type
REMARK                         _______ _______ _______ _____ _____    ______ ____
ROOT
ATOM      1  C   UNL     1       4.250   6.143  17.675  0.00  0.00    +0.000 A 
ATOM      2  C   UNL     1       3.937   5.410  18.828  0.00  0.00    +0.000 A 
ATOM      3  C   UNL     1       2.994   5.879  19.760  0.00  0.00    +0.000 A 
ATOM      4  C   UNL     1       2.372   7.116  19.558  0.00  0.00    +0.000 A 
ATOM      5  C   UNL     1       2.631   7.806  18.379  0.00  0.00    +0.000 A 
ATOM      6  C   UNL     1       3.510   7.290  17.422  0.00  0.00    +0.000 A 
ATOM      7  C   UNL     1       2.036   9.121  18.125  0.00  0.00    +0.000 C 
ATOM      8  O   UNL     1       2.330   9.753  17.117  0.00  0.00    +0.000 OA
ATOM      9  C   UNL     1       1.123   9.698  19.118  0.00  0.00    +0.000 A 
ATOM     10  C   UNL     1       0.507  10.913  18.832  0.00  0.00    +0.000 A 
ATOM     11  C   UNL     1      -0.341  11.500  19.769  0.00  0.00    +0.000 A 
ATOM     12  C   UNL     1      -0.519  10.933  21.034  0.00  0.00    +0.000 A 
ATOM     13  C   UNL     1       0.074   9.682  21.287  0.00  0.00    +0.000 A 
ATOM     14  C   UNL     1       0.881   9.050  20.327  0.00  0.00    +0.000 A 
ATOM     15  C   UNL     1       1.469   7.706  20.582  0.00  0.00    +0.000 C 
ATOM     16  O   UNL     1       1.222   7.098  21.616  0.00  0.00    +0.000 OA
ENDROOT
BRANCH   1  20
ATOM     17  C   UNL     1       7.022   7.294  17.572  0.00  0.00    +0.000 C 
ATOM     18  C   UNL     1       6.466   6.134  16.770  0.00  0.00    +0.000 C 
ATOM     19  N   UNL     1       7.339   5.543  15.896  0.00  0.00    +0.000 N 
ATOM     20  N   UNL     1       5.250   5.663  16.813  0.00  0.00    +0.000 NA
ATOM     21  H   UNL     1       8.088   6.114  15.523  0.00  0.00    +0.000 HD
ATOM     22  H   UNL     1       6.883   4.946  15.216  0.00  0.00    +0.000 HD
ENDBRANCH   1  20
BRANCH  12  23
ATOM     23  N   UNL     1      -1.330  11.478  22.040  0.00  0.00    +0.000 NA
ATOM     24  C   UNL     1      -1.217  12.658  22.576  0.00  0.00    +0.000 C 
ATOM     25  C   UNL     1      -0.204  13.733  22.244  0.00  0.00    +0.000 C 
ATOM     26  N   UNL     1      -2.128  12.982  23.545  0.00  0.00    +0.000 N 
ATOM     27  H   UNL     1      -2.588  12.169  23.938  0.00  0.00    +0.000 HD
ATOM     28  H   UNL     1      -1.868  13.684  24.225  0.00  0.00    +0.000 HD
ENDBRANCH  12  23
TORSDOF 2
ENDMDL
MODEL 9
REMARK VINA RESULT:      -7.5      1.169      7.701
REMARK  Name = 
REMARK  4 active torsions:
REMARK  status: ('A' for Active; 'I' for Inactive)
REMARK    1  A    between atoms: C_1  and  C_2
REMARK    2  A    between atoms: N_4  and  C_5
REMARK    3  A    between atoms: C_16  and  N_17
REMARK    4  A    between atoms: C_18  and  C_19
REMARK                            x       y       z     vdW  Elec       q    Type
REMARK                         _______ _______ _______ _____ _____    ______ ____
ROOT
ATOM      1  C   UNL     1       0.978  11.254  19.249  0.00  0.00    +0.000 A 
ATOM      2  C   UNL     1       1.738  11.131  18.077  0.00  0.00    +0.000 A 
ATOM      3  C   UNL     1       2.308   9.902  17.700  0.00  0.00    +0.000 A 
ATOM      4  C   UNL     1       2.146   8.780  18.519  0.00  0.00    +0.000 A 
ATOM      5  C   UNL     1       1.333   8.888  19.642  0.00  0.00    +0.000 A 
ATOM      6  C   UNL     1       0.706  10.095  19.963  0.00  0.00    +0.000 A 
ATOM      7  C   UNL     1       1.152   7.757  20.557  0.00  0.00    +0.000 C 
ATOM      8  O   UNL     1       0.494   7.885  21.582  0.00  0.00    +0.000 OA
ATOM      9  C   UNL     1       1.812   6.481  20.258  0.00  0.00    +0.000 A 
ATOM     10  C   UNL     1       1.573   5.394  21.093  0.00  0.00    +0.000 A 
ATOM     11  C   UNL     1       2.209   4.178  20.852  0.00  0.00    +0.000 A 
ATOM     12  C   UNL     1       3.156   4.051  19.832  0.00  0.00    +0.000 A 
ATOM     13  C   UNL     1       3.349   5.146  18.969  0.00  0.00    +0.000 A 
ATOM     14  C   UNL     1       2.667   6.358  19.165  0.00  0.00    +0.000 A 
ATOM     15  C   UNL     1       2.840   7.498  18.224  0.00  0.00    +0.000 C 
ATOM     16  O   UNL     1       3.544   7.389  17.228  0.00  0.00    +0.000 OA
ENDROOT
BRANCH   1  20
ATOM     17  C   UNL     1      -1.693  12.304  18.365  0.00  0.00    +0.000 C 
ATOM     18  C   UNL     1      -0.677  12.984  19.260  0.00  0.00    +0.000 C 
ATOM     19  N   UNL     1      -1.026  14.226  19.720  0.00  0.00    +0.000 N 
ATOM     20  N   UNL     1       0.490  12.520  19.615  0.00  0.00    +0.000 NA
ATOM     21  H   UNL     1      -1.659  14.776  19.152  0.00  0.00    +0.000 HD
ATOM     22  H   UNL     1      -0.245  14.745  20.106  0.00  0.00    +0.000 HD
ENDBRANCH   1  20
BRANCH  12  23
ATOM     23  N   UNL     1       3.860   2.872  19.546  0.00  0.00    +0.000 NA
ATOM     24  C   UNL     1       3.515   1.946  18.700  0.00  0.00    +0.000 C 
ATOM     25  C   UNL     1       2.290   1.913  17.812  0.00  0.00    +0.000 C 
ATOM     26  N   UNL     1       4.363   0.877  18.580  0.00  0.00    +0.000 N 
ATOM     27  H   UNL     1       4.994   0.787  19.369  0.00  0.00    +0.000 HD
ATOM     28  H   UNL     1       3.978   0.001  18.251  0.00  0.00    +0.000 HD
ENDBRANCH  12  23
TORSDOF 2
ENDMDL
