MODEL 1
REMARK VINA RESULT:      -7.9      0.000      0.000
REMARK  Name = 
REMARK  17 active torsions:
REMARK  status: ('A' for Active; 'I' for Inactive)
REMARK    1  A    between atoms: C_1  and  C_2
REMARK    2  A    between atoms: C_2  and  C_3
REMARK    3  A    between atoms: C_3  and  C_4
REMARK    4  A    between atoms: C_4  and  C_5
REMARK    5  A    between atoms: C_5  and  C_6
REMARK    6  A    between atoms: C_6  and  C_7
REMARK    7  A    between atoms: C_7  and  N_8
REMARK    8  A    between atoms: N_12  and  C_13
REMARK    9  A    between atoms: C_14  and  C_15
REMARK   10  A    between atoms: C_15  and  C_16
REMARK   11  A    between atoms: C_19  and  C_20
REMARK   12  A    between atoms: C_22  and  O_23
REMARK   13  A    between atoms: O_23  and  C_24
REMARK   14  A    between atoms: C_25  and  O_26
REMARK   15  A    between atoms: O_26  and  C_27
REMARK   16  A    between atoms: C_28  and  O_29
REMARK   17  A    between atoms: O_29  and  C_30
REMARK                            x       y       z     vdW  Elec       q    Type
REMARK                         _______ _______ _______ _____ _____    ______ ____
ROOT
ATOM      1  C   UNL     1       2.294   7.050  19.794  0.00  0.00    +0.000 A 
ATOM      2  C   UNL     1       2.160   7.919  18.701  0.00  0.00    +0.000 A 
ATOM      3  C   UNL     1       1.282   9.011  18.744  0.00  0.00    +0.000 A 
ATOM      4  C   UNL     1       0.487   9.277  19.871  0.00  0.00    +0.000 A 
ATOM      5  C   UNL     1       0.678   8.448  20.990  0.00  0.00    +0.000 A 
ATOM      6  C   UNL     1       1.571   7.351  20.954  0.00  0.00    +0.000 A 
ENDROOT
BRANCH   4   7
ATOM      7  C   UNL     1      -0.512  10.378  19.812  0.00  0.00    +0.000 A 
ATOM      8  C   UNL     1      -0.722  11.192  20.942  0.00  0.00    +0.000 A 
ATOM      9  C   UNL     1      -1.752  12.135  21.003  0.00  0.00    +0.000 A 
ATOM     10  C   UNL     1      -2.582  12.327  19.882  0.00  0.00    +0.000 A 
ATOM     11  C   UNL     1      -2.370  11.557  18.718  0.00  0.00    +0.000 A 
ATOM     12  C   UNL     1      -1.328  10.608  18.695  0.00  0.00    +0.000 A 
BRANCH   9  13
ATOM     13  O   UNL     1      -2.041  12.872  22.129  0.00  0.00    +0.000 OA
ATOM     14  C   UNL     1      -2.563  12.166  23.250  0.00  0.00    +0.000 C 
ENDBRANCH   9  13
BRANCH  10  15
ATOM     15  O   UNL     1      -3.607  13.231  20.063  0.00  0.00    +0.000 OA
ATOM     16  C   UNL     1      -4.902  12.698  20.301  0.00  0.00    +0.000 C 
ENDBRANCH  10  15
BRANCH  11  17
ATOM     17  O   UNL     1      -3.231  11.746  17.666  0.00  0.00    +0.000 OA
ATOM     18  C   UNL     1      -2.904  11.150  16.419  0.00  0.00    +0.000 C 
ENDBRANCH  11  17
ENDBRANCH   4   7
BRANCH   1  19
ATOM     19  C   UNL     1       3.093   5.767  19.612  0.00  0.00    +0.000 C 
BRANCH  19  26
ATOM     20  N   UNL     1       3.415   3.370  17.506  0.00  0.00    +0.000 N 
ATOM     21  C   UNL     1       4.088   2.352  18.306  0.00  0.00    +0.000 C 
ATOM     22  C   UNL     1       4.072   2.539  19.829  0.00  0.00    +0.000 C 
ATOM     23  O   UNL     1       4.787   1.855  20.562  0.00  0.00    +0.000 OA
ATOM     24  N   UNL     1       3.032   3.320  20.306  0.00  0.00    +0.000 N 
ATOM     25  C   UNL     1       2.558   3.162  21.670  0.00  0.00    +0.000 C 
ATOM     26  C   UNL     1       2.426   4.369  19.485  0.00  0.00    +0.000 C 
ATOM     27  C   UNL     1       2.292   4.010  18.004  0.00  0.00    +0.000 C 
ATOM     28  O   UNL     1       1.435   4.534  17.294  0.00  0.00    +0.000 OA
BRANCH  20  29
ATOM     29  C   UNL     1       4.005   3.855  16.272  0.00  0.00    +0.000 C 
BRANCH  29  30
ATOM     30  C   UNL     1       5.520   3.791  16.198  0.00  0.00    +0.000 C 
BRANCH  30  31
ATOM     31  C   UNL     1       6.070   5.121  15.669  0.00  0.00    +0.000 C 
BRANCH  31  32
ATOM     32  C   UNL     1       5.161   6.269  16.088  0.00  0.00    +0.000 C 
BRANCH  32  33
ATOM     33  C   UNL     1       5.731   7.079  17.251  0.00  0.00    +0.000 C 
BRANCH  33  35
ATOM     34  C   UNL     1       7.947   8.202  17.731  0.00  0.00    +0.000 C 
ATOM     35  C   UNL     1       7.252   6.928  17.288  0.00  0.00    +0.000 C 
ENDBRANCH  33  35
ENDBRANCH  32  33
ENDBRANCH  31  32
ENDBRANCH  30  31
ENDBRANCH  29  30
ENDBRANCH  20  29
ENDBRANCH  19  26
ENDBRANCH   1  19
TORSDOF 12
ENDMDL
MODEL 2
REMARK VINA RESULT:      -7.7      1.617      2.044
REMARK  Name = 
REMARK  17 active torsions:
REMARK  status: ('A' for Active; 'I' for Inactive)
REMARK    1  A    between atoms: C_1  and  C_2
REMARK    2  A    between atoms: C_2  and  C_3
REMARK    3  A    between atoms: C_3  and  C_4
REMARK    4  A    between atoms: C_4  and  C_5
REMARK    5  A    between atoms: C_5  and  C_6
REMARK    6  A    between atoms: C_6  and  C_7
REMARK    7  A    between atoms: C_7  and  N_8
REMARK    8  A    between atoms: N_12  and  C_13
REMARK    9  A    between atoms: C_14  and  C_15
REMARK   10  A    between atoms: C_15  and  C_16
REMARK   11  A    between atoms: C_19  and  C_20
REMARK   12  A    between atoms: C_22  and  O_23
REMARK   13  A    between atoms: O_23  and  C_24
REMARK   14  A    between atoms: C_25  and  O_26
REMARK   15  A    between atoms: O_26  and  C_27
REMARK   16  A    between atoms: C_28  and  O_29
REMARK   17  A    between atoms: O_29  and  C_30
REMARK                            x       y       z     vdW  Elec       q    Type
REMARK                         _______ _______ _______ _____ _____    ______ ____
ROOT
ATOM      1  C   UNL     1       2.145   7.055  19.689  0.00  0.00    +0.000 A 
ATOM      2  C   UNL     1       1.512   7.353  20.904  0.00  0.00    +0.000 A 
ATOM      3  C   UNL     1       0.920   8.603  21.129  0.00  0.00    +0.000 A 
ATOM      4  C   UNL     1       0.947   9.620  20.159  0.00  0.00    +0.000 A 
ATOM      5  C   UNL     1       1.518   9.292  18.917  0.00  0.00    +0.000 A 
ATOM      6  C   UNL     1       2.107   8.028  18.683  0.00  0.00    +0.000 A 
ENDROOT
BRANCH   4   7
ATOM      7  C   UNL     1       0.408  10.964  20.500  0.00  0.00    +0.000 A 
ATOM      8  C   UNL     1      -0.177  11.182  21.761  0.00  0.00    +0.000 A 
ATOM      9  C   UNL     1      -0.840  12.371  22.083  0.00  0.00    +0.000 A 
ATOM     10  C   UNL     1      -0.883  13.415  21.140  0.00  0.00    +0.000 A 
ATOM     11  C   UNL     1      -0.268  13.244  19.881  0.00  0.00    +0.000 A 
ATOM     12  C   UNL     1       0.383  12.028  19.588  0.00  0.00    +0.000 A 
BRANCH   9  13
ATOM     13  O   UNL     1      -1.505  12.571  23.270  0.00  0.00    +0.000 OA
ATOM     14  C   UNL     1      -2.842  12.089  23.356  0.00  0.00    +0.000 C 
ENDBRANCH   9  13
BRANCH  10  15
ATOM     15  O   UNL     1      -1.614  14.518  21.525  0.00  0.00    +0.000 OA
ATOM     16  C   UNL     1      -0.890  15.621  22.051  0.00  0.00    +0.000 C 
ENDBRANCH  10  15
BRANCH  11  17
ATOM     17  O   UNL     1      -0.375  14.271  18.977  0.00  0.00    +0.000 OA
ATOM     18  C   UNL     1       0.761  15.097  18.767  0.00  0.00    +0.000 C 
ENDBRANCH  11  17
ENDBRANCH   4   7
BRANCH   1  19
ATOM     19  C   UNL     1       2.954   5.769  19.582  0.00  0.00    +0.000 C 
BRANCH  19  26
ATOM     20  N   UNL     1       3.347   3.273  17.607  0.00  0.00    +0.000 N 
ATOM     21  C   UNL     1       4.000   2.299  18.476  0.00  0.00    +0.000 C 
ATOM     22  C   UNL     1       3.937   2.561  19.987  0.00  0.00    +0.000 C 
ATOM     23  O   UNL     1       4.632   1.917  20.774  0.00  0.00    +0.000 OA
ATOM     24  N   UNL     1       2.881   3.359  20.393  0.00  0.00    +0.000 N 
ATOM     25  C   UNL     1       2.367   3.266  21.749  0.00  0.00    +0.000 C 
ATOM     26  C   UNL     1       2.296   4.364  19.504  0.00  0.00    +0.000 C 
ATOM     27  C   UNL     1       2.207   3.931  18.040  0.00  0.00    +0.000 C 
ATOM     28  O   UNL     1       1.370   4.415  17.279  0.00  0.00    +0.000 OA
BRANCH  20  29
ATOM     29  C   UNL     1       3.972   3.699  16.368  0.00  0.00    +0.000 C 
BRANCH  29  30
ATOM     30  C   UNL     1       5.205   4.572  16.520  0.00  0.00    +0.000 C 
BRANCH  30  31
ATOM     31  C   UNL     1       4.826   6.044  16.317  0.00  0.00    +0.000 C 
BRANCH  31  32
ATOM     32  C   UNL     1       5.698   6.937  17.191  0.00  0.00    +0.000 C 
BRANCH  32  33
ATOM     33  C   UNL     1       6.596   6.143  18.136  0.00  0.00    +0.000 C 
BRANCH  33  35
ATOM     34  C   UNL     1       7.902   8.268  17.712  0.00  0.00    +0.000 C 
ATOM     35  C   UNL     1       7.918   6.885  18.336  0.00  0.00    +0.000 C 
ENDBRANCH  33  35
ENDBRANCH  32  33
ENDBRANCH  31  32
ENDBRANCH  30  31
ENDBRANCH  29  30
ENDBRANCH  20  29
ENDBRANCH  19  26
ENDBRANCH   1  19
TORSDOF 12
ENDMDL
MODEL 3
REMARK VINA RESULT:      -7.6      1.689      2.519
REMARK  Name = 
REMARK  17 active torsions:
REMARK  status: ('A' for Active; 'I' for Inactive)
REMARK    1  A    between atoms: C_1  and  C_2
REMARK    2  A    between atoms: C_2  and  C_3
REMARK    3  A    between atoms: C_3  and  C_4
REMARK    4  A    between atoms: C_4  and  C_5
REMARK    5  A    between atoms: C_5  and  C_6
REMARK    6  A    between atoms: C_6  and  C_7
REMARK    7  A    between atoms: C_7  and  N_8
REMARK    8  A    between atoms: N_12  and  C_13
REMARK    9  A    between atoms: C_14  and  C_15
REMARK   10  A    between atoms: C_15  and  C_16
REMARK   11  A    between atoms: C_19  and  C_20
REMARK   12  A    between atoms: C_22  and  O_23
REMARK   13  A    between atoms: O_23  and  C_24
REMARK   14  A    between atoms: C_25  and  O_26
REMARK   15  A    between atoms: O_26  and  C_27
REMARK   16  A    between atoms: C_28  and  O_29
REMARK   17  A    between atoms: O_29  and  C_30
REMARK                            x       y       z     vdW  Elec       q    Type
REMARK                         _______ _______ _______ _____ _____    ______ ____
ROOT
ATOM      1  C   UNL     1       2.289   6.971  19.582  0.00  0.00    +0.000 A 
ATOM      2  C   UNL     1       1.609   7.410  20.728  0.00  0.00    +0.000 A 
ATOM      3  C   UNL     1       1.000   8.670  20.774  0.00  0.00    +0.000 A 
ATOM      4  C   UNL     1       1.053   9.558  19.686  0.00  0.00    +0.000 A 
ATOM      5  C   UNL     1       1.670   9.086  18.515  0.00  0.00    +0.000 A 
ATOM      6  C   UNL     1       2.278   7.810  18.462  0.00  0.00    +0.000 A 
ENDROOT
BRANCH   4   7
ATOM      7  C   UNL     1       0.491  10.928  19.837  0.00  0.00    +0.000 A 
ATOM      8  C   UNL     1      -0.904  11.110  19.875  0.00  0.00    +0.000 A 
ATOM      9  C   UNL     1      -1.494  12.378  19.856  0.00  0.00    +0.000 A 
ATOM     10  C   UNL     1      -0.674  13.522  19.854  0.00  0.00    +0.000 A 
ATOM     11  C   UNL     1       0.730  13.373  19.859  0.00  0.00    +0.000 A 
ATOM     12  C   UNL     1       1.290  12.080  19.868  0.00  0.00    +0.000 A 
BRANCH   9  13
ATOM     13  O   UNL     1      -2.853  12.581  19.792  0.00  0.00    +0.000 OA
ATOM     14  C   UNL     1      -3.568  11.879  18.781  0.00  0.00    +0.000 C 
ENDBRANCH   9  13
BRANCH  10  15
ATOM     15  O   UNL     1      -1.347  14.722  19.768  0.00  0.00    +0.000 OA
ATOM     16  C   UNL     1      -1.543  15.440  20.978  0.00  0.00    +0.000 C 
ENDBRANCH  10  15
BRANCH  11  17
ATOM     17  O   UNL     1       1.489  14.515  19.810  0.00  0.00    +0.000 OA
ATOM     18  C   UNL     1       2.901  14.384  19.898  0.00  0.00    +0.000 C 
ENDBRANCH  11  17
ENDBRANCH   4   7
BRANCH   1  19
ATOM     19  C   UNL     1       3.111   5.692  19.665  0.00  0.00    +0.000 C 
BRANCH  19  26
ATOM     20  N   UNL     1       3.693   3.212  17.716  0.00  0.00    +0.000 N 
ATOM     21  C   UNL     1       4.295   2.245  18.629  0.00  0.00    +0.000 C 
ATOM     22  C   UNL     1       4.115   2.499  20.132  0.00  0.00    +0.000 C 
ATOM     23  O   UNL     1       4.759   1.863  20.966  0.00  0.00    +0.000 OA
ATOM     24  N   UNL     1       3.018   3.277  20.460  0.00  0.00    +0.000 N 
ATOM     25  C   UNL     1       2.405   3.170  21.772  0.00  0.00    +0.000 C 
ATOM     26  C   UNL     1       2.485   4.276  19.533  0.00  0.00    +0.000 C 
ATOM     27  C   UNL     1       2.513   3.850  18.064  0.00  0.00    +0.000 C 
ATOM     28  O   UNL     1       1.727   4.323  17.245  0.00  0.00    +0.000 OA
BRANCH  20  29
ATOM     29  C   UNL     1       4.402   3.655  16.530  0.00  0.00    +0.000 C 
BRANCH  29  30
ATOM     30  C   UNL     1       4.897   5.090  16.556  0.00  0.00    +0.000 C 
BRANCH  30  31
ATOM     31  C   UNL     1       6.424   5.110  16.682  0.00  0.00    +0.000 C 
BRANCH  31  32
ATOM     32  C   UNL     1       6.832   5.061  18.150  0.00  0.00    +0.000 C 
BRANCH  32  33
ATOM     33  C   UNL     1       7.663   6.270  18.572  0.00  0.00    +0.000 C 
BRANCH  33  35
ATOM     34  C   UNL     1       8.208   8.664  17.962  0.00  0.00    +0.000 C 
ATOM     35  C   UNL     1       7.531   7.378  17.526  0.00  0.00    +0.000 C 
ENDBRANCH  33  35
ENDBRANCH  32  33
ENDBRANCH  31  32
ENDBRANCH  30  31
ENDBRANCH  29  30
ENDBRANCH  20  29
ENDBRANCH  19  26
ENDBRANCH   1  19
TORSDOF 12
ENDMDL
MODEL 4
REMARK VINA RESULT:      -7.6      2.086      2.765
REMARK  Name = 
REMARK  17 active torsions:
REMARK  status: ('A' for Active; 'I' for Inactive)
REMARK    1  A    between atoms: C_1  and  C_2
REMARK    2  A    between atoms: C_2  and  C_3
REMARK    3  A    between atoms: C_3  and  C_4
REMARK    4  A    between atoms: C_4  and  C_5
REMARK    5  A    between atoms: C_5  and  C_6
REMARK    6  A    between atoms: C_6  and  C_7
REMARK    7  A    between atoms: C_7  and  N_8
REMARK    8  A    between atoms: N_12  and  C_13
REMARK    9  A    between atoms: C_14  and  C_15
REMARK   10  A    between atoms: C_15  and  C_16
REMARK   11  A    between atoms: C_19  and  C_20
REMARK   12  A    between atoms: C_22  and  O_23
REMARK   13  A    between atoms: O_23  and  C_24
REMARK   14  A    between atoms: C_25  and  O_26
REMARK   15  A    between atoms: O_26  and  C_27
REMARK   16  A    between atoms: C_28  and  O_29
REMARK   17  A    between atoms: O_29  and  C_30
REMARK                            x       y       z     vdW  Elec       q    Type
REMARK                         _______ _______ _______ _____ _____    ______ ____
ROOT
ATOM      1  C   UNL     1       2.338   7.035  19.345  0.00  0.00    +0.000 A 
ATOM      2  C   UNL     1       1.639   7.664  20.385  0.00  0.00    +0.000 A 
ATOM      3  C   UNL     1       1.097   8.946  20.227  0.00  0.00    +0.000 A 
ATOM      4  C   UNL     1       1.241   9.668  19.030  0.00  0.00    +0.000 A 
ATOM      5  C   UNL     1       1.878   9.006  17.966  0.00  0.00    +0.000 A 
ATOM      6  C   UNL     1       2.418   7.708  18.119  0.00  0.00    +0.000 A 
ENDROOT
BRANCH   4   7
ATOM      7  C   UNL     1       0.749  11.071  18.962  0.00  0.00    +0.000 A 
ATOM      8  C   UNL     1       1.636  12.106  18.614  0.00  0.00    +0.000 A 
ATOM      9  C   UNL     1       1.277  13.455  18.688  0.00  0.00    +0.000 A 
ATOM     10  C   UNL     1      -0.033  13.803  19.068  0.00  0.00    +0.000 A 
ATOM     11  C   UNL     1      -0.961  12.785  19.382  0.00  0.00    +0.000 A 
ATOM     12  C   UNL     1      -0.560  11.436  19.307  0.00  0.00    +0.000 A 
BRANCH   9  13
ATOM     13  O   UNL     1       2.154  14.488  18.449  0.00  0.00    +0.000 OA
ATOM     14  C   UNL     1       3.534  14.156  18.341  0.00  0.00    +0.000 C 
ENDBRANCH   9  13
BRANCH  10  15
ATOM     15  O   UNL     1      -0.271  15.156  19.174  0.00  0.00    +0.000 OA
ATOM     16  C   UNL     1      -0.152  15.734  20.467  0.00  0.00    +0.000 C 
ENDBRANCH  10  15
BRANCH  11  17
ATOM     17  O   UNL     1      -2.212  13.172  19.792  0.00  0.00    +0.000 OA
ATOM     18  C   UNL     1      -2.587  12.903  21.136  0.00  0.00    +0.000 C 
ENDBRANCH  11  17
ENDBRANCH   4   7
BRANCH   1  19
ATOM     19  C   UNL     1       3.087   5.744  19.643  0.00  0.00    +0.000 C 
BRANCH  19  26
ATOM     20  N   UNL     1       3.555   3.208  17.736  0.00  0.00    +0.000 N 
ATOM     21  C   UNL     1       4.152   2.244  18.655  0.00  0.00    +0.000 C 
ATOM     22  C   UNL     1       4.014   2.534  20.156  0.00  0.00    +0.000 C 
ATOM     23  O   UNL     1       4.660   1.898  20.989  0.00  0.00    +0.000 OA
ATOM     24  N   UNL     1       2.947   3.350  20.493  0.00  0.00    +0.000 N 
ATOM     25  C   UNL     1       2.362   3.287  21.821  0.00  0.00    +0.000 C 
ATOM     26  C   UNL     1       2.419   4.343  19.557  0.00  0.00    +0.000 C 
ATOM     27  C   UNL     1       2.402   3.885  18.097  0.00  0.00    +0.000 C 
ATOM     28  O   UNL     1       1.610   4.363  17.286  0.00  0.00    +0.000 OA
BRANCH  20  29
ATOM     29  C   UNL     1       4.248   3.606  16.524  0.00  0.00    +0.000 C 
BRANCH  29  30
ATOM     30  C   UNL     1       5.080   4.871  16.628  0.00  0.00    +0.000 C 
BRANCH  30  31
ATOM     31  C   UNL     1       6.482   4.528  17.146  0.00  0.00    +0.000 C 
BRANCH  31  32
ATOM     32  C   UNL     1       6.947   5.583  18.143  0.00  0.00    +0.000 C 
BRANCH  32  33
ATOM     33  C   UNL     1       6.552   6.999  17.730  0.00  0.00    +0.000 C 
BRANCH  33  35
ATOM     34  C   UNL     1       8.180   8.909  18.055  0.00  0.00    +0.000 C 
ATOM     35  C   UNL     1       7.774   7.736  17.181  0.00  0.00    +0.000 C 
ENDBRANCH  33  35
ENDBRANCH  32  33
ENDBRANCH  31  32
ENDBRANCH  30  31
ENDBRANCH  29  30
ENDBRANCH  20  29
ENDBRANCH  19  26
ENDBRANCH   1  19
TORSDOF 12
ENDMDL
MODEL 5
REMARK VINA RESULT:      -7.6      1.897      3.811
REMARK  Name = 
REMARK  17 active torsions:
REMARK  status: ('A' for Active; 'I' for Inactive)
REMARK    1  A    between atoms: C_1  and  C_2
REMARK    2  A    between atoms: C_2  and  C_3
REMARK    3  A    between atoms: C_3  and  C_4
REMARK    4  A    between atoms: C_4  and  C_5
REMARK    5  A    between atoms: C_5  and  C_6
REMARK    6  A    between atoms: C_6  and  C_7
REMARK    7  A    between atoms: C_7  and  N_8
REMARK    8  A    between atoms: N_12  and  C_13
REMARK    9  A    between atoms: C_14  and  C_15
REMARK   10  A    between atoms: C_15  and  C_16
REMARK   11  A    between atoms: C_19  and  C_20
REMARK   12  A    between atoms: C_22  and  O_23
REMARK   13  A    between atoms: O_23  and  C_24
REMARK   14  A    between atoms: C_25  and  O_26
REMARK   15  A    between atoms: O_26  and  C_27
REMARK   16  A    between atoms: C_28  and  O_29
REMARK   17  A    between atoms: O_29  and  C_30
REMARK                            x       y       z     vdW  Elec       q    Type
REMARK                         _______ _______ _______ _____ _____    ______ ____
ROOT
ATOM      1  C   UNL     1       2.746   7.648  18.398  0.00  0.00    +0.000 A 
ATOM      2  C   UNL     1       2.455   8.764  17.600  0.00  0.00    +0.000 A 
ATOM      3  C   UNL     1       1.564   9.755  18.032  0.00  0.00    +0.000 A 
ATOM      4  C   UNL     1       0.908   9.671  19.273  0.00  0.00    +0.000 A 
ATOM      5  C   UNL     1       1.258   8.590  20.099  0.00  0.00    +0.000 A 
ATOM      6  C   UNL     1       2.165   7.593  19.671  0.00  0.00    +0.000 A 
ENDROOT
BRANCH   4   7
ATOM      7  C   UNL     1      -0.116  10.691  19.624  0.00  0.00    +0.000 A 
ATOM      8  C   UNL     1       0.072  11.510  20.753  0.00  0.00    +0.000 A 
ATOM      9  C   UNL     1      -0.922  12.373  21.225  0.00  0.00    +0.000 A 
ATOM     10  C   UNL     1      -2.138  12.477  20.524  0.00  0.00    +0.000 A 
ATOM     11  C   UNL     1      -2.342  11.700  19.363  0.00  0.00    +0.000 A 
ATOM     12  C   UNL     1      -1.321  10.834  18.922  0.00  0.00    +0.000 A 
BRANCH   9  13
ATOM     13  O   UNL     1      -0.800  13.110  22.381  0.00  0.00    +0.000 OA
ATOM     14  C   UNL     1      -0.015  14.295  22.317  0.00  0.00    +0.000 C 
ENDBRANCH   9  13
BRANCH  10  15
ATOM     15  O   UNL     1      -3.077  13.303  21.104  0.00  0.00    +0.000 OA
ATOM     16  C   UNL     1      -4.056  12.688  21.930  0.00  0.00    +0.000 C 
ENDBRANCH  10  15
BRANCH  11  17
ATOM     17  O   UNL     1      -3.559  11.800  18.739  0.00  0.00    +0.000 OA
ATOM     18  C   UNL     1      -3.785  11.006  17.583  0.00  0.00    +0.000 C 
ENDBRANCH  11  17
ENDBRANCH   4   7
BRANCH   1  19
ATOM     19  C   UNL     1       3.547   6.505  17.791  0.00  0.00    +0.000 C 
BRANCH  19  26
ATOM     20  N   UNL     1       5.217   3.768  17.728  0.00  0.00    +0.000 N 
ATOM     21  C   UNL     1       6.250   4.066  16.741  0.00  0.00    +0.000 C 
ATOM     22  C   UNL     1       6.463   5.542  16.379  0.00  0.00    +0.000 C 
ATOM     23  O   UNL     1       7.155   5.867  15.414  0.00  0.00    +0.000 OA
ATOM     24  N   UNL     1       6.051   6.441  17.348  0.00  0.00    +0.000 N 
ATOM     25  C   UNL     1       6.641   7.767  17.421  0.00  0.00    +0.000 C 
ATOM     26  C   UNL     1       4.970   6.119  18.280  0.00  0.00    +0.000 C 
ATOM     27  C   UNL     1       4.961   4.664  18.753  0.00  0.00    +0.000 C 
ATOM     28  O   UNL     1       4.455   4.343  19.828  0.00  0.00    +0.000 OA
BRANCH  20  29
ATOM     29  C   UNL     1       4.328   2.634  17.553  0.00  0.00    +0.000 C 
BRANCH  29  30
ATOM     30  C   UNL     1       2.850   2.968  17.448  0.00  0.00    +0.000 C 
BRANCH  30  31
ATOM     31  C   UNL     1       2.027   1.916  18.201  0.00  0.00    +0.000 C 
BRANCH  31  32
ATOM     32  C   UNL     1       0.843   2.575  18.897  0.00  0.00    +0.000 C 
BRANCH  32  33
ATOM     33  C   UNL     1       1.119   4.026  19.287  0.00  0.00    +0.000 C 
BRANCH  33  35
ATOM     34  C   UNL     1       1.337   2.766  21.470  0.00  0.00    +0.000 C 
ATOM     35  C   UNL     1       1.295   4.128  20.802  0.00  0.00    +0.000 C 
ENDBRANCH  33  35
ENDBRANCH  32  33
ENDBRANCH  31  32
ENDBRANCH  30  31
ENDBRANCH  29  30
ENDBRANCH  20  29
ENDBRANCH  19  26
ENDBRANCH   1  19
TORSDOF 12
ENDMDL
MODEL 6
REMARK VINA RESULT:      -7.6      2.028      2.565
REMARK  Name = 
REMARK  17 active torsions:
REMARK  status: ('A' for Active; 'I' for Inactive)
REMARK    1  A    between atoms: C_1  and  C_2
REMARK    2  A    between atoms: C_2  and  C_3
REMARK    3  A    between atoms: C_3  and  C_4
REMARK    4  A    between atoms: C_4  and  C_5
REMARK    5  A    between atoms: C_5  and  C_6
REMARK    6  A    between atoms: C_6  and  C_7
REMARK    7  A    between atoms: C_7  and  N_8
REMARK    8  A    between atoms: N_12  and  C_13
REMARK    9  A    between atoms: C_14  and  C_15
REMARK   10  A    between atoms: C_15  and  C_16
REMARK   11  A    between atoms: C_19  and  C_20
REMARK   12  A    between atoms: C_22  and  O_23
REMARK   13  A    between atoms: O_23  and  C_24
REMARK   14  A    between atoms: C_25  and  O_26
REMARK   15  A    between atoms: O_26  and  C_27
REMARK   16  A    between atoms: C_28  and  O_29
REMARK   17  A    between atoms: O_29  and  C_30
REMARK                            x       y       z     vdW  Elec       q    Type
REMARK                         _______ _______ _______ _____ _____    ______ ____
ROOT
ATOM      1  C   UNL     1       2.372   6.883  19.424  0.00  0.00    +0.000 A 
ATOM      2  C   UNL     1       1.723   7.477  20.517  0.00  0.00    +0.000 A 
ATOM      3  C   UNL     1       1.204   8.776  20.436  0.00  0.00    +0.000 A 
ATOM      4  C   UNL     1       1.322   9.549  19.268  0.00  0.00    +0.000 A 
ATOM      5  C   UNL     1       1.907   8.924  18.154  0.00  0.00    +0.000 A 
ATOM      6  C   UNL     1       2.423   7.609  18.229  0.00  0.00    +0.000 A 
ENDROOT
BRANCH   4   7
ATOM      7  C   UNL     1       0.858  10.963  19.282  0.00  0.00    +0.000 A 
ATOM      8  C   UNL     1      -0.474  11.257  19.630  0.00  0.00    +0.000 A 
ATOM      9  C   UNL     1      -1.012  12.542  19.509  0.00  0.00    +0.000 A 
ATOM     10  C   UNL     1      -0.188  13.599  19.078  0.00  0.00    +0.000 A 
ATOM     11  C   UNL     1       1.164  13.345  18.762  0.00  0.00    +0.000 A 
ATOM     12  C   UNL     1       1.670  12.035  18.886  0.00  0.00    +0.000 A 
BRANCH   9  13
ATOM     13  O   UNL     1      -2.335  12.836  19.747  0.00  0.00    +0.000 OA
ATOM     14  C   UNL     1      -2.802  12.691  21.084  0.00  0.00    +0.000 C 
ENDBRANCH   9  13
BRANCH  10  15
ATOM     15  O   UNL     1      -0.826  14.812  18.928  0.00  0.00    +0.000 OA
ATOM     16  C   UNL     1      -0.681  15.752  19.983  0.00  0.00    +0.000 C 
ENDBRANCH  10  15
BRANCH  11  17
ATOM     17  O   UNL     1       1.917  14.396  18.302  0.00  0.00    +0.000 OA
ATOM     18  C   UNL     1       2.991  14.853  19.111  0.00  0.00    +0.000 C 
ENDBRANCH  11  17
ENDBRANCH   4   7
BRANCH   1  19
ATOM     19  C   UNL     1       3.102   5.564  19.637  0.00  0.00    +0.000 C 
BRANCH  19  26
ATOM     20  N   UNL     1       3.291   3.197  17.482  0.00  0.00    +0.000 N 
ATOM     21  C   UNL     1       3.973   2.152  18.239  0.00  0.00    +0.000 C 
ATOM     22  C   UNL     1       4.020   2.314  19.764  0.00  0.00    +0.000 C 
ATOM     23  O   UNL     1       4.747   1.602  20.458  0.00  0.00    +0.000 OA
ATOM     24  N   UNL     1       3.016   3.108  20.293  0.00  0.00    +0.000 N 
ATOM     25  C   UNL     1       2.591   2.937  21.672  0.00  0.00    +0.000 C 
ATOM     26  C   UNL     1       2.401   4.183  19.514  0.00  0.00    +0.000 C 
ATOM     27  C   UNL     1       2.202   3.852  18.034  0.00  0.00    +0.000 C 
ATOM     28  O   UNL     1       1.330   4.405  17.365  0.00  0.00    +0.000 OA
BRANCH  20  29
ATOM     29  C   UNL     1       3.844   3.690  16.233  0.00  0.00    +0.000 C 
BRANCH  29  30
ATOM     30  C   UNL     1       4.950   4.722  16.366  0.00  0.00    +0.000 C 
BRANCH  30  31
ATOM     31  C   UNL     1       6.303   4.075  16.046  0.00  0.00    +0.000 C 
BRANCH  31  32
ATOM     32  C   UNL     1       7.418   4.788  16.800  0.00  0.00    +0.000 C 
BRANCH  32  33
ATOM     33  C   UNL     1       7.231   6.303  16.838  0.00  0.00    +0.000 C 
BRANCH  33  35
ATOM     34  C   UNL     1       7.786   5.728  19.238  0.00  0.00    +0.000 C 
ATOM     35  C   UNL     1       7.625   6.838  18.215  0.00  0.00    +0.000 C 
ENDBRANCH  33  35
ENDBRANCH  32  33
ENDBRANCH  31  32
ENDBRANCH  30  31
ENDBRANCH  29  30
ENDBRANCH  20  29
ENDBRANCH  19  26
ENDBRANCH   1  19
TORSDOF 12
ENDMDL
MODEL 7
REMARK VINA RESULT:      -7.6      1.686      2.809
REMARK  Name = 
REMARK  17 active torsions:
REMARK  status: ('A' for Active; 'I' for Inactive)
REMARK    1  A    between atoms: C_1  and  C_2
REMARK    2  A    between atoms: C_2  and  C_3
REMARK    3  A    between atoms: C_3  and  C_4
REMARK    4  A    between atoms: C_4  and  C_5
REMARK    5  A    between atoms: C_5  and  C_6
REMARK    6  A    between atoms: C_6  and  C_7
REMARK    7  A    between atoms: C_7  and  N_8
REMARK    8  A    between atoms: N_12  and  C_13
REMARK    9  A    between atoms: C_14  and  C_15
REMARK   10  A    between atoms: C_15  and  C_16
REMARK   11  A    between atoms: C_19  and  C_20
REMARK   12  A    between atoms: C_22  and  O_23
REMARK   13  A    between atoms: O_23  and  C_24
REMARK   14  A    between atoms: C_25  and  O_26
REMARK   15  A    between atoms: O_26  and  C_27
REMARK   16  A    between atoms: C_28  and  O_29
REMARK   17  A    between atoms: O_29  and  C_30
REMARK                            x       y       z     vdW  Elec       q    Type
REMARK                         _______ _______ _______ _____ _____    ______ ____
ROOT
ATOM      1  C   UNL     1       2.153   7.029  19.637  0.00  0.00    +0.000 A 
ATOM      2  C   UNL     1       1.483   7.375  20.820  0.00  0.00    +0.000 A 
ATOM      3  C   UNL     1       0.867   8.624  20.969  0.00  0.00    +0.000 A 
ATOM      4  C   UNL     1       0.904   9.594  19.952  0.00  0.00    +0.000 A 
ATOM      5  C   UNL     1       1.512   9.217  18.742  0.00  0.00    +0.000 A 
ATOM      6  C   UNL     1       2.126   7.952  18.585  0.00  0.00    +0.000 A 
ENDROOT
BRANCH   4   7
ATOM      7  C   UNL     1       0.336  10.944  20.213  0.00  0.00    +0.000 A 
ATOM      8  C   UNL     1       0.606  11.999  19.322  0.00  0.00    +0.000 A 
ATOM      9  C   UNL     1       0.237  13.320  19.593  0.00  0.00    +0.000 A 
ATOM     10  C   UNL     1      -0.480  13.611  20.770  0.00  0.00    +0.000 A 
ATOM     11  C   UNL     1      -0.804  12.567  21.664  0.00  0.00    +0.000 A 
ATOM     12  C   UNL     1      -0.406  11.249  21.363  0.00  0.00    +0.000 A 
BRANCH   9  13
ATOM     13  O   UNL     1       0.575  14.383  18.788  0.00  0.00    +0.000 OA
ATOM     14  C   UNL     1       1.962  14.656  18.621  0.00  0.00    +0.000 C 
ENDBRANCH   9  13
BRANCH  10  15
ATOM     15  O   UNL     1      -0.740  14.948  20.979  0.00  0.00    +0.000 OA
ATOM     16  C   UNL     1       0.132  15.645  21.858  0.00  0.00    +0.000 C 
ENDBRANCH  10  15
BRANCH  11  17
ATOM     17  O   UNL     1      -1.462  12.904  22.820  0.00  0.00    +0.000 OA
ATOM     18  C   UNL     1      -2.596  12.132  23.192  0.00  0.00    +0.000 C 
ENDBRANCH  11  17
ENDBRANCH   4   7
BRANCH   1  19
ATOM     19  C   UNL     1       2.983   5.753  19.613  0.00  0.00    +0.000 C 
BRANCH  19  26
ATOM     20  N   UNL     1       3.334   3.376  17.490  0.00  0.00    +0.000 N 
ATOM     21  C   UNL     1       4.048   2.373  18.274  0.00  0.00    +0.000 C 
ATOM     22  C   UNL     1       4.051   2.552  19.798  0.00  0.00    +0.000 C 
ATOM     23  O   UNL     1       4.796   1.884  20.516  0.00  0.00    +0.000 OA
ATOM     24  N   UNL     1       2.999   3.303  20.295  0.00  0.00    +0.000 N 
ATOM     25  C   UNL     1       2.551   3.126  21.666  0.00  0.00    +0.000 C 
ATOM     26  C   UNL     1       2.352   4.339  19.490  0.00  0.00    +0.000 C 
ATOM     27  C   UNL     1       2.203   3.983  18.010  0.00  0.00    +0.000 C 
ATOM     28  O   UNL     1       1.320   4.487  17.316  0.00  0.00    +0.000 OA
BRANCH  20  29
ATOM     29  C   UNL     1       3.891   3.882  16.249  0.00  0.00    +0.000 C 
BRANCH  29  30
ATOM     30  C   UNL     1       5.342   4.324  16.311  0.00  0.00    +0.000 C 
BRANCH  30  31
ATOM     31  C   UNL     1       5.431   5.841  16.106  0.00  0.00    +0.000 C 
BRANCH  31  32
ATOM     32  C   UNL     1       5.871   6.522  17.396  0.00  0.00    +0.000 C 
BRANCH  32  33
ATOM     33  C   UNL     1       7.229   7.210  17.266  0.00  0.00    +0.000 C 
BRANCH  33  35
ATOM     34  C   UNL     1       7.719   5.683  19.224  0.00  0.00    +0.000 C 
ATOM     35  C   UNL     1       8.034   7.006  18.550  0.00  0.00    +0.000 C 
ENDBRANCH  33  35
ENDBRANCH  32  33
ENDBRANCH  31  32
ENDBRANCH  30  31
ENDBRANCH  29  30
ENDBRANCH  20  29
ENDBRANCH  19  26
ENDBRANCH   1  19
TORSDOF 12
ENDMDL
MODEL 8
REMARK VINA RESULT:      -7.6      2.347      3.382
REMARK  Name = 
REMARK  17 active torsions:
REMARK  status: ('A' for Active; 'I' for Inactive)
REMARK    1  A    between atoms: C_1  and  C_2
REMARK    2  A    between atoms: C_2  and  C_3
REMARK    3  A    between atoms: C_3  and  C_4
REMARK    4  A    between atoms: C_4  and  C_5
REMARK    5  A    between atoms: C_5  and  C_6
REMARK    6  A    between atoms: C_6  and  C_7
REMARK    7  A    between atoms: C_7  and  N_8
REMARK    8  A    between atoms: N_12  and  C_13
REMARK    9  A    between atoms: C_14  and  C_15
REMARK   10  A    between atoms: C_15  and  C_16
REMARK   11  A    between atoms: C_19  and  C_20
REMARK   12  A    between atoms: C_22  and  O_23
REMARK   13  A    between atoms: O_23  and  C_24
REMARK   14  A    between atoms: C_25  and  O_26
REMARK   15  A    between atoms: O_26  and  C_27
REMARK   16  A    between atoms: C_28  and  O_29
REMARK   17  A    between atoms: O_29  and  C_30
REMARK                            x       y       z     vdW  Elec       q    Type
REMARK                         _______ _______ _______ _____ _____    ______ ____
ROOT
ATOM      1  C   UNL     1       2.283   7.031  19.452  0.00  0.00    +0.000 A 
ATOM      2  C   UNL     1       1.573   7.676  20.476  0.00  0.00    +0.000 A 
ATOM      3  C   UNL     1       1.047   8.962  20.298  0.00  0.00    +0.000 A 
ATOM      4  C   UNL     1       1.217   9.672  19.097  0.00  0.00    +0.000 A 
ATOM      5  C   UNL     1       1.864   8.995  18.050  0.00  0.00    +0.000 A 
ATOM      6  C   UNL     1       2.388   7.692  18.222  0.00  0.00    +0.000 A 
ENDROOT
BRANCH   4   7
ATOM      7  C   UNL     1       0.740  11.079  19.010  0.00  0.00    +0.000 A 
ATOM      8  C   UNL     1       1.618  12.088  18.574  0.00  0.00    +0.000 A 
ATOM      9  C   UNL     1       1.282  13.444  18.621  0.00  0.00    +0.000 A 
ATOM     10  C   UNL     1       0.002  13.825  19.067  0.00  0.00    +0.000 A 
ATOM     11  C   UNL     1      -0.919  12.833  19.471  0.00  0.00    +0.000 A 
ATOM     12  C   UNL     1      -0.541  11.476  19.419  0.00  0.00    +0.000 A 
BRANCH   9  13
ATOM     13  O   UNL     1       2.157  14.455  18.294  0.00  0.00    +0.000 OA
ATOM     14  C   UNL     1       3.293  14.627  19.135  0.00  0.00    +0.000 C 
ENDBRANCH   9  13
BRANCH  10  15
ATOM     15  O   UNL     1      -0.211  15.184  19.139  0.00  0.00    +0.000 OA
ATOM     16  C   UNL     1      -0.090  15.790  20.418  0.00  0.00    +0.000 C 
ENDBRANCH  10  15
BRANCH  11  17
ATOM     17  O   UNL     1      -2.137  13.252  19.941  0.00  0.00    +0.000 OA
ATOM     18  C   UNL     1      -2.513  12.869  21.256  0.00  0.00    +0.000 C 
ENDBRANCH  11  17
ENDBRANCH   4   7
BRANCH   1  19
ATOM     19  C   UNL     1       3.013   5.735  19.773  0.00  0.00    +0.000 C 
BRANCH  19  26
ATOM     20  N   UNL     1       3.374   3.383  17.623  0.00  0.00    +0.000 N 
ATOM     21  C   UNL     1       4.046   2.354  18.409  0.00  0.00    +0.000 C 
ATOM     22  C   UNL     1       4.013   2.510  19.936  0.00  0.00    +0.000 C 
ATOM     23  O   UNL     1       4.724   1.816  20.662  0.00  0.00    +0.000 OA
ATOM     24  N   UNL     1       2.962   3.274  20.417  0.00  0.00    +0.000 N 
ATOM     25  C   UNL     1       2.475   3.086  21.772  0.00  0.00    +0.000 C 
ATOM     26  C   UNL     1       2.357   4.335  19.611  0.00  0.00    +0.000 C 
ATOM     27  C   UNL     1       2.241   4.005  18.122  0.00  0.00    +0.000 C 
ATOM     28  O   UNL     1       1.388   4.537  17.413  0.00  0.00    +0.000 OA
BRANCH  20  29
ATOM     29  C   UNL     1       3.973   3.897  16.405  0.00  0.00    +0.000 C 
BRANCH  29  30
ATOM     30  C   UNL     1       5.312   4.592  16.573  0.00  0.00    +0.000 C 
BRANCH  30  31
ATOM     31  C   UNL     1       6.358   3.929  15.669  0.00  0.00    +0.000 C 
BRANCH  31  32
ATOM     32  C   UNL     1       6.490   4.701  14.363  0.00  0.00    +0.000 C 
BRANCH  32  33
ATOM     33  C   UNL     1       6.357   3.806  13.132  0.00  0.00    +0.000 C 
BRANCH  33  35
ATOM     34  C   UNL     1       4.627   3.149  11.406  0.00  0.00    +0.000 C 
ATOM     35  C   UNL     1       4.879   3.527  12.854  0.00  0.00    +0.000 C 
ENDBRANCH  33  35
ENDBRANCH  32  33
ENDBRANCH  31  32
ENDBRANCH  30  31
ENDBRANCH  29  30
ENDBRANCH  20  29
ENDBRANCH  19  26
ENDBRANCH   1  19
TORSDOF 12
ENDMDL
MODEL 9
REMARK VINA RESULT:      -7.6      2.261      2.897
REMARK  Name = 
REMARK  17 active torsions:
REMARK  status: ('A' for Active; 'I' for Inactive)
REMARK    1  A    between atoms: C_1  and  C_2
REMARK    2  A    between atoms: C_2  and  C_3
REMARK    3  A    between atoms: C_3  and  C_4
REMARK    4  A    between atoms: C_4  and  C_5
REMARK    5  A    between atoms: C_5  and  C_6
REMARK    6  A    between atoms: C_6  and  C_7
REMARK    7  A    between atoms: C_7  and  N_8
REMARK    8  A    between atoms: N_12  and  C_13
REMARK    9  A    between atoms: C_14  and  C_15
REMARK   10  A    between atoms: C_15  and  C_16
REMARK   11  A    between atoms: C_19  and  C_20
REMARK   12  A    between atoms: C_22  and  O_23
REMARK   13  A    between atoms: O_23  and  C_24
REMARK   14  A    between atoms: C_25  and  O_26
REMARK   15  A    between atoms: O_26  and  C_27
REMARK   16  A    between atoms: C_28  and  O_29
REMARK   17  A    between atoms: O_29  and  C_30
REMARK                            x       y       z     vdW  Elec       q    Type
REMARK                         _______ _______ _______ _____ _____    ______ ____
ROOT
ATOM      1  C   UNL     1       2.253   7.129  19.370  0.00  0.00    +0.000 A 
ATOM      2  C   UNL     1       1.595   7.807  20.406  0.00  0.00    +0.000 A 
ATOM      3  C   UNL     1       1.106   9.107  20.229  0.00  0.00    +0.000 A 
ATOM      4  C   UNL     1       1.263   9.799  19.015  0.00  0.00    +0.000 A 
ATOM      5  C   UNL     1       1.857   9.090  17.958  0.00  0.00    +0.000 A 
ATOM      6  C   UNL     1       2.344   7.773  18.130  0.00  0.00    +0.000 A 
ENDROOT
BRANCH   4   7
ATOM      7  C   UNL     1       0.830  11.219  18.926  0.00  0.00    +0.000 A 
ATOM      8  C   UNL     1       1.736  12.199  18.481  0.00  0.00    +0.000 A 
ATOM      9  C   UNL     1       1.441  13.566  18.525  0.00  0.00    +0.000 A 
ATOM     10  C   UNL     1       0.176  13.987  18.977  0.00  0.00    +0.000 A 
ATOM     11  C   UNL     1      -0.771  13.025  19.390  0.00  0.00    +0.000 A 
ATOM     12  C   UNL     1      -0.436  11.657  19.341  0.00  0.00    +0.000 A 
BRANCH   9  13
ATOM     13  O   UNL     1       2.345  14.548  18.189  0.00  0.00    +0.000 OA
ATOM     14  C   UNL     1       3.703  14.335  18.562  0.00  0.00    +0.000 C 
ENDBRANCH   9  13
BRANCH  10  15
ATOM     15  O   UNL     1       0.006  15.353  19.045  0.00  0.00    +0.000 OA
ATOM     16  C   UNL     1       0.263  15.973  20.297  0.00  0.00    +0.000 C 
ENDBRANCH  10  15
BRANCH  11  17
ATOM     17  O   UNL     1      -1.974  13.483  19.866  0.00  0.00    +0.000 OA
ATOM     18  C   UNL     1      -2.926  12.526  20.307  0.00  0.00    +0.000 C 
ENDBRANCH  11  17
ENDBRANCH   4   7
BRANCH   1  19
ATOM     19  C   UNL     1       2.951   5.812  19.685  0.00  0.00    +0.000 C 
BRANCH  19  26
ATOM     20  N   UNL     1       3.313   3.238  17.807  0.00  0.00    +0.000 N 
ATOM     21  C   UNL     1       3.875   2.262  18.736  0.00  0.00    +0.000 C 
ATOM     22  C   UNL     1       3.754   2.576  20.233  0.00  0.00    +0.000 C 
ATOM     23  O   UNL     1       4.377   1.925  21.072  0.00  0.00    +0.000 OA
ATOM     24  N   UNL     1       2.720   3.436  20.563  0.00  0.00    +0.000 N 
ATOM     25  C   UNL     1       2.138   3.412  21.894  0.00  0.00    +0.000 C 
ATOM     26  C   UNL     1       2.228   4.438  19.617  0.00  0.00    +0.000 C 
ATOM     27  C   UNL     1       2.188   3.964  18.163  0.00  0.00    +0.000 C 
ATOM     28  O   UNL     1       1.413   4.462  17.348  0.00  0.00    +0.000 OA
BRANCH  20  29
ATOM     29  C   UNL     1       4.017   3.594  16.588  0.00  0.00    +0.000 C 
BRANCH  29  30
ATOM     30  C   UNL     1       4.531   5.021  16.518  0.00  0.00    +0.000 C 
BRANCH  30  31
ATOM     31  C   UNL     1       5.465   5.176  15.312  0.00  0.00    +0.000 C 
BRANCH  31  32
ATOM     32  C   UNL     1       6.916   5.016  15.746  0.00  0.00    +0.000 C 
BRANCH  32  33
ATOM     33  C   UNL     1       7.274   5.893  16.945  0.00  0.00    +0.000 C 
BRANCH  33  35
ATOM     34  C   UNL     1       7.593   5.712  19.448  0.00  0.00    +0.000 C 
ATOM     35  C   UNL     1       7.736   5.015  18.108  0.00  0.00    +0.000 C 
ENDBRANCH  33  35
ENDBRANCH  32  33
ENDBRANCH  31  32
ENDBRANCH  30  31
ENDBRANCH  29  30
ENDBRANCH  20  29
ENDBRANCH  19  26
ENDBRANCH   1  19
TORSDOF 12
ENDMDL
