MODEL 1
REMARK VINA RESULT:      -7.7      0.000      0.000
REMARK  Name = 
REMARK  9 active torsions:
REMARK  status: ('A' for Active; 'I' for Inactive)
REMARK    1  A    between atoms: C_1  and  O_2
REMARK    2  A    between atoms: O_2  and  C_3
REMARK    3  A    between atoms: C_6  and  N_7
REMARK    4  A    between atoms: C_8  and  C_10
REMARK    5  A    between atoms: C_10  and  S_11
REMARK    6  A    between atoms: S_11  and  C_12
REMARK    7  A    between atoms: C_15  and  C_16
REMARK    8  A    between atoms: C_19  and  S_20
REMARK    9  A    between atoms: S_20  and  N_23
REMARK                            x       y       z     vdW  Elec       q    Type
REMARK                         _______ _______ _______ _____ _____    ______ ____
ROOT
ATOM      1  C   UNL     1       2.839   4.317  20.147  0.00  0.00    +0.000 A 
ATOM      2  C   UNL     1       1.845   4.938  20.905  0.00  0.00    +0.000 A 
ATOM      3  C   UNL     1       1.505   6.298  20.655  0.00  0.00    +0.000 A 
ATOM      4  C   UNL     1       2.148   7.053  19.658  0.00  0.00    +0.000 A 
ATOM      5  C   UNL     1       3.128   6.419  18.896  0.00  0.00    +0.000 A 
ATOM      6  C   UNL     1       3.453   5.073  19.134  0.00  0.00    +0.000 A 
ENDROOT
BRANCH   4   7
ATOM      7  N   UNL     1       1.900   8.419  19.382  0.00  0.00    +0.000 N 
ATOM      8  C   UNL     1       2.092   9.081  18.172  0.00  0.00    +0.000 C 
ATOM      9  O   UNL     1       2.597   8.572  17.174  0.00  0.00    +0.000 OA
ATOM     10  H   UNL     1       1.566   8.982  20.158  0.00  0.00    +0.000 HD
BRANCH   8  11
ATOM     11  C   UNL     1       1.602  10.534  18.143  0.00  0.00    +0.000 C 
BRANCH  11  12
ATOM     12  S   UNL     1       0.388  10.822  19.482  0.00  0.00    +0.000 S 
BRANCH  12  13
ATOM     13  C   UNL     1      -1.068  10.765  18.525  0.00  0.00    +0.000 A 
ATOM     14  N   UNL     1      -1.177   9.951  17.501  0.00  0.00    +0.000 NA
ATOM     15  N   UNL     1      -2.373  10.111  16.837  0.00  0.00    +0.000 NA
ATOM     16  C   UNL     1      -3.122  11.040  17.392  0.00  0.00    +0.000 A 
ATOM     17  C   UNL     1      -4.452  11.463  16.890  0.00  0.00    +0.000 C 
ATOM     18  S   UNL     1      -2.425  11.773  18.784  0.00  0.00    +0.000 S 
ENDBRANCH  12  13
ENDBRANCH  11  12
ENDBRANCH   8  11
ENDBRANCH   4   7
BRANCH   6  19
ATOM     19  S   UNL     1       4.699   4.274  18.116  0.00  0.00    +0.000 S 
ATOM     20  O   UNL     1       5.826   3.950  18.957  0.00  0.00    +0.000 OA
ATOM     21  O   UNL     1       4.032   3.238  17.354  0.00  0.00    +0.000 OA
BRANCH  19  22
ATOM     22  N   UNL     1       5.115   5.493  17.019  0.00  0.00    +0.000 NA
ATOM     23  C   UNL     1       5.381   5.106  15.616  0.00  0.00    +0.000 C 
ATOM     24  C   UNL     1       6.879   4.958  15.339  0.00  0.00    +0.000 C 
ATOM     25  O   UNL     1       7.614   6.119  15.746  0.00  0.00    +0.000 OA
ATOM     26  C   UNL     1       7.445   6.374  17.146  0.00  0.00    +0.000 C 
ATOM     27  C   UNL     1       5.976   6.591  17.509  0.00  0.00    +0.000 C 
ENDBRANCH  19  22
ENDBRANCH   6  19
BRANCH   1  29
ATOM     28  C   UNL     1       2.661   1.838  20.079  0.00  0.00    +0.000 C 
ATOM     29  O   UNL     1       3.329   3.065  20.257  0.00  0.00    +0.000 OA
ENDBRANCH   1  29
TORSDOF 7
ENDMDL
MODEL 2
REMARK VINA RESULT:      -7.5      1.069      1.069
REMARK  Name = 
REMARK  9 active torsions:
REMARK  status: ('A' for Active; 'I' for Inactive)
REMARK    1  A    between atoms: C_1  and  O_2
REMARK    2  A    between atoms: O_2  and  C_3
REMARK    3  A    between atoms: C_6  and  N_7
REMARK    4  A    between atoms: C_8  and  C_10
REMARK    5  A    between atoms: C_10  and  S_11
REMARK    6  A    between atoms: S_11  and  C_12
REMARK    7  A    between atoms: C_15  and  C_16
REMARK    8  A    between atoms: C_19  and  S_20
REMARK    9  A    between atoms: S_20  and  N_23
REMARK                            x       y       z     vdW  Elec       q    Type
REMARK                         _______ _______ _______ _____ _____    ______ ____
ROOT
ATOM      1  C   UNL     1       2.832   4.541  20.270  0.00  0.00    +0.000 A 
ATOM      2  C   UNL     1       1.826   5.223  20.956  0.00  0.00    +0.000 A 
ATOM      3  C   UNL     1       1.457   6.538  20.553  0.00  0.00    +0.000 A 
ATOM      4  C   UNL     1       2.083   7.188  19.475  0.00  0.00    +0.000 A 
ATOM      5  C   UNL     1       3.075   6.492  18.786  0.00  0.00    +0.000 A 
ATOM      6  C   UNL     1       3.429   5.189  19.175  0.00  0.00    +0.000 A 
ENDROOT
BRANCH   4   7
ATOM      7  N   UNL     1       1.806   8.508  19.046  0.00  0.00    +0.000 N 
ATOM      8  C   UNL     1       1.067   9.476  19.723  0.00  0.00    +0.000 C 
ATOM      9  O   UNL     1       0.470   9.280  20.779  0.00  0.00    +0.000 OA
ATOM     10  H   UNL     1       2.165   8.771  18.133  0.00  0.00    +0.000 HD
BRANCH   8  11
ATOM     11  C   UNL     1       1.056  10.861  19.065  0.00  0.00    +0.000 C 
BRANCH  11  12
ATOM     12  S   UNL     1      -0.166  11.946  19.887  0.00  0.00    +0.000 S 
BRANCH  12  13
ATOM     13  C   UNL     1      -1.540  11.604  18.869  0.00  0.00    +0.000 A 
ATOM     14  N   UNL     1      -1.402  10.953  17.737  0.00  0.00    +0.000 NA
ATOM     15  N   UNL     1      -2.591  10.849  17.051  0.00  0.00    +0.000 NA
ATOM     16  C   UNL     1      -3.583  11.425  17.697  0.00  0.00    +0.000 A 
ATOM     17  C   UNL     1      -4.979  11.506  17.202  0.00  0.00    +0.000 C 
ATOM     18  S   UNL     1      -3.135  12.117  19.207  0.00  0.00    +0.000 S 
ENDBRANCH  12  13
ENDBRANCH  11  12
ENDBRANCH   8  11
ENDBRANCH   4   7
BRANCH   6  19
ATOM     19  S   UNL     1       4.691   4.306  18.250  0.00  0.00    +0.000 S 
ATOM     20  O   UNL     1       5.826   4.106  19.118  0.00  0.00    +0.000 OA
ATOM     21  O   UNL     1       4.045   3.174  17.616  0.00  0.00    +0.000 OA
BRANCH  19  22
ATOM     22  N   UNL     1       5.077   5.399  17.018  0.00  0.00    +0.000 NA
ATOM     23  C   UNL     1       5.367   4.857  15.673  0.00  0.00    +0.000 C 
ATOM     24  C   UNL     1       6.871   4.727  15.423  0.00  0.00    +0.000 C 
ATOM     25  O   UNL     1       7.565   5.951  15.692  0.00  0.00    +0.000 OA
ATOM     26  C   UNL     1       7.376   6.365  17.051  0.00  0.00    +0.000 C 
ATOM     27  C   UNL     1       5.898   6.575  17.378  0.00  0.00    +0.000 C 
ENDBRANCH  19  22
ENDBRANCH   6  19
BRANCH   1  29
ATOM     28  C   UNL     1       2.870   2.322  21.389  0.00  0.00    +0.000 C 
ATOM     29  O   UNL     1       3.348   3.320  20.519  0.00  0.00    +0.000 OA
ENDBRANCH   1  29
TORSDOF 7
ENDMDL
MODEL 3
REMARK VINA RESULT:      -7.5      2.183      3.075
REMARK  Name = 
REMARK  9 active torsions:
REMARK  status: ('A' for Active; 'I' for Inactive)
REMARK    1  A    between atoms: C_1  and  O_2
REMARK    2  A    between atoms: O_2  and  C_3
REMARK    3  A    between atoms: C_6  and  N_7
REMARK    4  A    between atoms: C_8  and  C_10
REMARK    5  A    between atoms: C_10  and  S_11
REMARK    6  A    between atoms: S_11  and  C_12
REMARK    7  A    between atoms: C_15  and  C_16
REMARK    8  A    between atoms: C_19  and  S_20
REMARK    9  A    between atoms: S_20  and  N_23
REMARK                            x       y       z     vdW  Elec       q    Type
REMARK                         _______ _______ _______ _____ _____    ______ ____
ROOT
ATOM      1  C   UNL     1       2.752   4.263  20.179  0.00  0.00    +0.000 A 
ATOM      2  C   UNL     1       1.714   4.891  20.869  0.00  0.00    +0.000 A 
ATOM      3  C   UNL     1       1.417   6.260  20.612  0.00  0.00    +0.000 A 
ATOM      4  C   UNL     1       2.146   7.016  19.677  0.00  0.00    +0.000 A 
ATOM      5  C   UNL     1       3.169   6.375  18.982  0.00  0.00    +0.000 A 
ATOM      6  C   UNL     1       3.454   5.020  19.226  0.00  0.00    +0.000 A 
ENDROOT
BRANCH   4   7
ATOM      7  N   UNL     1       1.941   8.389  19.401  0.00  0.00    +0.000 N 
ATOM      8  C   UNL     1       2.073   9.030  18.171  0.00  0.00    +0.000 C 
ATOM      9  O   UNL     1       2.477   8.487  17.146  0.00  0.00    +0.000 OA
ATOM     10  H   UNL     1       1.694   8.976  20.192  0.00  0.00    +0.000 HD
BRANCH   8  11
ATOM     11  C   UNL     1       1.651  10.504  18.160  0.00  0.00    +0.000 C 
BRANCH  11  12
ATOM     12  S   UNL     1       0.599  10.876  19.610  0.00  0.00    +0.000 S 
BRANCH  12  13
ATOM     13  C   UNL     1       1.401  12.329  20.144  0.00  0.00    +0.000 A 
ATOM     14  N   UNL     1       1.363  12.703  21.402  0.00  0.00    +0.000 NA
ATOM     15  N   UNL     1       1.995  13.911  21.602  0.00  0.00    +0.000 NA
ATOM     16  C   UNL     1       2.489  14.398  20.483  0.00  0.00    +0.000 A 
ATOM     17  C   UNL     1       3.199  15.695  20.368  0.00  0.00    +0.000 C 
ATOM     18  S   UNL     1       2.235  13.400  19.105  0.00  0.00    +0.000 S 
ENDBRANCH  12  13
ENDBRANCH  11  12
ENDBRANCH   8  11
ENDBRANCH   4   7
BRANCH   6  19
ATOM     19  S   UNL     1       4.760   4.213  18.294  0.00  0.00    +0.000 S 
ATOM     20  O   UNL     1       5.896   4.046  19.167  0.00  0.00    +0.000 OA
ATOM     21  O   UNL     1       4.170   3.067  17.632  0.00  0.00    +0.000 OA
BRANCH  19  22
ATOM     22  N   UNL     1       5.106   5.347  17.087  0.00  0.00    +0.000 NA
ATOM     23  C   UNL     1       5.374   4.849  15.720  0.00  0.00    +0.000 C 
ATOM     24  C   UNL     1       6.873   4.744  15.434  0.00  0.00    +0.000 C 
ATOM     25  O   UNL     1       7.559   5.968  15.724  0.00  0.00    +0.000 OA
ATOM     26  C   UNL     1       7.394   6.339  17.099  0.00  0.00    +0.000 C 
ATOM     27  C   UNL     1       5.921   6.521  17.465  0.00  0.00    +0.000 C 
ENDBRANCH  19  22
ENDBRANCH   6  19
BRANCH   1  29
ATOM     28  C   UNL     1       3.162   2.155  21.432  0.00  0.00    +0.000 C 
ATOM     29  O   UNL     1       3.212   3.001  20.308  0.00  0.00    +0.000 OA
ENDBRANCH   1  29
TORSDOF 7
ENDMDL
MODEL 4
REMARK VINA RESULT:      -7.4      2.643      3.289
REMARK  Name = 
REMARK  9 active torsions:
REMARK  status: ('A' for Active; 'I' for Inactive)
REMARK    1  A    between atoms: C_1  and  O_2
REMARK    2  A    between atoms: O_2  and  C_3
REMARK    3  A    between atoms: C_6  and  N_7
REMARK    4  A    between atoms: C_8  and  C_10
REMARK    5  A    between atoms: C_10  and  S_11
REMARK    6  A    between atoms: S_11  and  C_12
REMARK    7  A    between atoms: C_15  and  C_16
REMARK    8  A    between atoms: C_19  and  S_20
REMARK    9  A    between atoms: S_20  and  N_23
REMARK                            x       y       z     vdW  Elec       q    Type
REMARK                         _______ _______ _______ _____ _____    ______ ____
ROOT
ATOM      1  C   UNL     1       2.500   4.669  20.376  0.00  0.00    +0.000 A 
ATOM      2  C   UNL     1       1.602   5.550  20.980  0.00  0.00    +0.000 A 
ATOM      3  C   UNL     1       1.458   6.874  20.476  0.00  0.00    +0.000 A 
ATOM      4  C   UNL     1       2.203   7.336  19.377  0.00  0.00    +0.000 A 
ATOM      5  C   UNL     1       3.086   6.443  18.771  0.00  0.00    +0.000 A 
ATOM      6  C   UNL     1       3.217   5.132  19.261  0.00  0.00    +0.000 A 
ENDROOT
BRANCH   4   7
ATOM      7  N   UNL     1       2.151   8.648  18.850  0.00  0.00    +0.000 N 
ATOM      8  C   UNL     1       1.220   9.640  19.151  0.00  0.00    +0.000 C 
ATOM      9  O   UNL     1       0.241   9.476  19.876  0.00  0.00    +0.000 OA
ATOM     10  H   UNL     1       2.856   8.885  18.159  0.00  0.00    +0.000 HD
BRANCH   8  11
ATOM     11  C   UNL     1       1.505  11.009  18.522  0.00  0.00    +0.000 C 
BRANCH  11  12
ATOM     12  S   UNL     1       0.180  12.195  18.951  0.00  0.00    +0.000 S 
BRANCH  12  13
ATOM     13  C   UNL     1       1.085  13.673  18.758  0.00  0.00    +0.000 A 
ATOM     14  N   UNL     1       0.502  14.845  18.858  0.00  0.00    +0.000 NA
ATOM     15  N   UNL     1       1.374  15.880  18.603  0.00  0.00    +0.000 NA
ATOM     16  C   UNL     1       2.584  15.446  18.323  0.00  0.00    +0.000 A 
ATOM     17  C   UNL     1       3.734  16.315  17.976  0.00  0.00    +0.000 C 
ATOM     18  S   UNL     1       2.750  13.734  18.375  0.00  0.00    +0.000 S 
ENDBRANCH  12  13
ENDBRANCH  11  12
ENDBRANCH   8  11
ENDBRANCH   4   7
BRANCH   6  19
ATOM     19  S   UNL     1       4.341   3.995  18.441  0.00  0.00    +0.000 S 
ATOM     20  O   UNL     1       5.153   3.361  19.450  0.00  0.00    +0.000 OA
ATOM     21  O   UNL     1       3.552   3.196  17.526  0.00  0.00    +0.000 OA
BRANCH  19  22
ATOM     22  N   UNL     1       5.285   5.031  17.492  0.00  0.00    +0.000 NA
ATOM     23  C   UNL     1       5.252   4.852  16.024  0.00  0.00    +0.000 C 
ATOM     24  C   UNL     1       6.440   4.030  15.521  0.00  0.00    +0.000 C 
ATOM     25  O   UNL     1       7.688   4.553  15.991  0.00  0.00    +0.000 OA
ATOM     26  C   UNL     1       7.735   4.573  17.423  0.00  0.00    +0.000 C 
ATOM     27  C   UNL     1       6.611   5.422  18.016  0.00  0.00    +0.000 C 
ENDBRANCH  19  22
ENDBRANCH   6  19
BRANCH   1  29
ATOM     28  C   UNL     1       2.176   2.570  21.668  0.00  0.00    +0.000 C 
ATOM     29  O   UNL     1       2.808   3.403  20.726  0.00  0.00    +0.000 OA
ENDBRANCH   1  29
TORSDOF 7
ENDMDL
MODEL 5
REMARK VINA RESULT:      -7.4      2.045      2.372
REMARK  Name = 
REMARK  9 active torsions:
REMARK  status: ('A' for Active; 'I' for Inactive)
REMARK    1  A    between atoms: C_1  and  O_2
REMARK    2  A    between atoms: O_2  and  C_3
REMARK    3  A    between atoms: C_6  and  N_7
REMARK    4  A    between atoms: C_8  and  C_10
REMARK    5  A    between atoms: C_10  and  S_11
REMARK    6  A    between atoms: S_11  and  C_12
REMARK    7  A    between atoms: C_15  and  C_16
REMARK    8  A    between atoms: C_19  and  S_20
REMARK    9  A    between atoms: S_20  and  N_23
REMARK                            x       y       z     vdW  Elec       q    Type
REMARK                         _______ _______ _______ _____ _____    ______ ____
ROOT
ATOM      1  C   UNL     1       2.240   4.565  20.229  0.00  0.00    +0.000 A 
ATOM      2  C   UNL     1       1.338   5.421  20.862  0.00  0.00    +0.000 A 
ATOM      3  C   UNL     1       1.343   6.812  20.555  0.00  0.00    +0.000 A 
ATOM      4  C   UNL     1       2.242   7.364  19.626  0.00  0.00    +0.000 A 
ATOM      5  C   UNL     1       3.128   6.499  18.988  0.00  0.00    +0.000 A 
ATOM      6  C   UNL     1       3.113   5.124  19.281  0.00  0.00    +0.000 A 
ENDROOT
BRANCH   4   7
ATOM      7  N   UNL     1       2.340   8.739  19.304  0.00  0.00    +0.000 N 
ATOM      8  C   UNL     1       1.636   9.425  18.316  0.00  0.00    +0.000 C 
ATOM      9  O   UNL     1       0.873   8.894  17.513  0.00  0.00    +0.000 OA
ATOM     10  H   UNL     1       3.014   9.280  19.837  0.00  0.00    +0.000 HD
BRANCH   8  11
ATOM     11  C   UNL     1       1.858  10.942  18.298  0.00  0.00    +0.000 C 
BRANCH  11  12
ATOM     12  S   UNL     1       0.253  11.819  18.260  0.00  0.00    +0.000 S 
BRANCH  12  13
ATOM     13  C   UNL     1      -0.142  11.705  19.955  0.00  0.00    +0.000 A 
ATOM     14  N   UNL     1       0.732  11.260  20.827  0.00  0.00    +0.000 NA
ATOM     15  N   UNL     1       0.201  11.181  22.096  0.00  0.00    +0.000 NA
ATOM     16  C   UNL     1      -1.054  11.575  22.130  0.00  0.00    +0.000 A 
ATOM     17  C   UNL     1      -1.906  11.578  23.344  0.00  0.00    +0.000 C 
ATOM     18  S   UNL     1      -1.672  12.094  20.610  0.00  0.00    +0.000 S 
ENDBRANCH  12  13
ENDBRANCH  11  12
ENDBRANCH   8  11
ENDBRANCH   4   7
BRANCH   6  19
ATOM     19  S   UNL     1       4.248   4.028  18.421  0.00  0.00    +0.000 S 
ATOM     20  O   UNL     1       5.026   3.322  19.410  0.00  0.00    +0.000 OA
ATOM     21  O   UNL     1       3.476   3.297  17.437  0.00  0.00    +0.000 OA
BRANCH  19  22
ATOM     22  N   UNL     1       5.227   5.110  17.565  0.00  0.00    +0.000 NA
ATOM     23  C   UNL     1       5.224   5.031  16.088  0.00  0.00    +0.000 C 
ATOM     24  C   UNL     1       6.412   4.226  15.557  0.00  0.00    +0.000 C 
ATOM     25  O   UNL     1       7.656   4.698  16.087  0.00  0.00    +0.000 OA
ATOM     26  C   UNL     1       7.672   4.620  17.518  0.00  0.00    +0.000 C 
ATOM     27  C   UNL     1       6.546   5.444  18.143  0.00  0.00    +0.000 C 
ENDBRANCH  19  22
ENDBRANCH   6  19
BRANCH   1  29
ATOM     28  C   UNL     1       2.246   2.480  21.583  0.00  0.00    +0.000 C 
ATOM     29  O   UNL     1       2.419   3.241  20.411  0.00  0.00    +0.000 OA
ENDBRANCH   1  29
TORSDOF 7
ENDMDL
MODEL 6
REMARK VINA RESULT:      -7.4      1.546      1.548
REMARK  Name = 
REMARK  9 active torsions:
REMARK  status: ('A' for Active; 'I' for Inactive)
REMARK    1  A    between atoms: C_1  and  O_2
REMARK    2  A    between atoms: O_2  and  C_3
REMARK    3  A    between atoms: C_6  and  N_7
REMARK    4  A    between atoms: C_8  and  C_10
REMARK    5  A    between atoms: C_10  and  S_11
REMARK    6  A    between atoms: S_11  and  C_12
REMARK    7  A    between atoms: C_15  and  C_16
REMARK    8  A    between atoms: C_19  and  S_20
REMARK    9  A    between atoms: S_20  and  N_23
REMARK                            x       y       z     vdW  Elec       q    Type
REMARK                         _______ _______ _______ _____ _____    ______ ____
ROOT
ATOM      1  C   UNL     1       2.740   3.867  20.101  0.00  0.00    +0.000 A 
ATOM      2  C   UNL     1       1.645   4.348  20.821  0.00  0.00    +0.000 A 
ATOM      3  C   UNL     1       1.280   5.721  20.726  0.00  0.00    +0.000 A 
ATOM      4  C   UNL     1       1.997   6.627  19.924  0.00  0.00    +0.000 A 
ATOM      5  C   UNL     1       3.079   6.133  19.197  0.00  0.00    +0.000 A 
ATOM      6  C   UNL     1       3.430   4.775  19.281  0.00  0.00    +0.000 A 
ENDROOT
BRANCH   4   7
ATOM      7  N   UNL     1       1.725   8.012  19.815  0.00  0.00    +0.000 N 
ATOM      8  C   UNL     1       1.068   8.816  20.743  0.00  0.00    +0.000 C 
ATOM      9  O   UNL     1       0.547   8.401  21.775  0.00  0.00    +0.000 OA
ATOM     10  H   UNL     1       2.022   8.463  18.955  0.00  0.00    +0.000 HD
BRANCH   8  11
ATOM     11  C   UNL     1       1.046  10.312  20.404  0.00  0.00    +0.000 C 
BRANCH  11  12
ATOM     12  S   UNL     1       0.919  10.552  18.595  0.00  0.00    +0.000 S 
BRANCH  12  13
ATOM     13  C   UNL     1      -0.770  10.975  18.509  0.00  0.00    +0.000 A 
ATOM     14  N   UNL     1      -1.300  11.830  19.354  0.00  0.00    +0.000 NA
ATOM     15  N   UNL     1      -2.657  11.972  19.164  0.00  0.00    +0.000 NA
ATOM     16  C   UNL     1      -3.096  11.219  18.178  0.00  0.00    +0.000 A 
ATOM     17  C   UNL     1      -4.514  11.131  17.750  0.00  0.00    +0.000 C 
ATOM     18  S   UNL     1      -1.873  10.297  17.393  0.00  0.00    +0.000 S 
ENDBRANCH  12  13
ENDBRANCH  11  12
ENDBRANCH   8  11
ENDBRANCH   4   7
BRANCH   6  19
ATOM     19  S   UNL     1       4.811   4.161  18.310  0.00  0.00    +0.000 S 
ATOM     20  O   UNL     1       5.926   3.948  19.200  0.00  0.00    +0.000 OA
ATOM     21  O   UNL     1       4.311   3.077  17.489  0.00  0.00    +0.000 OA
BRANCH  19  22
ATOM     22  N   UNL     1       5.130   5.454  17.266  0.00  0.00    +0.000 NA
ATOM     23  C   UNL     1       5.285   5.162  15.824  0.00  0.00    +0.000 C 
ATOM     24  C   UNL     1       6.757   5.049  15.419  0.00  0.00    +0.000 C 
ATOM     25  O   UNL     1       7.516   6.189  15.841  0.00  0.00    +0.000 OA
ATOM     26  C   UNL     1       7.458   6.351  17.264  0.00  0.00    +0.000 C 
ATOM     27  C   UNL     1       6.022   6.527  17.757  0.00  0.00    +0.000 C 
ENDBRANCH  19  22
ENDBRANCH   6  19
BRANCH   1  29
ATOM     28  C   UNL     1       3.898   1.925  21.135  0.00  0.00    +0.000 C 
ATOM     29  O   UNL     1       3.265   2.625  20.090  0.00  0.00    +0.000 OA
ENDBRANCH   1  29
TORSDOF 7
ENDMDL
MODEL 7
REMARK VINA RESULT:      -7.3      2.751      3.369
REMARK  Name = 
REMARK  9 active torsions:
REMARK  status: ('A' for Active; 'I' for Inactive)
REMARK    1  A    between atoms: C_1  and  O_2
REMARK    2  A    between atoms: O_2  and  C_3
REMARK    3  A    between atoms: C_6  and  N_7
REMARK    4  A    between atoms: C_8  and  C_10
REMARK    5  A    between atoms: C_10  and  S_11
REMARK    6  A    between atoms: S_11  and  C_12
REMARK    7  A    between atoms: C_15  and  C_16
REMARK    8  A    between atoms: C_19  and  S_20
REMARK    9  A    between atoms: S_20  and  N_23
REMARK                            x       y       z     vdW  Elec       q    Type
REMARK                         _______ _______ _______ _____ _____    ______ ____
ROOT
ATOM      1  C   UNL     1       2.525   3.648  19.477  0.00  0.00    +0.000 A 
ATOM      2  C   UNL     1       1.204   3.849  19.880  0.00  0.00    +0.000 A 
ATOM      3  C   UNL     1       0.812   5.103  20.428  0.00  0.00    +0.000 A 
ATOM      4  C   UNL     1       1.723   6.163  20.586  0.00  0.00    +0.000 A 
ATOM      5  C   UNL     1       3.035   5.957  20.166  0.00  0.00    +0.000 A 
ATOM      6  C   UNL     1       3.419   4.723  19.612  0.00  0.00    +0.000 A 
ENDROOT
BRANCH   4   7
ATOM      7  N   UNL     1       1.421   7.419  21.164  0.00  0.00    +0.000 N 
ATOM      8  C   UNL     1       1.251   8.632  20.501  0.00  0.00    +0.000 C 
ATOM      9  O   UNL     1       1.427   8.795  19.296  0.00  0.00    +0.000 OA
ATOM     10  H   UNL     1       1.343   7.442  22.176  0.00  0.00    +0.000 HD
BRANCH   8  11
ATOM     11  C   UNL     1       0.793   9.797  21.388  0.00  0.00    +0.000 C 
BRANCH  11  12
ATOM     12  S   UNL     1      -0.067  11.061  20.384  0.00  0.00    +0.000 S 
BRANCH  12  13
ATOM     13  C   UNL     1       1.236  12.211  20.247  0.00  0.00    +0.000 A 
ATOM     14  N   UNL     1       1.802  12.727  21.314  0.00  0.00    +0.000 NA
ATOM     15  N   UNL     1       2.757  13.665  20.991  0.00  0.00    +0.000 NA
ATOM     16  C   UNL     1       2.877  13.816  19.689  0.00  0.00    +0.000 A 
ATOM     17  C   UNL     1       3.801  14.772  19.031  0.00  0.00    +0.000 C 
ATOM     18  S   UNL     1       1.842  12.801  18.762  0.00  0.00    +0.000 S 
ENDBRANCH  12  13
ENDBRANCH  11  12
ENDBRANCH   8  11
ENDBRANCH   4   7
BRANCH   6  19
ATOM     19  S   UNL     1       5.110   4.496  19.052  0.00  0.00    +0.000 S 
ATOM     20  O   UNL     1       5.898   5.598  19.547  0.00  0.00    +0.000 OA
ATOM     21  O   UNL     1       5.485   3.131  19.360  0.00  0.00    +0.000 OA
BRANCH  19  22
ATOM     22  N   UNL     1       4.957   4.591  17.370  0.00  0.00    +0.000 NA
ATOM     23  C   UNL     1       5.889   3.795  16.540  0.00  0.00    +0.000 C 
ATOM     24  C   UNL     1       7.065   4.635  16.037  0.00  0.00    +0.000 C 
ATOM     25  O   UNL     1       6.626   5.833  15.387  0.00  0.00    +0.000 OA
ATOM     26  C   UNL     1       5.847   6.647  16.274  0.00  0.00    +0.000 C 
ATOM     27  C   UNL     1       4.613   5.905  16.786  0.00  0.00    +0.000 C 
ENDBRANCH  19  22
ENDBRANCH   6  19
BRANCH   1  29
ATOM     28  C   UNL     1       2.714   1.770  17.859  0.00  0.00    +0.000 C 
ATOM     29  O   UNL     1       3.096   2.531  18.979  0.00  0.00    +0.000 OA
ENDBRANCH   1  29
TORSDOF 7
ENDMDL
MODEL 8
REMARK VINA RESULT:      -7.3      1.067      1.067
REMARK  Name = 
REMARK  9 active torsions:
REMARK  status: ('A' for Active; 'I' for Inactive)
REMARK    1  A    between atoms: C_1  and  O_2
REMARK    2  A    between atoms: O_2  and  C_3
REMARK    3  A    between atoms: C_6  and  N_7
REMARK    4  A    between atoms: C_8  and  C_10
REMARK    5  A    between atoms: C_10  and  S_11
REMARK    6  A    between atoms: S_11  and  C_12
REMARK    7  A    between atoms: C_15  and  C_16
REMARK    8  A    between atoms: C_19  and  S_20
REMARK    9  A    between atoms: S_20  and  N_23
REMARK                            x       y       z     vdW  Elec       q    Type
REMARK                         _______ _______ _______ _____ _____    ______ ____
ROOT
ATOM      1  C   UNL     1       2.704   4.512  20.283  0.00  0.00    +0.000 A 
ATOM      2  C   UNL     1       1.543   5.049  20.841  0.00  0.00    +0.000 A 
ATOM      3  C   UNL     1       1.220   6.420  20.629  0.00  0.00    +0.000 A 
ATOM      4  C   UNL     1       2.045   7.268  19.869  0.00  0.00    +0.000 A 
ATOM      5  C   UNL     1       3.193   6.718  19.303  0.00  0.00    +0.000 A 
ATOM      6  C   UNL     1       3.504   5.362  19.501  0.00  0.00    +0.000 A 
ENDROOT
BRANCH   4   7
ATOM      7  N   UNL     1       1.817   8.648  19.653  0.00  0.00    +0.000 N 
ATOM      8  C   UNL     1       1.669   9.296  18.429  0.00  0.00    +0.000 C 
ATOM      9  O   UNL     1       1.804   8.751  17.335  0.00  0.00    +0.000 OA
ATOM     10  H   UNL     1       1.780   9.234  20.482  0.00  0.00    +0.000 HD
BRANCH   8  11
ATOM     11  C   UNL     1       1.295  10.780  18.521  0.00  0.00    +0.000 C 
BRANCH  11  12
ATOM     12  S   UNL     1       0.286  11.089  20.016  0.00  0.00    +0.000 S 
BRANCH  12  13
ATOM     13  C   UNL     1      -1.259  11.317  19.241  0.00  0.00    +0.000 A 
ATOM     14  N   UNL     1      -2.197  12.048  19.798  0.00  0.00    +0.000 NA
ATOM     15  N   UNL     1      -3.362  12.043  19.062  0.00  0.00    +0.000 NA
ATOM     16  C   UNL     1      -3.253  11.310  17.975  0.00  0.00    +0.000 A 
ATOM     17  C   UNL     1      -4.344  11.084  16.996  0.00  0.00    +0.000 C 
ATOM     18  S   UNL     1      -1.705  10.588  17.761  0.00  0.00    +0.000 S 
ENDBRANCH  12  13
ENDBRANCH  11  12
ENDBRANCH   8  11
ENDBRANCH   4   7
BRANCH   6  19
ATOM     19  S   UNL     1       4.976   4.674  18.735  0.00  0.00    +0.000 S 
ATOM     20  O   UNL     1       6.069   4.804  19.666  0.00  0.00    +0.000 OA
ATOM     21  O   UNL     1       4.616   3.375  18.203  0.00  0.00    +0.000 OA
BRANCH  19  22
ATOM     22  N   UNL     1       5.210   5.695  17.406  0.00  0.00    +0.000 NA
ATOM     23  C   UNL     1       5.278   5.083  16.061  0.00  0.00    +0.000 C 
ATOM     24  C   UNL     1       6.723   4.880  15.599  0.00  0.00    +0.000 C 
ATOM     25  O   UNL     1       7.490   6.086  15.701  0.00  0.00    +0.000 OA
ATOM     26  C   UNL     1       7.519   6.567  17.051  0.00  0.00    +0.000 C 
ATOM     27  C   UNL     1       6.115   6.852  17.582  0.00  0.00    +0.000 C 
ENDBRANCH  19  22
ENDBRANCH   6  19
BRANCH   1  29
ATOM     28  C   UNL     1       2.565   2.104  20.885  0.00  0.00    +0.000 C 
ATOM     29  O   UNL     1       3.200   3.263  20.402  0.00  0.00    +0.000 OA
ENDBRANCH   1  29
TORSDOF 7
ENDMDL
MODEL 9
REMARK VINA RESULT:      -7.3      2.337      4.088
REMARK  Name = 
REMARK  9 active torsions:
REMARK  status: ('A' for Active; 'I' for Inactive)
REMARK    1  A    between atoms: C_1  and  O_2
REMARK    2  A    between atoms: O_2  and  C_3
REMARK    3  A    between atoms: C_6  and  N_7
REMARK    4  A    between atoms: C_8  and  C_10
REMARK    5  A    between atoms: C_10  and  S_11
REMARK    6  A    between atoms: S_11  and  C_12
REMARK    7  A    between atoms: C_15  and  C_16
REMARK    8  A    between atoms: C_19  and  S_20
REMARK    9  A    between atoms: S_20  and  N_23
REMARK                            x       y       z     vdW  Elec       q    Type
REMARK                         _______ _______ _______ _____ _____    ______ ____
ROOT
ATOM      1  C   UNL     1       3.158   7.340  17.920  0.00  0.00    +0.000 A 
ATOM      2  C   UNL     1       2.702   8.596  17.519  0.00  0.00    +0.000 A 
ATOM      3  C   UNL     1       1.806   9.326  18.351  0.00  0.00    +0.000 A 
ATOM      4  C   UNL     1       1.352   8.817  19.580  0.00  0.00    +0.000 A 
ATOM      5  C   UNL     1       1.825   7.569  19.979  0.00  0.00    +0.000 A 
ATOM      6  C   UNL     1       2.720   6.855  19.164  0.00  0.00    +0.000 A 
ENDROOT
BRANCH   4   7
ATOM      7  N   UNL     1       0.427   9.460  20.437  0.00  0.00    +0.000 N 
ATOM      8  C   UNL     1       0.466  10.781  20.879  0.00  0.00    +0.000 C 
ATOM      9  O   UNL     1       1.381  11.565  20.641  0.00  0.00    +0.000 OA
ATOM     10  H   UNL     1      -0.336   8.889  20.787  0.00  0.00    +0.000 HD
BRANCH   8  11
ATOM     11  C   UNL     1      -0.755  11.228  21.692  0.00  0.00    +0.000 C 
BRANCH  11  12
ATOM     12  S   UNL     1      -1.301  12.891  21.158  0.00  0.00    +0.000 S 
BRANCH  12  13
ATOM     13  C   UNL     1      -2.402  12.406  19.896  0.00  0.00    +0.000 A 
ATOM     14  N   UNL     1      -3.702  12.453  20.073  0.00  0.00    +0.000 NA
ATOM     15  N   UNL     1      -4.391  11.962  18.986  0.00  0.00    +0.000 NA
ATOM     16  C   UNL     1      -3.579  11.567  18.028  0.00  0.00    +0.000 A 
ATOM     17  C   UNL     1      -4.017  10.966  16.745  0.00  0.00    +0.000 C 
ATOM     18  S   UNL     1      -1.909  11.790  18.379  0.00  0.00    +0.000 S 
ENDBRANCH  12  13
ENDBRANCH  11  12
ENDBRANCH   8  11
ENDBRANCH   4   7
BRANCH   6  19
ATOM     19  S   UNL     1       3.336   5.261  19.718  0.00  0.00    +0.000 S 
ATOM     20  O   UNL     1       4.772   5.347  19.825  0.00  0.00    +0.000 OA
ATOM     21  O   UNL     1       2.539   4.866  20.862  0.00  0.00    +0.000 OA
BRANCH  19  22
ATOM     22  N   UNL     1       2.901   4.235  18.445  0.00  0.00    +0.000 NA
ATOM     23  C   UNL     1       1.464   3.943  18.247  0.00  0.00    +0.000 C 
ATOM     24  C   UNL     1       1.061   2.607  18.875  0.00  0.00    +0.000 C 
ATOM     25  O   UNL     1       1.911   1.537  18.445  0.00  0.00    +0.000 OA
ATOM     26  C   UNL     1       3.280   1.794  18.788  0.00  0.00    +0.000 C 
ATOM     27  C   UNL     1       3.789   3.089  18.155  0.00  0.00    +0.000 C 
ENDBRANCH  19  22
ENDBRANCH   6  19
BRANCH   1  29
ATOM     28  C   UNL     1       5.045   6.771  16.405  0.00  0.00    +0.000 C 
ATOM     29  O   UNL     1       3.967   6.483  17.263  0.00  0.00    +0.000 OA
ENDBRANCH   1  29
TORSDOF 7
ENDMDL
