MODEL 1
REMARK VINA RESULT:      -8.4      0.000      0.000
REMARK  Name = 
REMARK  7 active torsions:
REMARK  status: ('A' for Active; 'I' for Inactive)
REMARK    1  A    between atoms: C_1  and  C_2
REMARK    2  A    between atoms: C_5  and  C_6
REMARK    3  A    between atoms: N_8  and  C_9
REMARK    4  A    between atoms: C_16  and  C_17
REMARK    5  A    between atoms: N_19  and  C_20
REMARK    6  A    between atoms: N_19  and  C_21
REMARK    7  A    between atoms: C_21  and  C_22
REMARK                            x       y       z     vdW  Elec       q    Type
REMARK                         _______ _______ _______ _____ _____    ______ ____
ROOT
ATOM      1  C   UNL     1       1.076   9.069  19.950  0.00  0.00    +0.000 A 
ATOM      2  N   UNL     1       1.846   7.975  19.804  0.00  0.00    +0.000 NA
ATOM      3  N   UNL     1       2.193   7.955  18.500  0.00  0.00    +0.000 N 
ATOM      4  C   UNL     1       1.628   9.007  17.820  0.00  0.00    +0.000 A 
ATOM      5  C   UNL     1       0.916   9.778  18.718  0.00  0.00    +0.000 A 
ENDROOT
BRANCH   1  10
ATOM      6  C   UNL     1      -1.745  11.325  23.318  0.00  0.00    +0.000 C 
ATOM      7  C   UNL     1      -0.687  10.405  22.867  0.00  0.00    +0.000 A 
ATOM      8  C   UNL     1       0.159   9.531  23.519  0.00  0.00    +0.000 A 
ATOM      9  C   UNL     1       0.928   8.906  22.510  0.00  0.00    +0.000 A 
ATOM     10  C   UNL     1       0.521   9.435  21.295  0.00  0.00    +0.000 A 
ATOM     11  O   UNL     1      -0.458  10.361  21.524  0.00  0.00    +0.000 OA
ENDBRANCH   1  10
BRANCH   3  12
ATOM     12  C   UNL     1       3.041   6.943  17.962  0.00  0.00    +0.000 A 
ATOM     13  C   UNL     1       2.707   5.591  18.113  0.00  0.00    +0.000 A 
ATOM     14  C   UNL     1       3.528   4.600  17.563  0.00  0.00    +0.000 A 
ATOM     15  C   UNL     1       4.690   4.952  16.875  0.00  0.00    +0.000 A 
ATOM     16  C   UNL     1       5.034   6.294  16.735  0.00  0.00    +0.000 A 
ATOM     17  C   UNL     1       4.215   7.287  17.272  0.00  0.00    +0.000 A 
ENDBRANCH   3  12
BRANCH   5  18
ATOM     18  C   UNL     1       0.117  10.956  18.400  0.00  0.00    +0.000 C 
ATOM     19  O   UNL     1       0.618  12.080  18.419  0.00  0.00    +0.000 OA
ATOM     20  N   UNL     1      -1.254  10.805  18.125  0.00  0.00    +0.000 N 
ATOM     21  C   UNL     1      -1.987   9.557  17.970  0.00  0.00    +0.000 C 
BRANCH  20  22
ATOM     22  C   UNL     1      -2.018  12.001  17.777  0.00  0.00    +0.000 C 
BRANCH  22  23
ATOM     23  C   UNL     1      -3.296  12.237  18.588  0.00  0.00    +0.000 A 
ATOM     24  N   UNL     1      -3.282  12.463  19.871  0.00  0.00    +0.000 NA
ATOM     25  C   UNL     1      -4.536  12.549  20.521  0.00  0.00    +0.000 A 
ATOM     26  C   UNL     1      -4.621  13.040  21.827  0.00  0.00    +0.000 A 
ATOM     27  C   UNL     1      -5.866  13.145  22.470  0.00  0.00    +0.000 A 
ATOM     28  C   UNL     1      -7.029  12.704  21.840  0.00  0.00    +0.000 A 
ATOM     29  C   UNL     1      -6.959  12.182  20.551  0.00  0.00    +0.000 A 
ATOM     30  C   UNL     1      -5.724  12.150  19.897  0.00  0.00    +0.000 A 
ATOM     31  C   UNL     1      -5.641  11.792  18.475  0.00  0.00    +0.000 A 
ATOM     32  O   UNL     1      -6.555  11.230  17.887  0.00  0.00    +0.000 OA
ATOM     33  N   UNL     1      -4.456  12.108  17.868  0.00  0.00    +0.000 N 
ATOM     34  H   UNL     1      -4.412  11.932  16.871  0.00  0.00    +0.000 HD
ENDBRANCH  22  23
ENDBRANCH  20  22
ENDBRANCH   5  18
TORSDOF 5
ENDMDL
MODEL 2
REMARK VINA RESULT:      -8.1      2.669      8.689
REMARK  Name = 
REMARK  7 active torsions:
REMARK  status: ('A' for Active; 'I' for Inactive)
REMARK    1  A    between atoms: C_1  and  C_2
REMARK    2  A    between atoms: C_5  and  C_6
REMARK    3  A    between atoms: N_8  and  C_9
REMARK    4  A    between atoms: C_16  and  C_17
REMARK    5  A    between atoms: N_19  and  C_20
REMARK    6  A    between atoms: N_19  and  C_21
REMARK    7  A    between atoms: C_21  and  C_22
REMARK                            x       y       z     vdW  Elec       q    Type
REMARK                         _______ _______ _______ _____ _____    ______ ____
ROOT
ATOM      1  C   UNL     1      -0.008  12.082  19.059  0.00  0.00    +0.000 A 
ATOM      2  N   UNL     1      -1.203  12.609  18.735  0.00  0.00    +0.000 NA
ATOM      3  N   UNL     1      -2.058  11.565  18.710  0.00  0.00    +0.000 N 
ATOM      4  C   UNL     1      -1.410  10.386  18.989  0.00  0.00    +0.000 A 
ATOM      5  C   UNL     1      -0.083  10.666  19.252  0.00  0.00    +0.000 A 
ENDROOT
BRANCH   1  10
ATOM      6  C   UNL     1       3.831  14.321  21.214  0.00  0.00    +0.000 C 
ATOM      7  C   UNL     1       2.922  14.015  20.094  0.00  0.00    +0.000 A 
ATOM      8  C   UNL     1       2.869  14.412  18.774  0.00  0.00    +0.000 A 
ATOM      9  C   UNL     1       1.766  13.733  18.207  0.00  0.00    +0.000 A 
ATOM     10  C   UNL     1       1.197  12.963  19.209  0.00  0.00    +0.000 A 
ATOM     11  O   UNL     1       1.903  13.153  20.364  0.00  0.00    +0.000 OA
ENDBRANCH   1  10
BRANCH   3  12
ATOM     12  C   UNL     1      -3.444  11.734  18.425  0.00  0.00    +0.000 A 
ATOM     13  C   UNL     1      -3.947  11.414  17.157  0.00  0.00    +0.000 A 
ATOM     14  C   UNL     1      -5.313  11.557  16.887  0.00  0.00    +0.000 A 
ATOM     15  C   UNL     1      -6.178  12.035  17.872  0.00  0.00    +0.000 A 
ATOM     16  C   UNL     1      -5.682  12.369  19.129  0.00  0.00    +0.000 A 
ATOM     17  C   UNL     1      -4.323  12.218  19.408  0.00  0.00    +0.000 A 
ENDBRANCH   3  12
BRANCH   5  18
ATOM     18  C   UNL     1       0.965   9.692  19.534  0.00  0.00    +0.000 C 
ATOM     19  O   UNL     1       1.934   9.577  18.784  0.00  0.00    +0.000 OA
ATOM     20  N   UNL     1       0.833   8.840  20.645  0.00  0.00    +0.000 N 
ATOM     21  C   UNL     1      -0.189   8.897  21.680  0.00  0.00    +0.000 C 
BRANCH  20  22
ATOM     22  C   UNL     1       1.917   7.899  20.918  0.00  0.00    +0.000 C 
BRANCH  22  23
ATOM     23  C   UNL     1       1.951   6.645  20.041  0.00  0.00    +0.000 A 
ATOM     24  N   UNL     1       1.528   5.485  20.458  0.00  0.00    +0.000 NA
ATOM     25  C   UNL     1       1.721   4.382  19.592  0.00  0.00    +0.000 A 
ATOM     26  C   UNL     1       1.076   3.168  19.843  0.00  0.00    +0.000 A 
ATOM     27  C   UNL     1       1.249   2.075  18.976  0.00  0.00    +0.000 A 
ATOM     28  C   UNL     1       2.116   2.165  17.887  0.00  0.00    +0.000 A 
ATOM     29  C   UNL     1       2.793   3.357  17.641  0.00  0.00    +0.000 A 
ATOM     30  C   UNL     1       2.555   4.457  18.471  0.00  0.00    +0.000 A 
ATOM     31  C   UNL     1       3.095   5.780  18.130  0.00  0.00    +0.000 A 
ATOM     32  O   UNL     1       3.993   5.929  17.313  0.00  0.00    +0.000 OA
ATOM     33  N   UNL     1       2.538   6.825  18.815  0.00  0.00    +0.000 N 
ATOM     34  H   UNL     1       2.850   7.748  18.538  0.00  0.00    +0.000 HD
ENDBRANCH  22  23
ENDBRANCH  20  22
ENDBRANCH   5  18
TORSDOF 5
ENDMDL
MODEL 3
REMARK VINA RESULT:      -8.0      1.143      1.700
REMARK  Name = 
REMARK  7 active torsions:
REMARK  status: ('A' for Active; 'I' for Inactive)
REMARK    1  A    between atoms: C_1  and  C_2
REMARK    2  A    between atoms: C_5  and  C_6
REMARK    3  A    between atoms: N_8  and  C_9
REMARK    4  A    between atoms: C_16  and  C_17
REMARK    5  A    between atoms: N_19  and  C_20
REMARK    6  A    between atoms: N_19  and  C_21
REMARK    7  A    between atoms: C_21  and  C_22
REMARK                            x       y       z     vdW  Elec       q    Type
REMARK                         _______ _______ _______ _____ _____    ______ ____
ROOT
ATOM      1  C   UNL     1       1.181   8.831  19.939  0.00  0.00    +0.000 A 
ATOM      2  N   UNL     1       1.992   7.761  19.856  0.00  0.00    +0.000 NA
ATOM      3  N   UNL     1       2.328   7.669  18.552  0.00  0.00    +0.000 N 
ATOM      4  C   UNL     1       1.716   8.652  17.811  0.00  0.00    +0.000 A 
ATOM      5  C   UNL     1       0.983   9.452  18.665  0.00  0.00    +0.000 A 
ENDROOT
BRANCH   1  10
ATOM      6  C   UNL     1      -1.685  11.206  23.187  0.00  0.00    +0.000 C 
ATOM      7  C   UNL     1      -0.602  10.291  22.783  0.00  0.00    +0.000 A 
ATOM      8  C   UNL     1       0.274   9.485  23.480  0.00  0.00    +0.000 A 
ATOM      9  C   UNL     1       1.055   8.822  22.505  0.00  0.00    +0.000 A 
ATOM     10  C   UNL     1       0.624   9.263  21.263  0.00  0.00    +0.000 A 
ATOM     11  O   UNL     1      -0.381  10.171  21.444  0.00  0.00    +0.000 OA
ENDBRANCH   1  10
BRANCH   3  12
ATOM     12  C   UNL     1       3.210   6.658  18.071  0.00  0.00    +0.000 A 
ATOM     13  C   UNL     1       4.356   7.009  17.346  0.00  0.00    +0.000 A 
ATOM     14  C   UNL     1       5.233   6.015  16.895  0.00  0.00    +0.000 A 
ATOM     15  C   UNL     1       4.964   4.671  17.153  0.00  0.00    +0.000 A 
ATOM     16  C   UNL     1       3.819   4.315  17.860  0.00  0.00    +0.000 A 
ATOM     17  C   UNL     1       2.946   5.301  18.321  0.00  0.00    +0.000 A 
ENDBRANCH   3  12
BRANCH   5  18
ATOM     18  C   UNL     1       0.134  10.575  18.281  0.00  0.00    +0.000 C 
ATOM     19  O   UNL     1      -0.895  10.390  17.630  0.00  0.00    +0.000 OA
ATOM     20  N   UNL     1       0.531  11.883  18.609  0.00  0.00    +0.000 N 
ATOM     21  C   UNL     1       1.656  12.276  19.445  0.00  0.00    +0.000 C 
BRANCH  20  22
ATOM     22  C   UNL     1      -0.359  12.981  18.239  0.00  0.00    +0.000 C 
BRANCH  22  23
ATOM     23  C   UNL     1      -1.706  13.023  18.966  0.00  0.00    +0.000 A 
ATOM     24  N   UNL     1      -1.843  13.514  20.165  0.00  0.00    +0.000 NA
ATOM     25  C   UNL     1      -3.116  13.388  20.770  0.00  0.00    +0.000 A 
ATOM     26  C   UNL     1      -3.419  14.105  21.931  0.00  0.00    +0.000 A 
ATOM     27  C   UNL     1      -4.688  13.998  22.525  0.00  0.00    +0.000 A 
ATOM     28  C   UNL     1      -5.644  13.128  22.001  0.00  0.00    +0.000 A 
ATOM     29  C   UNL     1      -5.349  12.381  20.864  0.00  0.00    +0.000 A 
ATOM     30  C   UNL     1      -4.107  12.553  20.243  0.00  0.00    +0.000 A 
ATOM     31  C   UNL     1      -3.833  11.935  18.939  0.00  0.00    +0.000 A 
ATOM     32  O   UNL     1      -4.522  11.030  18.487  0.00  0.00    +0.000 OA
ATOM     33  N   UNL     1      -2.737  12.427  18.285  0.00  0.00    +0.000 N 
ATOM     34  H   UNL     1      -2.579  12.061  17.354  0.00  0.00    +0.000 HD
ENDBRANCH  22  23
ENDBRANCH  20  22
ENDBRANCH   5  18
TORSDOF 5
ENDMDL
MODEL 4
REMARK VINA RESULT:      -8.0      1.130      1.403
REMARK  Name = 
REMARK  7 active torsions:
REMARK  status: ('A' for Active; 'I' for Inactive)
REMARK    1  A    between atoms: C_1  and  C_2
REMARK    2  A    between atoms: C_5  and  C_6
REMARK    3  A    between atoms: N_8  and  C_9
REMARK    4  A    between atoms: C_16  and  C_17
REMARK    5  A    between atoms: N_19  and  C_20
REMARK    6  A    between atoms: N_19  and  C_21
REMARK    7  A    between atoms: C_21  and  C_22
REMARK                            x       y       z     vdW  Elec       q    Type
REMARK                         _______ _______ _______ _____ _____    ______ ____
ROOT
ATOM      1  C   UNL     1       1.150   8.815  20.156  0.00  0.00    +0.000 A 
ATOM      2  N   UNL     1       1.999   7.772  20.171  0.00  0.00    +0.000 NA
ATOM      3  N   UNL     1       2.394   7.616  18.890  0.00  0.00    +0.000 N 
ATOM      4  C   UNL     1       1.783   8.532  18.067  0.00  0.00    +0.000 A 
ATOM      5  C   UNL     1       0.987   9.353  18.840  0.00  0.00    +0.000 A 
ENDROOT
BRANCH   1  10
ATOM      6  C   UNL     1      -1.805  11.413  23.142  0.00  0.00    +0.000 C 
ATOM      7  C   UNL     1      -0.751  10.429  22.835  0.00  0.00    +0.000 A 
ATOM      8  C   UNL     1       0.020   9.586  23.609  0.00  0.00    +0.000 A 
ATOM      9  C   UNL     1       0.830   8.861  22.705  0.00  0.00    +0.000 A 
ATOM     10  C   UNL     1       0.522   9.303  21.428  0.00  0.00    +0.000 A 
ATOM     11  O   UNL     1      -0.438  10.272  21.519  0.00  0.00    +0.000 OA
ENDBRANCH   1  10
BRANCH   3  12
ATOM     12  C   UNL     1       3.329   6.610  18.507  0.00  0.00    +0.000 A 
ATOM     13  C   UNL     1       3.471   5.449  19.278  0.00  0.00    +0.000 A 
ATOM     14  C   UNL     1       4.372   4.452  18.887  0.00  0.00    +0.000 A 
ATOM     15  C   UNL     1       5.145   4.615  17.737  0.00  0.00    +0.000 A 
ATOM     16  C   UNL     1       5.019   5.774  16.975  0.00  0.00    +0.000 A 
ATOM     17  C   UNL     1       4.115   6.767  17.353  0.00  0.00    +0.000 A 
ENDBRANCH   3  12
BRANCH   5  18
ATOM     18  C   UNL     1       0.119  10.421  18.354  0.00  0.00    +0.000 C 
ATOM     19  O   UNL     1      -0.850  10.166  17.640  0.00  0.00    +0.000 OA
ATOM     20  N   UNL     1       0.433  11.757  18.661  0.00  0.00    +0.000 N 
ATOM     21  C   UNL     1       1.476  12.232  19.558  0.00  0.00    +0.000 C 
BRANCH  20  22
ATOM     22  C   UNL     1      -0.476  12.798  18.187  0.00  0.00    +0.000 C 
BRANCH  22  23
ATOM     23  C   UNL     1      -1.927  12.685  18.662  0.00  0.00    +0.000 A 
ATOM     24  N   UNL     1      -2.288  12.945  19.886  0.00  0.00    +0.000 NA
ATOM     25  C   UNL     1      -3.639  12.691  20.226  0.00  0.00    +0.000 A 
ATOM     26  C   UNL     1      -4.168  13.177  21.424  0.00  0.00    +0.000 A 
ATOM     27  C   UNL     1      -5.513  12.943  21.758  0.00  0.00    +0.000 A 
ATOM     28  C   UNL     1      -6.324  12.169  20.928  0.00  0.00    +0.000 A 
ATOM     29  C   UNL     1      -5.805  11.649  19.746  0.00  0.00    +0.000 A 
ATOM     30  C   UNL     1      -4.485  11.951  19.393  0.00  0.00    +0.000 A 
ATOM     31  C   UNL     1      -3.965  11.587  18.068  0.00  0.00    +0.000 A 
ATOM     32  O   UNL     1      -4.522  10.770  17.349  0.00  0.00    +0.000 OA
ATOM     33  N   UNL     1      -2.798  12.208  17.716  0.00  0.00    +0.000 N 
ATOM     34  H   UNL     1      -2.467  12.022  16.777  0.00  0.00    +0.000 HD
ENDBRANCH  22  23
ENDBRANCH  20  22
ENDBRANCH   5  18
TORSDOF 5
ENDMDL
MODEL 5
REMARK VINA RESULT:      -8.0      3.311      8.693
REMARK  Name = 
REMARK  7 active torsions:
REMARK  status: ('A' for Active; 'I' for Inactive)
REMARK    1  A    between atoms: C_1  and  C_2
REMARK    2  A    between atoms: C_5  and  C_6
REMARK    3  A    between atoms: N_8  and  C_9
REMARK    4  A    between atoms: C_16  and  C_17
REMARK    5  A    between atoms: N_19  and  C_20
REMARK    6  A    between atoms: N_19  and  C_21
REMARK    7  A    between atoms: C_21  and  C_22
REMARK                            x       y       z     vdW  Elec       q    Type
REMARK                         _______ _______ _______ _____ _____    ______ ____
ROOT
ATOM      1  C   UNL     1      -0.384  11.786  18.811  0.00  0.00    +0.000 A 
ATOM      2  N   UNL     1      -0.054  12.984  18.295  0.00  0.00    +0.000 NA
ATOM      3  N   UNL     1       1.128  13.304  18.863  0.00  0.00    +0.000 N 
ATOM      4  C   UNL     1       1.531  12.334  19.750  0.00  0.00    +0.000 A 
ATOM      5  C   UNL     1       0.602  11.312  19.734  0.00  0.00    +0.000 A 
ENDROOT
BRANCH   1  10
ATOM      6  C   UNL     1      -5.214  10.962  18.188  0.00  0.00    +0.000 C 
ATOM      7  C   UNL     1      -3.780  10.639  18.073  0.00  0.00    +0.000 A 
ATOM      8  C   UNL     1      -3.081   9.592  17.508  0.00  0.00    +0.000 A 
ATOM      9  C   UNL     1      -1.713   9.887  17.702  0.00  0.00    +0.000 A 
ATOM     10  C   UNL     1      -1.643  11.093  18.383  0.00  0.00    +0.000 A 
ATOM     11  O   UNL     1      -2.914  11.538  18.617  0.00  0.00    +0.000 OA
ENDBRANCH   1  10
BRANCH   3  12
ATOM     12  C   UNL     1       1.816  14.509  18.541  0.00  0.00    +0.000 A 
ATOM     13  C   UNL     1       1.247  15.751  18.850  0.00  0.00    +0.000 A 
ATOM     14  C   UNL     1       1.936  16.933  18.554  0.00  0.00    +0.000 A 
ATOM     15  C   UNL     1       3.186  16.882  17.936  0.00  0.00    +0.000 A 
ATOM     16  C   UNL     1       3.750  15.650  17.612  0.00  0.00    +0.000 A 
ATOM     17  C   UNL     1       3.073  14.468  17.914  0.00  0.00    +0.000 A 
ENDBRANCH   3  12
BRANCH   5  18
ATOM     18  C   UNL     1       0.619  10.117  20.571  0.00  0.00    +0.000 C 
ATOM     19  O   UNL     1       0.116  10.131  21.695  0.00  0.00    +0.000 OA
ATOM     20  N   UNL     1       1.268   8.960  20.108  0.00  0.00    +0.000 N 
ATOM     21  C   UNL     1       1.830   8.738  18.783  0.00  0.00    +0.000 C 
BRANCH  20  22
ATOM     22  C   UNL     1       1.237   7.771  20.956  0.00  0.00    +0.000 C 
BRANCH  22  23
ATOM     23  C   UNL     1       1.744   6.478  20.314  0.00  0.00    +0.000 A 
ATOM     24  N   UNL     1       1.054   5.372  20.320  0.00  0.00    +0.000 NA
ATOM     25  C   UNL     1       1.685   4.219  19.795  0.00  0.00    +0.000 A 
ATOM     26  C   UNL     1       0.938   3.068  19.527  0.00  0.00    +0.000 A 
ATOM     27  C   UNL     1       1.556   1.926  18.989  0.00  0.00    +0.000 A 
ATOM     28  C   UNL     1       2.933   1.902  18.770  0.00  0.00    +0.000 A 
ATOM     29  C   UNL     1       3.698   3.028  19.062  0.00  0.00    +0.000 A 
ATOM     30  C   UNL     1       3.058   4.181  19.530  0.00  0.00    +0.000 A 
ATOM     31  C   UNL     1       3.797   5.443  19.661  0.00  0.00    +0.000 A 
ATOM     32  O   UNL     1       5.020   5.488  19.666  0.00  0.00    +0.000 OA
ATOM     33  N   UNL     1       3.016   6.557  19.807  0.00  0.00    +0.000 N 
ATOM     34  H   UNL     1       3.510   7.441  19.826  0.00  0.00    +0.000 HD
ENDBRANCH  22  23
ENDBRANCH  20  22
ENDBRANCH   5  18
TORSDOF 5
ENDMDL
MODEL 6
REMARK VINA RESULT:      -7.9      3.864      7.467
REMARK  Name = 
REMARK  7 active torsions:
REMARK  status: ('A' for Active; 'I' for Inactive)
REMARK    1  A    between atoms: C_1  and  C_2
REMARK    2  A    between atoms: C_5  and  C_6
REMARK    3  A    between atoms: N_8  and  C_9
REMARK    4  A    between atoms: C_16  and  C_17
REMARK    5  A    between atoms: N_19  and  C_20
REMARK    6  A    between atoms: N_19  and  C_21
REMARK    7  A    between atoms: C_21  and  C_22
REMARK                            x       y       z     vdW  Elec       q    Type
REMARK                         _______ _______ _______ _____ _____    ______ ____
ROOT
ATOM      1  C   UNL     1       6.410   5.867  16.632  0.00  0.00    +0.000 A 
ATOM      2  N   UNL     1       6.796   5.495  15.398  0.00  0.00    +0.000 NA
ATOM      3  N   UNL     1       5.844   4.640  14.969  0.00  0.00    +0.000 N 
ATOM      4  C   UNL     1       4.880   4.449  15.929  0.00  0.00    +0.000 A 
ATOM      5  C   UNL     1       5.181   5.243  17.018  0.00  0.00    +0.000 A 
ENDROOT
BRANCH   1  10
ATOM      6  C   UNL     1       8.513  10.153  17.898  0.00  0.00    +0.000 C 
ATOM      7  C   UNL     1       8.211   8.719  18.053  0.00  0.00    +0.000 A 
ATOM      8  C   UNL     1       8.552   7.770  18.995  0.00  0.00    +0.000 A 
ATOM      9  C   UNL     1       7.914   6.574  18.592  0.00  0.00    +0.000 A 
ATOM     10  C   UNL     1       7.224   6.849  17.421  0.00  0.00    +0.000 A 
ATOM     11  O   UNL     1       7.423   8.160  17.092  0.00  0.00    +0.000 OA
ENDBRANCH   1  10
BRANCH   3  12
ATOM     12  C   UNL     1       5.894   4.047  13.674  0.00  0.00    +0.000 A 
ATOM     13  C   UNL     1       4.724   3.560  13.076  0.00  0.00    +0.000 A 
ATOM     14  C   UNL     1       4.771   3.000  11.795  0.00  0.00    +0.000 A 
ATOM     15  C   UNL     1       5.984   2.908  11.112  0.00  0.00    +0.000 A 
ATOM     16  C   UNL     1       7.153   3.377  11.707  0.00  0.00    +0.000 A 
ATOM     17  C   UNL     1       7.111   3.946  12.980  0.00  0.00    +0.000 A 
ENDBRANCH   3  12
BRANCH   5  18
ATOM     18  C   UNL     1       4.447   5.296  18.277  0.00  0.00    +0.000 C 
ATOM     19  O   UNL     1       4.571   4.403  19.115  0.00  0.00    +0.000 OA
ATOM     20  N   UNL     1       3.546   6.351  18.506  0.00  0.00    +0.000 N 
ATOM     21  C   UNL     1       3.344   7.530  17.675  0.00  0.00    +0.000 C 
BRANCH  20  22
ATOM     22  C   UNL     1       2.853   6.393  19.791  0.00  0.00    +0.000 C 
BRANCH  22  23
ATOM     23  C   UNL     1       1.952   7.609  20.025  0.00  0.00    +0.000 A 
ATOM     24  N   UNL     1       1.564   8.392  19.059  0.00  0.00    +0.000 NA
ATOM     25  C   UNL     1       0.830   9.546  19.423  0.00  0.00    +0.000 A 
ATOM     26  C   UNL     1       0.162  10.293  18.449  0.00  0.00    +0.000 A 
ATOM     27  C   UNL     1      -0.584  11.429  18.808  0.00  0.00    +0.000 A 
ATOM     28  C   UNL     1      -0.618  11.865  20.133  0.00  0.00    +0.000 A 
ATOM     29  C   UNL     1       0.069  11.152  21.111  0.00  0.00    +0.000 A 
ATOM     30  C   UNL     1       0.747   9.983  20.750  0.00  0.00    +0.000 A 
ATOM     31  C   UNL     1       1.315   9.102  21.779  0.00  0.00    +0.000 A 
ATOM     32  O   UNL     1       1.492   9.471  22.931  0.00  0.00    +0.000 OA
ATOM     33  N   UNL     1       1.658   7.851  21.342  0.00  0.00    +0.000 N 
ATOM     34  H   UNL     1       1.983   7.210  22.056  0.00  0.00    +0.000 HD
ENDBRANCH  22  23
ENDBRANCH  20  22
ENDBRANCH   5  18
TORSDOF 5
ENDMDL
MODEL 7
REMARK VINA RESULT:      -7.9      2.362      9.119
REMARK  Name = 
REMARK  7 active torsions:
REMARK  status: ('A' for Active; 'I' for Inactive)
REMARK    1  A    between atoms: C_1  and  C_2
REMARK    2  A    between atoms: C_5  and  C_6
REMARK    3  A    between atoms: N_8  and  C_9
REMARK    4  A    between atoms: C_16  and  C_17
REMARK    5  A    between atoms: N_19  and  C_20
REMARK    6  A    between atoms: N_19  and  C_21
REMARK    7  A    between atoms: C_21  and  C_22
REMARK                            x       y       z     vdW  Elec       q    Type
REMARK                         _______ _______ _______ _____ _____    ______ ____
ROOT
ATOM      1  C   UNL     1      -1.915  12.027  20.349  0.00  0.00    +0.000 A 
ATOM      2  N   UNL     1      -2.867  12.857  20.812  0.00  0.00    +0.000 NA
ATOM      3  N   UNL     1      -2.411  13.291  22.006  0.00  0.00    +0.000 N 
ATOM      4  C   UNL     1      -1.197  12.722  22.311  0.00  0.00    +0.000 A 
ATOM      5  C   UNL     1      -0.815  11.915  21.257  0.00  0.00    +0.000 A 
ENDROOT
BRANCH   1  10
ATOM      6  C   UNL     1      -3.731  11.062  15.858  0.00  0.00    +0.000 C 
ATOM      7  C   UNL     1      -2.823  10.859  17.001  0.00  0.00    +0.000 A 
ATOM      8  C   UNL     1      -1.769  10.001  17.240  0.00  0.00    +0.000 A 
ATOM      9  C   UNL     1      -1.282  10.331  18.526  0.00  0.00    +0.000 A 
ATOM     10  C   UNL     1      -2.066  11.366  19.011  0.00  0.00    +0.000 A 
ATOM     11  O   UNL     1      -3.015  11.673  18.077  0.00  0.00    +0.000 OA
ENDBRANCH   1  10
BRANCH   3  12
ATOM     12  C   UNL     1      -3.145  14.221  22.799  0.00  0.00    +0.000 A 
ATOM     13  C   UNL     1      -2.479  15.256  23.469  0.00  0.00    +0.000 A 
ATOM     14  C   UNL     1      -3.204  16.182  24.227  0.00  0.00    +0.000 A 
ATOM     15  C   UNL     1      -4.591  16.071  24.333  0.00  0.00    +0.000 A 
ATOM     16  C   UNL     1      -5.257  15.036  23.682  0.00  0.00    +0.000 A 
ATOM     17  C   UNL     1      -4.541  14.116  22.916  0.00  0.00    +0.000 A 
ENDBRANCH   3  12
BRANCH   5  18
ATOM     18  C   UNL     1       0.381  11.082  21.199  0.00  0.00    +0.000 C 
ATOM     19  O   UNL     1       1.354  11.425  20.526  0.00  0.00    +0.000 OA
ATOM     20  N   UNL     1       0.396   9.849  21.873  0.00  0.00    +0.000 N 
ATOM     21  C   UNL     1      -0.618   9.331  22.781  0.00  0.00    +0.000 C 
BRANCH  20  22
ATOM     22  C   UNL     1       1.621   9.055  21.822  0.00  0.00    +0.000 C 
BRANCH  22  23
ATOM     23  C   UNL     1       1.631   7.906  20.811  0.00  0.00    +0.000 A 
ATOM     24  N   UNL     1       1.455   6.662  21.158  0.00  0.00    +0.000 NA
ATOM     25  C   UNL     1       1.602   5.685  20.145  0.00  0.00    +0.000 A 
ATOM     26  C   UNL     1       1.183   4.371  20.367  0.00  0.00    +0.000 A 
ATOM     27  C   UNL     1       1.310   3.401  19.358  0.00  0.00    +0.000 A 
ATOM     28  C   UNL     1       1.913   3.719  18.142  0.00  0.00    +0.000 A 
ATOM     29  C   UNL     1       2.367   5.015  17.915  0.00  0.00    +0.000 A 
ATOM     30  C   UNL     1       2.169   5.986  18.902  0.00  0.00    +0.000 A 
ATOM     31  C   UNL     1       2.454   7.401  18.625  0.00  0.00    +0.000 A 
ATOM     32  O   UNL     1       3.137   7.756  17.674  0.00  0.00    +0.000 OA
ATOM     33  N   UNL     1       1.924   8.284  19.525  0.00  0.00    +0.000 N 
ATOM     34  H   UNL     1       2.051   9.264  19.306  0.00  0.00    +0.000 HD
ENDBRANCH  22  23
ENDBRANCH  20  22
ENDBRANCH   5  18
TORSDOF 5
ENDMDL
MODEL 8
REMARK VINA RESULT:      -7.9      1.415      2.033
REMARK  Name = 
REMARK  7 active torsions:
REMARK  status: ('A' for Active; 'I' for Inactive)
REMARK    1  A    between atoms: C_1  and  C_2
REMARK    2  A    between atoms: C_5  and  C_6
REMARK    3  A    between atoms: N_8  and  C_9
REMARK    4  A    between atoms: C_16  and  C_17
REMARK    5  A    between atoms: N_19  and  C_20
REMARK    6  A    between atoms: N_19  and  C_21
REMARK    7  A    between atoms: C_21  and  C_22
REMARK                            x       y       z     vdW  Elec       q    Type
REMARK                         _______ _______ _______ _____ _____    ______ ____
ROOT
ATOM      1  C   UNL     1       1.178   8.822  19.981  0.00  0.00    +0.000 A 
ATOM      2  N   UNL     1       2.144   7.885  19.977  0.00  0.00    +0.000 NA
ATOM      3  N   UNL     1       2.476   7.721  18.679  0.00  0.00    +0.000 N 
ATOM      4  C   UNL     1       1.712   8.525  17.866  0.00  0.00    +0.000 A 
ATOM      5  C   UNL     1       0.873   9.281  18.660  0.00  0.00    +0.000 A 
ENDROOT
BRANCH   1  10
ATOM      6  C   UNL     1      -1.748  11.336  23.066  0.00  0.00    +0.000 C 
ATOM      7  C   UNL     1      -0.682  10.377  22.723  0.00  0.00    +0.000 A 
ATOM      8  C   UNL     1       0.128   9.546  23.469  0.00  0.00    +0.000 A 
ATOM      9  C   UNL     1       0.928   8.845  22.538  0.00  0.00    +0.000 A 
ATOM     10  C   UNL     1       0.575   9.288  21.273  0.00  0.00    +0.000 A 
ATOM     11  O   UNL     1      -0.402  10.235  21.397  0.00  0.00    +0.000 OA
ENDBRANCH   1  10
BRANCH   3  12
ATOM     12  C   UNL     1       3.498   6.815  18.273  0.00  0.00    +0.000 A 
ATOM     13  C   UNL     1       3.787   5.684  19.047  0.00  0.00    +0.000 A 
ATOM     14  C   UNL     1       4.774   4.783  18.633  0.00  0.00    +0.000 A 
ATOM     15  C   UNL     1       5.487   5.013  17.456  0.00  0.00    +0.000 A 
ATOM     16  C   UNL     1       5.214   6.143  16.689  0.00  0.00    +0.000 A 
ATOM     17  C   UNL     1       4.224   7.040  17.091  0.00  0.00    +0.000 A 
ENDBRANCH   3  12
BRANCH   5  18
ATOM     18  C   UNL     1      -0.142  10.220  18.195  0.00  0.00    +0.000 C 
ATOM     19  O   UNL     1      -1.113   9.825  17.550  0.00  0.00    +0.000 OA
ATOM     20  N   UNL     1       0.027  11.594  18.438  0.00  0.00    +0.000 N 
ATOM     21  C   UNL     1       1.056  12.223  19.254  0.00  0.00    +0.000 C 
BRANCH  20  22
ATOM     22  C   UNL     1      -1.025  12.503  17.988  0.00  0.00    +0.000 C 
BRANCH  22  23
ATOM     23  C   UNL     1      -2.402  12.299  18.626  0.00  0.00    +0.000 A 
ATOM     24  N   UNL     1      -3.405  11.772  17.981  0.00  0.00    +0.000 NA
ATOM     25  C   UNL     1      -4.654  11.746  18.646  0.00  0.00    +0.000 A 
ATOM     26  C   UNL     1      -5.705  10.978  18.140  0.00  0.00    +0.000 A 
ATOM     27  C   UNL     1      -6.942  10.934  18.807  0.00  0.00    +0.000 A 
ATOM     28  C   UNL     1      -7.159  11.704  19.949  0.00  0.00    +0.000 A 
ATOM     29  C   UNL     1      -6.133  12.500  20.450  0.00  0.00    +0.000 A 
ATOM     30  C   UNL     1      -4.886  12.478  19.816  0.00  0.00    +0.000 A 
ATOM     31  C   UNL     1      -3.728  13.148  20.424  0.00  0.00    +0.000 A 
ATOM     32  O   UNL     1      -3.847  13.981  21.312  0.00  0.00    +0.000 OA
ATOM     33  N   UNL     1      -2.515  12.792  19.901  0.00  0.00    +0.000 N 
ATOM     34  H   UNL     1      -1.705  13.191  20.359  0.00  0.00    +0.000 HD
ENDBRANCH  22  23
ENDBRANCH  20  22
ENDBRANCH   5  18
TORSDOF 5
ENDMDL
MODEL 9
REMARK VINA RESULT:      -7.8      1.858      2.562
REMARK  Name = 
REMARK  7 active torsions:
REMARK  status: ('A' for Active; 'I' for Inactive)
REMARK    1  A    between atoms: C_1  and  C_2
REMARK    2  A    between atoms: C_5  and  C_6
REMARK    3  A    between atoms: N_8  and  C_9
REMARK    4  A    between atoms: C_16  and  C_17
REMARK    5  A    between atoms: N_19  and  C_20
REMARK    6  A    between atoms: N_19  and  C_21
REMARK    7  A    between atoms: C_21  and  C_22
REMARK                            x       y       z     vdW  Elec       q    Type
REMARK                         _______ _______ _______ _____ _____    ______ ____
ROOT
ATOM      1  C   UNL     1       1.145   8.956  19.940  0.00  0.00    +0.000 A 
ATOM      2  N   UNL     1       1.903   7.855  19.791  0.00  0.00    +0.000 NA
ATOM      3  N   UNL     1       2.237   7.826  18.484  0.00  0.00    +0.000 N 
ATOM      4  C   UNL     1       1.675   8.881  17.805  0.00  0.00    +0.000 A 
ATOM      5  C   UNL     1       0.980   9.663  18.706  0.00  0.00    +0.000 A 
ENDROOT
BRANCH   1  10
ATOM      6  C   UNL     1      -1.647  11.226  23.324  0.00  0.00    +0.000 C 
ATOM      7  C   UNL     1      -0.586  10.310  22.867  0.00  0.00    +0.000 A 
ATOM      8  C   UNL     1       0.277   9.452  23.516  0.00  0.00    +0.000 A 
ATOM      9  C   UNL     1       1.036   8.822  22.503  0.00  0.00    +0.000 A 
ATOM     10  C   UNL     1       0.606   9.333  21.288  0.00  0.00    +0.000 A 
ATOM     11  O   UNL     1      -0.377  10.252  21.522  0.00  0.00    +0.000 OA
ENDBRANCH   1  10
BRANCH   3  12
ATOM     12  C   UNL     1       3.069   6.804  17.942  0.00  0.00    +0.000 A 
ATOM     13  C   UNL     1       4.256   7.139  17.277  0.00  0.00    +0.000 A 
ATOM     14  C   UNL     1       5.084   6.133  16.766  0.00  0.00    +0.000 A 
ATOM     15  C   UNL     1       4.725   4.792  16.903  0.00  0.00    +0.000 A 
ATOM     16  C   UNL     1       3.540   4.452  17.550  0.00  0.00    +0.000 A 
ATOM     17  C   UNL     1       2.715   5.451  18.070  0.00  0.00    +0.000 A 
ENDBRANCH   3  12
BRANCH   5  18
ATOM     18  C   UNL     1       0.189  10.847  18.391  0.00  0.00    +0.000 C 
ATOM     19  O   UNL     1      -0.910  10.741  17.846  0.00  0.00    +0.000 OA
ATOM     20  N   UNL     1       0.717  12.121  18.663  0.00  0.00    +0.000 N 
ATOM     21  C   UNL     1       1.946  12.429  19.381  0.00  0.00    +0.000 C 
BRANCH  20  22
ATOM     22  C   UNL     1      -0.116  13.284  18.367  0.00  0.00    +0.000 C 
BRANCH  22  23
ATOM     23  C   UNL     1      -1.100  13.698  19.465  0.00  0.00    +0.000 A 
ATOM     24  N   UNL     1      -0.749  14.431  20.483  0.00  0.00    +0.000 NA
ATOM     25  C   UNL     1      -1.724  14.646  21.486  0.00  0.00    +0.000 A 
ATOM     26  C   UNL     1      -1.521  15.617  22.470  0.00  0.00    +0.000 A 
ATOM     27  C   UNL     1      -2.494  15.847  23.458  0.00  0.00    +0.000 A 
ATOM     28  C   UNL     1      -3.650  15.069  23.508  0.00  0.00    +0.000 A 
ATOM     29  C   UNL     1      -3.854  14.075  22.555  0.00  0.00    +0.000 A 
ATOM     30  C   UNL     1      -2.911  13.906  21.537  0.00  0.00    +0.000 A 
ATOM     31  C   UNL     1      -3.184  13.007  20.408  0.00  0.00    +0.000 A 
ATOM     32  O   UNL     1      -4.068  12.162  20.444  0.00  0.00    +0.000 OA
ATOM     33  N   UNL     1      -2.357  13.166  19.330  0.00  0.00    +0.000 N 
ATOM     34  H   UNL     1      -2.580  12.603  18.518  0.00  0.00    +0.000 HD
ENDBRANCH  22  23
ENDBRANCH  20  22
ENDBRANCH   5  18
TORSDOF 5
ENDMDL
