MODEL 1
REMARK VINA RESULT:      -7.8      0.000      0.000
REMARK  Name = 
REMARK  10 active torsions:
REMARK  status: ('A' for Active; 'I' for Inactive)
REMARK    1  A    between atoms: C_1  and  O_2
REMARK    2  A    between atoms: O_2  and  C_3
REMARK    3  A    between atoms: C_6  and  C_7
REMARK    4  A    between atoms: C_11  and  C_12
REMARK    5  A    between atoms: C_15  and  O_16
REMARK    6  A    between atoms: O_16  and  C_17
REMARK    7  A    between atoms: C_18  and  O_19
REMARK    8  A    between atoms: O_19  and  C_20
REMARK    9  A    between atoms: C_24  and  O_25
REMARK   10  A    between atoms: O_25  and  C_26
REMARK                            x       y       z     vdW  Elec       q    Type
REMARK                         _______ _______ _______ _____ _____    ______ ____
ROOT
ATOM      1  C   UNL     1       3.629   5.705  18.749  0.00  0.00    +0.000 A 
ATOM      2  N   UNL     1       3.268   4.696  19.540  0.00  0.00    +0.000 NA
ATOM      3  C   UNL     1       2.345   5.002  20.445  0.00  0.00    +0.000 A 
ATOM      4  N   UNL     1       1.775   6.189  20.607  0.00  0.00    +0.000 NA
ATOM      5  C   UNL     1       2.202   7.130  19.761  0.00  0.00    +0.000 A 
ATOM      6  N   UNL     1       3.131   6.940  18.823  0.00  0.00    +0.000 NA
ENDROOT
BRANCH   1  10
ATOM      7  C   UNL     1       6.562   5.122  15.646  0.00  0.00    +0.000 A 
ATOM      8  C   UNL     1       5.467   4.255  15.766  0.00  0.00    +0.000 A 
ATOM      9  C   UNL     1       4.519   4.438  16.773  0.00  0.00    +0.000 A 
ATOM     10  C   UNL     1       4.656   5.457  17.724  0.00  0.00    +0.000 A 
ATOM     11  C   UNL     1       5.819   6.244  17.652  0.00  0.00    +0.000 A 
ATOM     12  C   UNL     1       6.774   6.091  16.635  0.00  0.00    +0.000 A 
BRANCH   7  14
ATOM     13  C   UNL     1       6.893   4.353  13.437  0.00  0.00    +0.000 C 
ATOM     14  O   UNL     1       7.424   5.013  14.589  0.00  0.00    +0.000 OA
ENDBRANCH   7  14
BRANCH  12  15
ATOM     15  O   UNL     1       7.798   6.986  16.772  0.00  0.00    +0.000 OA
ATOM     16  C   UNL     1       7.623   8.122  17.599  0.00  0.00    +0.000 C 
ENDBRANCH  12  15
ENDBRANCH   1  10
BRANCH   5  17
ATOM     17  C   UNL     1       1.558   8.457  19.806  0.00  0.00    +0.000 A 
ATOM     18  C   UNL     1       1.438   9.250  18.660  0.00  0.00    +0.000 A 
ATOM     19  C   UNL     1       0.886  10.528  18.730  0.00  0.00    +0.000 A 
ATOM     20  C   UNL     1       0.435  11.063  19.943  0.00  0.00    +0.000 A 
ATOM     21  C   UNL     1       0.530  10.289  21.113  0.00  0.00    +0.000 A 
ATOM     22  C   UNL     1       1.078   8.994  21.018  0.00  0.00    +0.000 A 
BRANCH  20  23
ATOM     23  O   UNL     1      -0.055  12.331  19.790  0.00  0.00    +0.000 OA
ATOM     24  C   UNL     1      -0.964  12.595  18.735  0.00  0.00    +0.000 C 
ENDBRANCH  20  23
BRANCH  21  25
ATOM     25  O   UNL     1       0.108  10.832  22.294  0.00  0.00    +0.000 OA
ATOM     26  C   UNL     1      -0.643  10.022  23.191  0.00  0.00    +0.000 C 
ENDBRANCH  21  25
ENDBRANCH   5  17
TORSDOF 6
ENDMDL
MODEL 2
REMARK VINA RESULT:      -7.6      0.990      7.987
REMARK  Name = 
REMARK  10 active torsions:
REMARK  status: ('A' for Active; 'I' for Inactive)
REMARK    1  A    between atoms: C_1  and  O_2
REMARK    2  A    between atoms: O_2  and  C_3
REMARK    3  A    between atoms: C_6  and  C_7
REMARK    4  A    between atoms: C_11  and  C_12
REMARK    5  A    between atoms: C_15  and  O_16
REMARK    6  A    between atoms: O_16  and  C_17
REMARK    7  A    between atoms: C_18  and  O_19
REMARK    8  A    between atoms: O_19  and  C_20
REMARK    9  A    between atoms: C_24  and  O_25
REMARK   10  A    between atoms: O_25  and  C_26
REMARK                            x       y       z     vdW  Elec       q    Type
REMARK                         _______ _______ _______ _____ _____    ______ ____
ROOT
ATOM      1  C   UNL     1       1.988   6.725  20.081  0.00  0.00    +0.000 A 
ATOM      2  N   UNL     1       1.499   5.660  20.714  0.00  0.00    +0.000 NA
ATOM      3  C   UNL     1       1.988   4.496  20.302  0.00  0.00    +0.000 A 
ATOM      4  N   UNL     1       2.894   4.324  19.348  0.00  0.00    +0.000 NA
ATOM      5  C   UNL     1       3.324   5.454  18.780  0.00  0.00    +0.000 A 
ATOM      6  N   UNL     1       2.895   6.675  19.104  0.00  0.00    +0.000 NA
ENDROOT
BRANCH   1  10
ATOM      7  C   UNL     1       0.720  10.685  21.215  0.00  0.00    +0.000 A 
ATOM      8  C   UNL     1       0.752   9.648  22.158  0.00  0.00    +0.000 A 
ATOM      9  C   UNL     1       1.158   8.364  21.792  0.00  0.00    +0.000 A 
ATOM     10  C   UNL     1       1.494   8.057  20.467  0.00  0.00    +0.000 A 
ATOM     11  C   UNL     1       1.346   9.084  19.519  0.00  0.00    +0.000 A 
ATOM     12  C   UNL     1       0.961  10.388  19.868  0.00  0.00    +0.000 A 
BRANCH   7  14
ATOM     13  C   UNL     1      -0.805  12.136  22.287  0.00  0.00    +0.000 C 
ATOM     14  O   UNL     1       0.438  11.967  21.600  0.00  0.00    +0.000 OA
ENDBRANCH   7  14
BRANCH  12  15
ATOM     15  O   UNL     1       0.910  11.204  18.773  0.00  0.00    +0.000 OA
ATOM     16  C   UNL     1       2.020  12.028  18.467  0.00  0.00    +0.000 C 
ENDBRANCH  12  15
ENDBRANCH   1  10
BRANCH   5  17
ATOM     17  C   UNL     1       4.399   5.368  17.774  0.00  0.00    +0.000 A 
ATOM     18  C   UNL     1       4.534   4.250  16.944  0.00  0.00    +0.000 A 
ATOM     19  C   UNL     1       5.593   4.153  16.041  0.00  0.00    +0.000 A 
ATOM     20  C   UNL     1       6.555   5.164  15.935  0.00  0.00    +0.000 A 
ATOM     21  C   UNL     1       6.445   6.307  16.747  0.00  0.00    +0.000 A 
ATOM     22  C   UNL     1       5.359   6.392  17.641  0.00  0.00    +0.000 A 
BRANCH  20  23
ATOM     23  O   UNL     1       7.511   4.863  15.004  0.00  0.00    +0.000 OA
ATOM     24  C   UNL     1       7.134   4.756  13.641  0.00  0.00    +0.000 C 
ENDBRANCH  20  23
BRANCH  21  25
ATOM     25  O   UNL     1       7.404   7.276  16.649  0.00  0.00    +0.000 OA
ATOM     26  C   UNL     1       7.858   7.912  17.839  0.00  0.00    +0.000 C 
ENDBRANCH  21  25
ENDBRANCH   5  17
TORSDOF 6
ENDMDL
MODEL 3
REMARK VINA RESULT:      -7.6      0.397      8.158
REMARK  Name = 
REMARK  10 active torsions:
REMARK  status: ('A' for Active; 'I' for Inactive)
REMARK    1  A    between atoms: C_1  and  O_2
REMARK    2  A    between atoms: O_2  and  C_3
REMARK    3  A    between atoms: C_6  and  C_7
REMARK    4  A    between atoms: C_11  and  C_12
REMARK    5  A    between atoms: C_15  and  O_16
REMARK    6  A    between atoms: O_16  and  C_17
REMARK    7  A    between atoms: C_18  and  O_19
REMARK    8  A    between atoms: O_19  and  C_20
REMARK    9  A    between atoms: C_24  and  O_25
REMARK   10  A    between atoms: O_25  and  C_26
REMARK                            x       y       z     vdW  Elec       q    Type
REMARK                         _______ _______ _______ _____ _____    ______ ____
ROOT
ATOM      1  C   UNL     1       1.977   7.219  19.787  0.00  0.00    +0.000 A 
ATOM      2  N   UNL     1       1.654   6.319  20.713  0.00  0.00    +0.000 NA
ATOM      3  C   UNL     1       2.278   5.152  20.596  0.00  0.00    +0.000 A 
ATOM      4  N   UNL     1       3.168   4.833  19.665  0.00  0.00    +0.000 NA
ATOM      5  C   UNL     1       3.426   5.806  18.787  0.00  0.00    +0.000 A 
ATOM      6  N   UNL     1       2.851   7.010  18.800  0.00  0.00    +0.000 NA
ENDROOT
BRANCH   1  10
ATOM      7  C   UNL     1      -0.099  10.994  19.887  0.00  0.00    +0.000 A 
ATOM      8  C   UNL     1       0.672  10.632  18.774  0.00  0.00    +0.000 A 
ATOM      9  C   UNL     1       1.349   9.413  18.741  0.00  0.00    +0.000 A 
ATOM     10  C   UNL     1       1.324   8.538  19.834  0.00  0.00    +0.000 A 
ATOM     11  C   UNL     1       0.639   8.971  20.982  0.00  0.00    +0.000 A 
ATOM     12  C   UNL     1      -0.067  10.184  21.029  0.00  0.00    +0.000 A 
BRANCH   7  14
ATOM     13  C   UNL     1      -0.804  12.878  18.650  0.00  0.00    +0.000 C 
ATOM     14  O   UNL     1      -0.856  12.134  19.869  0.00  0.00    +0.000 OA
ENDBRANCH   7  14
BRANCH  12  15
ATOM     15  O   UNL     1      -0.664  10.367  22.245  0.00  0.00    +0.000 OA
ATOM     16  C   UNL     1      -0.233   9.602  23.355  0.00  0.00    +0.000 C 
ENDBRANCH  12  15
ENDBRANCH   1  10
BRANCH   5  17
ATOM     17  C   UNL     1       4.469   5.574  17.771  0.00  0.00    +0.000 A 
ATOM     18  C   UNL     1       4.418   4.474  16.909  0.00  0.00    +0.000 A 
ATOM     19  C   UNL     1       5.444   4.232  15.997  0.00  0.00    +0.000 A 
ATOM     20  C   UNL     1       6.558   5.075  15.911  0.00  0.00    +0.000 A 
ATOM     21  C   UNL     1       6.638   6.198  16.754  0.00  0.00    +0.000 A 
ATOM     22  C   UNL     1       5.583   6.432  17.658  0.00  0.00    +0.000 A 
BRANCH  20  23
ATOM     23  O   UNL     1       7.449   4.648  14.965  0.00  0.00    +0.000 OA
ATOM     24  C   UNL     1       6.994   4.433  13.639  0.00  0.00    +0.000 C 
ENDBRANCH  20  23
BRANCH  21  25
ATOM     25  O   UNL     1       7.741   6.999  16.676  0.00  0.00    +0.000 OA
ATOM     26  C   UNL     1       7.859   8.093  17.579  0.00  0.00    +0.000 C 
ENDBRANCH  21  25
ENDBRANCH   5  17
TORSDOF 6
ENDMDL
MODEL 4
REMARK VINA RESULT:      -7.6      1.142      1.163
REMARK  Name = 
REMARK  10 active torsions:
REMARK  status: ('A' for Active; 'I' for Inactive)
REMARK    1  A    between atoms: C_1  and  O_2
REMARK    2  A    between atoms: O_2  and  C_3
REMARK    3  A    between atoms: C_6  and  C_7
REMARK    4  A    between atoms: C_11  and  C_12
REMARK    5  A    between atoms: C_15  and  O_16
REMARK    6  A    between atoms: O_16  and  C_17
REMARK    7  A    between atoms: C_18  and  O_19
REMARK    8  A    between atoms: O_19  and  C_20
REMARK    9  A    between atoms: C_24  and  O_25
REMARK   10  A    between atoms: O_25  and  C_26
REMARK                            x       y       z     vdW  Elec       q    Type
REMARK                         _______ _______ _______ _____ _____    ______ ____
ROOT
ATOM      1  C   UNL     1       3.318   5.424  19.265  0.00  0.00    +0.000 A 
ATOM      2  N   UNL     1       2.829   4.423  19.993  0.00  0.00    +0.000 NA
ATOM      3  C   UNL     1       1.877   4.773  20.851  0.00  0.00    +0.000 A 
ATOM      4  N   UNL     1       1.394   5.996  21.023  0.00  0.00    +0.000 NA
ATOM      5  C   UNL     1       1.947   6.927  20.242  0.00  0.00    +0.000 A 
ATOM      6  N   UNL     1       2.917   6.693  19.356  0.00  0.00    +0.000 NA
ENDROOT
BRANCH   1  10
ATOM      7  C   UNL     1       6.489   4.743  16.426  0.00  0.00    +0.000 A 
ATOM      8  C   UNL     1       5.150   4.765  16.010  0.00  0.00    +0.000 A 
ATOM      9  C   UNL     1       4.122   4.981  16.928  0.00  0.00    +0.000 A 
ATOM     10  C   UNL     1       4.387   5.128  18.296  0.00  0.00    +0.000 A 
ATOM     11  C   UNL     1       5.724   4.990  18.704  0.00  0.00    +0.000 A 
ATOM     12  C   UNL     1       6.777   4.795  17.795  0.00  0.00    +0.000 A 
BRANCH   7  14
ATOM     13  C   UNL     1       7.083   4.643  14.142  0.00  0.00    +0.000 C 
ATOM     14  O   UNL     1       7.500   4.651  15.510  0.00  0.00    +0.000 OA
ENDBRANCH   7  14
BRANCH  12  15
ATOM     15  O   UNL     1       7.981   4.712  18.436  0.00  0.00    +0.000 OA
ATOM     16  C   UNL     1       8.231   5.540  19.557  0.00  0.00    +0.000 C 
ENDBRANCH  12  15
ENDBRANCH   1  10
BRANCH   5  17
ATOM     17  C   UNL     1       1.409   8.299  20.298  0.00  0.00    +0.000 A 
ATOM     18  C   UNL     1       1.357   9.111  19.161  0.00  0.00    +0.000 A 
ATOM     19  C   UNL     1       0.906  10.428  19.242  0.00  0.00    +0.000 A 
ATOM     20  C   UNL     1       0.493  10.984  20.458  0.00  0.00    +0.000 A 
ATOM     21  C   UNL     1       0.522  10.193  21.621  0.00  0.00    +0.000 A 
ATOM     22  C   UNL     1       0.967   8.860  21.514  0.00  0.00    +0.000 A 
BRANCH  20  23
ATOM     23  O   UNL     1       0.105  12.288  20.318  0.00  0.00    +0.000 OA
ATOM     24  C   UNL     1      -1.208  12.569  19.861  0.00  0.00    +0.000 C 
ENDBRANCH  20  23
BRANCH  21  25
ATOM     25  O   UNL     1       0.138  10.755  22.806  0.00  0.00    +0.000 OA
ATOM     26  C   UNL     1      -1.240  10.730  23.161  0.00  0.00    +0.000 C 
ENDBRANCH  21  25
ENDBRANCH   5  17
TORSDOF 6
ENDMDL
MODEL 5
REMARK VINA RESULT:      -7.6      0.925      1.924
REMARK  Name = 
REMARK  10 active torsions:
REMARK  status: ('A' for Active; 'I' for Inactive)
REMARK    1  A    between atoms: C_1  and  O_2
REMARK    2  A    between atoms: O_2  and  C_3
REMARK    3  A    between atoms: C_6  and  C_7
REMARK    4  A    between atoms: C_11  and  C_12
REMARK    5  A    between atoms: C_15  and  O_16
REMARK    6  A    between atoms: O_16  and  C_17
REMARK    7  A    between atoms: C_18  and  O_19
REMARK    8  A    between atoms: O_19  and  C_20
REMARK    9  A    between atoms: C_24  and  O_25
REMARK   10  A    between atoms: O_25  and  C_26
REMARK                            x       y       z     vdW  Elec       q    Type
REMARK                         _______ _______ _______ _____ _____    ______ ____
ROOT
ATOM      1  C   UNL     1       3.409   5.443  18.817  0.00  0.00    +0.000 A 
ATOM      2  N   UNL     1       3.001   4.334  19.430  0.00  0.00    +0.000 NA
ATOM      3  C   UNL     1       2.125   4.530  20.408  0.00  0.00    +0.000 A 
ATOM      4  N   UNL     1       1.643   5.703  20.800  0.00  0.00    +0.000 NA
ATOM      5  C   UNL     1       2.110   6.752  20.118  0.00  0.00    +0.000 A 
ATOM      6  N   UNL     1       3.000   6.675  19.127  0.00  0.00    +0.000 NA
ENDROOT
BRANCH   1  10
ATOM      7  C   UNL     1       6.186   5.216  15.528  0.00  0.00    +0.000 A 
ATOM      8  C   UNL     1       5.195   4.238  15.696  0.00  0.00    +0.000 A 
ATOM      9  C   UNL     1       4.299   4.307  16.762  0.00  0.00    +0.000 A 
ATOM     10  C   UNL     1       4.390   5.320  17.725  0.00  0.00    +0.000 A 
ATOM     11  C   UNL     1       5.459   6.224  17.599  0.00  0.00    +0.000 A 
ATOM     12  C   UNL     1       6.359   6.186  16.523  0.00  0.00    +0.000 A 
BRANCH   7  14
ATOM     13  C   UNL     1       6.698   4.188  13.464  0.00  0.00    +0.000 C 
ATOM     14  O   UNL     1       6.986   5.213  14.418  0.00  0.00    +0.000 OA
ENDBRANCH   7  14
BRANCH  12  15
ATOM     15  O   UNL     1       7.293   7.180  16.617  0.00  0.00    +0.000 OA
ATOM     16  C   UNL     1       7.745   7.590  17.895  0.00  0.00    +0.000 C 
ENDBRANCH  12  15
ENDBRANCH   1  10
BRANCH   5  17
ATOM     17  C   UNL     1       1.561   8.086  20.422  0.00  0.00    +0.000 A 
ATOM     18  C   UNL     1       1.072   8.402  21.693  0.00  0.00    +0.000 A 
ATOM     19  C   UNL     1       0.496   9.647  21.949  0.00  0.00    +0.000 A 
ATOM     20  C   UNL     1       0.386  10.619  20.948  0.00  0.00    +0.000 A 
ATOM     21  C   UNL     1       0.878  10.339  19.660  0.00  0.00    +0.000 A 
ATOM     22  C   UNL     1       1.469   9.082  19.428  0.00  0.00    +0.000 A 
BRANCH  20  23
ATOM     23  O   UNL     1      -0.220  11.756  21.406  0.00  0.00    +0.000 OA
ATOM     24  C   UNL     1      -0.933  11.710  22.631  0.00  0.00    +0.000 C 
ENDBRANCH  20  23
BRANCH  21  25
ATOM     25  O   UNL     1       0.742  11.289  18.687  0.00  0.00    +0.000 OA
ATOM     26  C   UNL     1       1.773  12.257  18.527  0.00  0.00    +0.000 C 
ENDBRANCH  21  25
ENDBRANCH   5  17
TORSDOF 6
ENDMDL
MODEL 6
REMARK VINA RESULT:      -7.2      1.385      2.158
REMARK  Name = 
REMARK  10 active torsions:
REMARK  status: ('A' for Active; 'I' for Inactive)
REMARK    1  A    between atoms: C_1  and  O_2
REMARK    2  A    between atoms: O_2  and  C_3
REMARK    3  A    between atoms: C_6  and  C_7
REMARK    4  A    between atoms: C_11  and  C_12
REMARK    5  A    between atoms: C_15  and  O_16
REMARK    6  A    between atoms: O_16  and  C_17
REMARK    7  A    between atoms: C_18  and  O_19
REMARK    8  A    between atoms: O_19  and  C_20
REMARK    9  A    between atoms: C_24  and  O_25
REMARK   10  A    between atoms: O_25  and  C_26
REMARK                            x       y       z     vdW  Elec       q    Type
REMARK                         _______ _______ _______ _____ _____    ______ ____
ROOT
ATOM      1  C   UNL     1       3.296   5.237  19.278  0.00  0.00    +0.000 A 
ATOM      2  N   UNL     1       2.795   4.207  19.958  0.00  0.00    +0.000 NA
ATOM      3  C   UNL     1       1.838   4.526  20.823  0.00  0.00    +0.000 A 
ATOM      4  N   UNL     1       1.361   5.744  21.044  0.00  0.00    +0.000 NA
ATOM      5  C   UNL     1       1.925   6.704  20.308  0.00  0.00    +0.000 A 
ATOM      6  N   UNL     1       2.901   6.503  19.420  0.00  0.00    +0.000 NA
ENDROOT
BRANCH   1  10
ATOM      7  C   UNL     1       6.471   4.662  16.421  0.00  0.00    +0.000 A 
ATOM      8  C   UNL     1       5.129   4.586  16.023  0.00  0.00    +0.000 A 
ATOM      9  C   UNL     1       4.100   4.766  16.947  0.00  0.00    +0.000 A 
ATOM     10  C   UNL     1       4.370   4.976  18.305  0.00  0.00    +0.000 A 
ATOM     11  C   UNL     1       5.718   4.937  18.699  0.00  0.00    +0.000 A 
ATOM     12  C   UNL     1       6.770   4.778  17.784  0.00  0.00    +0.000 A 
BRANCH   7  14
ATOM     13  C   UNL     1       7.068   4.811  14.140  0.00  0.00    +0.000 C 
ATOM     14  O   UNL     1       7.476   4.603  15.495  0.00  0.00    +0.000 OA
ENDBRANCH   7  14
BRANCH  12  15
ATOM     15  O   UNL     1       7.985   4.793  18.411  0.00  0.00    +0.000 OA
ATOM     16  C   UNL     1       8.179   5.637  19.532  0.00  0.00    +0.000 C 
ENDBRANCH  12  15
ENDBRANCH   1  10
BRANCH   5  17
ATOM     17  C   UNL     1       1.395   8.076  20.420  0.00  0.00    +0.000 A 
ATOM     18  C   UNL     1       0.691   8.496  21.553  0.00  0.00    +0.000 A 
ATOM     19  C   UNL     1       0.139   9.776  21.618  0.00  0.00    +0.000 A 
ATOM     20  C   UNL     1       0.269  10.681  20.559  0.00  0.00    +0.000 A 
ATOM     21  C   UNL     1       0.981  10.296  19.408  0.00  0.00    +0.000 A 
ATOM     22  C   UNL     1       1.543   9.004  19.369  0.00  0.00    +0.000 A 
BRANCH  20  23
ATOM     23  O   UNL     1      -0.356  11.868  20.823  0.00  0.00    +0.000 OA
ATOM     24  C   UNL     1       0.415  12.963  21.288  0.00  0.00    +0.000 C 
ENDBRANCH  20  23
BRANCH  21  25
ATOM     25  O   UNL     1       1.080  11.181  18.372  0.00  0.00    +0.000 OA
ATOM     26  C   UNL     1       2.328  11.823  18.136  0.00  0.00    +0.000 C 
ENDBRANCH  21  25
ENDBRANCH   5  17
TORSDOF 6
ENDMDL
MODEL 7
REMARK VINA RESULT:      -7.1      2.408      4.064
REMARK  Name = 
REMARK  10 active torsions:
REMARK  status: ('A' for Active; 'I' for Inactive)
REMARK    1  A    between atoms: C_1  and  O_2
REMARK    2  A    between atoms: O_2  and  C_3
REMARK    3  A    between atoms: C_6  and  C_7
REMARK    4  A    between atoms: C_11  and  C_12
REMARK    5  A    between atoms: C_15  and  O_16
REMARK    6  A    between atoms: O_16  and  C_17
REMARK    7  A    between atoms: C_18  and  O_19
REMARK    8  A    between atoms: O_19  and  C_20
REMARK    9  A    between atoms: C_24  and  O_25
REMARK   10  A    between atoms: O_25  and  C_26
REMARK                            x       y       z     vdW  Elec       q    Type
REMARK                         _______ _______ _______ _____ _____    ______ ____
ROOT
ATOM      1  C   UNL     1       2.366   7.425  19.046  0.00  0.00    +0.000 A 
ATOM      2  N   UNL     1       2.657   7.945  17.856  0.00  0.00    +0.000 NA
ATOM      3  C   UNL     1       2.192   9.173  17.657  0.00  0.00    +0.000 A 
ATOM      4  N   UNL     1       1.492   9.892  18.525  0.00  0.00    +0.000 NA
ATOM      5  C   UNL     1       1.258   9.282  19.690  0.00  0.00    +0.000 A 
ATOM      6  N   UNL     1       1.665   8.049  19.994  0.00  0.00    +0.000 NA
ENDROOT
BRANCH   1  10
ATOM      7  C   UNL     1       3.718   3.392  19.745  0.00  0.00    +0.000 A 
ATOM      8  C   UNL     1       2.406   3.771  20.062  0.00  0.00    +0.000 A 
ATOM      9  C   UNL     1       1.968   5.077  19.841  0.00  0.00    +0.000 A 
ATOM     10  C   UNL     1       2.833   6.061  19.348  0.00  0.00    +0.000 A 
ATOM     11  C   UNL     1       4.172   5.687  19.144  0.00  0.00    +0.000 A 
ATOM     12  C   UNL     1       4.630   4.375  19.339  0.00  0.00    +0.000 A 
BRANCH   7  14
ATOM     13  C   UNL     1       3.716   1.243  18.764  0.00  0.00    +0.000 C 
ATOM     14  O   UNL     1       4.110   2.086  19.850  0.00  0.00    +0.000 OA
ENDBRANCH   7  14
BRANCH  12  15
ATOM     15  O   UNL     1       5.962   4.263  19.055  0.00  0.00    +0.000 OA
ATOM     16  C   UNL     1       6.439   4.662  17.782  0.00  0.00    +0.000 C 
ENDBRANCH  12  15
ENDBRANCH   1  10
BRANCH   5  17
ATOM     17  C   UNL     1       0.567  10.039  20.750  0.00  0.00    +0.000 A 
ATOM     18  C   UNL     1      -0.031   9.394  21.837  0.00  0.00    +0.000 A 
ATOM     19  C   UNL     1      -0.737  10.117  22.799  0.00  0.00    +0.000 A 
ATOM     20  C   UNL     1      -0.874  11.507  22.711  0.00  0.00    +0.000 A 
ATOM     21  C   UNL     1      -0.276  12.191  21.637  0.00  0.00    +0.000 A 
ATOM     22  C   UNL     1       0.446  11.443  20.685  0.00  0.00    +0.000 A 
BRANCH  20  23
ATOM     23  O   UNL     1      -1.613  12.013  23.745  0.00  0.00    +0.000 OA
ATOM     24  C   UNL     1      -3.017  12.133  23.592  0.00  0.00    +0.000 C 
ENDBRANCH  20  23
BRANCH  21  25
ATOM     25  O   UNL     1      -0.436  13.545  21.551  0.00  0.00    +0.000 OA
ATOM     26  C   UNL     1      -1.489  14.060  20.743  0.00  0.00    +0.000 C 
ENDBRANCH  21  25
ENDBRANCH   5  17
TORSDOF 6
ENDMDL
MODEL 8
REMARK VINA RESULT:      -7.1      3.146      8.908
REMARK  Name = 
REMARK  10 active torsions:
REMARK  status: ('A' for Active; 'I' for Inactive)
REMARK    1  A    between atoms: C_1  and  O_2
REMARK    2  A    between atoms: O_2  and  C_3
REMARK    3  A    between atoms: C_6  and  C_7
REMARK    4  A    between atoms: C_11  and  C_12
REMARK    5  A    between atoms: C_15  and  O_16
REMARK    6  A    between atoms: O_16  and  C_17
REMARK    7  A    between atoms: C_18  and  O_19
REMARK    8  A    between atoms: O_19  and  C_20
REMARK    9  A    between atoms: C_24  and  O_25
REMARK   10  A    between atoms: O_25  and  C_26
REMARK                            x       y       z     vdW  Elec       q    Type
REMARK                         _______ _______ _______ _____ _____    ______ ____
ROOT
ATOM      1  C   UNL     1       0.919   9.650  19.724  0.00  0.00    +0.000 A 
ATOM      2  N   UNL     1       1.170  10.326  18.605  0.00  0.00    +0.000 NA
ATOM      3  C   UNL     1       1.953   9.693  17.738  0.00  0.00    +0.000 A 
ATOM      4  N   UNL     1       2.476   8.485  17.897  0.00  0.00    +0.000 NA
ATOM      5  C   UNL     1       2.160   7.890  19.050  0.00  0.00    +0.000 A 
ATOM      6  N   UNL     1       1.395   8.433  19.998  0.00  0.00    +0.000 NA
ENDROOT
BRANCH   1  10
ATOM      7  C   UNL     1      -1.432  11.621  22.751  0.00  0.00    +0.000 A 
ATOM      8  C   UNL     1      -0.788  10.406  23.025  0.00  0.00    +0.000 A 
ATOM      9  C   UNL     1      -0.031   9.764  22.046  0.00  0.00    +0.000 A 
ATOM     10  C   UNL     1       0.068  10.280  20.747  0.00  0.00    +0.000 A 
ATOM     11  C   UNL     1      -0.676  11.438  20.464  0.00  0.00    +0.000 A 
ATOM     12  C   UNL     1      -1.427  12.113  21.440  0.00  0.00    +0.000 A 
BRANCH   7  14
ATOM     13  C   UNL     1      -3.502  12.235  23.709  0.00  0.00    +0.000 C 
ATOM     14  O   UNL     1      -2.075  12.308  23.745  0.00  0.00    +0.000 OA
ENDBRANCH   7  14
BRANCH  12  15
ATOM     15  O   UNL     1      -2.042  13.218  20.921  0.00  0.00    +0.000 OA
ATOM     16  C   UNL     1      -1.354  14.456  20.912  0.00  0.00    +0.000 C 
ENDBRANCH  12  15
ENDBRANCH   1  10
BRANCH   5  17
ATOM     17  C   UNL     1       2.622   6.507  19.274  0.00  0.00    +0.000 A 
ATOM     18  C   UNL     1       3.403   5.835  18.329  0.00  0.00    +0.000 A 
ATOM     19  C   UNL     1       3.778   4.506  18.524  0.00  0.00    +0.000 A 
ATOM     20  C   UNL     1       3.388   3.799  19.667  0.00  0.00    +0.000 A 
ATOM     21  C   UNL     1       2.611   4.447  20.645  0.00  0.00    +0.000 A 
ATOM     22  C   UNL     1       2.256   5.794  20.434  0.00  0.00    +0.000 A 
BRANCH  20  23
ATOM     23  O   UNL     1       3.849   2.512  19.653  0.00  0.00    +0.000 OA
ATOM     24  C   UNL     1       3.498   1.667  18.570  0.00  0.00    +0.000 C 
ENDBRANCH  20  23
BRANCH  21  25
ATOM     25  O   UNL     1       2.217   3.738  21.745  0.00  0.00    +0.000 OA
ATOM     26  C   UNL     1       1.283   2.677  21.578  0.00  0.00    +0.000 C 
ENDBRANCH  21  25
ENDBRANCH   5  17
TORSDOF 6
ENDMDL
MODEL 9
REMARK VINA RESULT:      -7.0      1.449      8.087
REMARK  Name = 
REMARK  10 active torsions:
REMARK  status: ('A' for Active; 'I' for Inactive)
REMARK    1  A    between atoms: C_1  and  O_2
REMARK    2  A    between atoms: O_2  and  C_3
REMARK    3  A    between atoms: C_6  and  C_7
REMARK    4  A    between atoms: C_11  and  C_12
REMARK    5  A    between atoms: C_15  and  O_16
REMARK    6  A    between atoms: O_16  and  C_17
REMARK    7  A    between atoms: C_18  and  O_19
REMARK    8  A    between atoms: O_19  and  C_20
REMARK    9  A    between atoms: C_24  and  O_25
REMARK   10  A    between atoms: O_25  and  C_26
REMARK                            x       y       z     vdW  Elec       q    Type
REMARK                         _______ _______ _______ _____ _____    ______ ____
ROOT
ATOM      1  C   UNL     1       1.772   6.866  20.356  0.00  0.00    +0.000 A 
ATOM      2  N   UNL     1       1.156   5.832  20.926  0.00  0.00    +0.000 NA
ATOM      3  C   UNL     1       1.618   4.641  20.562  0.00  0.00    +0.000 A 
ATOM      4  N   UNL     1       2.611   4.416  19.711  0.00  0.00    +0.000 NA
ATOM      5  C   UNL     1       3.164   5.519  19.199  0.00  0.00    +0.000 A 
ATOM      6  N   UNL     1       2.775   6.763  19.482  0.00  0.00    +0.000 NA
ENDROOT
BRANCH   1  10
ATOM      7  C   UNL     1       0.620  10.900  21.346  0.00  0.00    +0.000 A 
ATOM      8  C   UNL     1       0.635   9.899  22.328  0.00  0.00    +0.000 A 
ATOM      9  C   UNL     1       1.003   8.592  22.009  0.00  0.00    +0.000 A 
ATOM     10  C   UNL     1       1.316   8.225  20.694  0.00  0.00    +0.000 A 
ATOM     11  C   UNL     1       1.185   9.217  19.708  0.00  0.00    +0.000 A 
ATOM     12  C   UNL     1       0.839  10.543  20.009  0.00  0.00    +0.000 A 
BRANCH   7  14
ATOM     13  C   UNL     1      -0.931  12.462  22.202  0.00  0.00    +0.000 C 
ATOM     14  O   UNL     1       0.376  12.203  21.683  0.00  0.00    +0.000 OA
ENDBRANCH   7  14
BRANCH  12  15
ATOM     15  O   UNL     1       0.797  11.318  18.883  0.00  0.00    +0.000 OA
ATOM     16  C   UNL     1       1.809  12.284  18.666  0.00  0.00    +0.000 C 
ENDBRANCH  12  15
ENDBRANCH   1  10
BRANCH   5  17
ATOM     17  C   UNL     1       4.335   5.369  18.314  0.00  0.00    +0.000 A 
ATOM     18  C   UNL     1       4.202   5.362  16.922  0.00  0.00    +0.000 A 
ATOM     19  C   UNL     1       5.308   5.155  16.099  0.00  0.00    +0.000 A 
ATOM     20  C   UNL     1       6.585   4.947  16.632  0.00  0.00    +0.000 A 
ATOM     21  C   UNL     1       6.758   4.959  18.028  0.00  0.00    +0.000 A 
ATOM     22  C   UNL     1       5.629   5.185  18.841  0.00  0.00    +0.000 A 
BRANCH  20  23
ATOM     23  O   UNL     1       7.521   4.751  15.654  0.00  0.00    +0.000 OA
ATOM     24  C   UNL     1       7.111   4.762  14.297  0.00  0.00    +0.000 C 
ENDBRANCH  20  23
BRANCH  21  25
ATOM     25  O   UNL     1       8.006   4.732  18.536  0.00  0.00    +0.000 OA
ATOM     26  C   UNL     1       8.422   5.463  19.684  0.00  0.00    +0.000 C 
ENDBRANCH  21  25
ENDBRANCH   5  17
TORSDOF 6
ENDMDL
