MODEL 1
REMARK VINA RESULT:      -6.9      0.000      0.000
REMARK  Name = 
REMARK  11 active torsions:
REMARK  status: ('A' for Active; 'I' for Inactive)
REMARK    1  A    between atoms: C_1  and  C_2
REMARK    2  A    between atoms: C_2  and  O_3
REMARK    3  A    between atoms: O_3  and  C_4
REMARK    4  A    between atoms: C_7  and  C_8
REMARK    5  A    between atoms: C_11  and  C_12
REMARK    6  A    between atoms: C_12  and  O_14
REMARK    7  A    between atoms: C_15  and  C_16
REMARK    8  A    between atoms: C_19  and  C_20
REMARK    9  A    between atoms: N_23  and  S_24
REMARK   10  A    between atoms: S_24  and  C_27
REMARK   11  A    between atoms: C_30  and  C_31
REMARK                            x       y       z     vdW  Elec       q    Type
REMARK                         _______ _______ _______ _____ _____    ______ ____
ROOT
ATOM      1  C   UNL     1      -0.191  11.373  18.880  0.00  0.00    +0.000 C 
ATOM      2  C   UNL     1       0.534  10.019  19.001  0.00  0.00    +0.000 C 
ATOM      3  C   UNL     1       0.543   9.477  20.399  0.00  0.00    +0.000 C 
ATOM      4  C   UNL     1       0.300  10.257  21.479  0.00  0.00    +0.000 C 
ATOM      5  C   UNL     1       0.153  11.790  21.430  0.00  0.00    +0.000 C 
ATOM      6  N   UNL     1       0.269  12.270  20.005  0.00  0.00    +0.000 NA
ENDROOT
BRANCH   5   7
ATOM      7  C   UNL     1      -1.027  12.390  22.203  0.00  0.00    +0.000 A 
ATOM      8  C   UNL     1      -0.889  13.480  23.080  0.00  0.00    +0.000 A 
ATOM      9  C   UNL     1      -2.006  14.054  23.719  0.00  0.00    +0.000 A 
ATOM     10  C   UNL     1      -3.292  13.549  23.506  0.00  0.00    +0.000 A 
ATOM     11  C   UNL     1      -4.522  14.119  24.137  0.00  0.00    +0.000 C 
ATOM     12  C   UNL     1      -3.445  12.487  22.631  0.00  0.00    +0.000 A 
ATOM     13  C   UNL     1      -2.341  11.962  21.987  0.00  0.00    +0.000 A 
ENDBRANCH   5   7
BRANCH   1  17
ATOM     14  C   UNL     1      -4.412  11.130  17.880  0.00  0.00    +0.000 A 
ATOM     15  C   UNL     1      -3.936  12.189  18.645  0.00  0.00    +0.000 A 
ATOM     16  C   UNL     1      -2.616  12.204  19.091  0.00  0.00    +0.000 A 
ATOM     17  C   UNL     1      -1.709  11.196  18.730  0.00  0.00    +0.000 A 
ATOM     18  C   UNL     1      -2.237  10.058  18.096  0.00  0.00    +0.000 A 
ATOM     19  C   UNL     1      -3.582  10.025  17.684  0.00  0.00    +0.000 A 
BRANCH  14  20
ATOM     20  O   UNL     1      -5.641  11.118  17.264  0.00  0.00    +0.000 OA
BRANCH  20  22
ATOM     21  C   UNL     1      -6.950  10.160  19.076  0.00  0.00    +0.000 C 
ATOM     22  C   UNL     1      -6.748  11.342  18.149  0.00  0.00    +0.000 C 
ENDBRANCH  20  22
ENDBRANCH  14  20
ENDBRANCH   1  17
BRANCH   6  23
ATOM     23  S   UNL     1       0.468  13.926  19.680  0.00  0.00    +0.000 S 
ATOM     24  O   UNL     1       0.996  14.045  18.336  0.00  0.00    +0.000 OA
ATOM     25  O   UNL     1      -0.710  14.678  20.049  0.00  0.00    +0.000 OA
BRANCH  23  26
ATOM     26  C   UNL     1       1.777  14.414  20.784  0.00  0.00    +0.000 A 
ATOM     27  C   UNL     1       2.997  13.737  20.714  0.00  0.00    +0.000 A 
ATOM     28  C   UNL     1       4.046  14.110  21.555  0.00  0.00    +0.000 A 
ATOM     29  C   UNL     1       3.889  15.165  22.460  0.00  0.00    +0.000 A 
ATOM     30  C   UNL     1       5.005  15.541  23.396  0.00  0.00    +0.000 C 
ATOM     31  C   UNL     1       2.679  15.871  22.487  0.00  0.00    +0.000 A 
ATOM     32  C   UNL     1       1.623  15.507  21.645  0.00  0.00    +0.000 A 
ENDBRANCH  23  26
ENDBRANCH   6  23
BRANCH   4  33
ATOM     33  C   UNL     1       0.355   9.620  22.820  0.00  0.00    +0.000 C 
ATOM     34  O   UNL     1       1.381   9.552  23.483  0.00  0.00    +0.000 OA
BRANCH  33  35
ATOM     35  O   UNL     1      -0.811   9.106  23.256  0.00  0.00    +0.000 OA
ATOM     36  H   UNL     1      -1.607   9.655  23.117  0.00  0.00    +0.000 HD
ENDBRANCH  33  35
ENDBRANCH   4  33
TORSDOF 8
ENDMDL
MODEL 2
REMARK VINA RESULT:      -6.8      0.411      1.313
REMARK  Name = 
REMARK  11 active torsions:
REMARK  status: ('A' for Active; 'I' for Inactive)
REMARK    1  A    between atoms: C_1  and  C_2
REMARK    2  A    between atoms: C_2  and  O_3
REMARK    3  A    between atoms: O_3  and  C_4
REMARK    4  A    between atoms: C_7  and  C_8
REMARK    5  A    between atoms: C_11  and  C_12
REMARK    6  A    between atoms: C_12  and  O_14
REMARK    7  A    between atoms: C_15  and  C_16
REMARK    8  A    between atoms: C_19  and  C_20
REMARK    9  A    between atoms: N_23  and  S_24
REMARK   10  A    between atoms: S_24  and  C_27
REMARK   11  A    between atoms: C_30  and  C_31
REMARK                            x       y       z     vdW  Elec       q    Type
REMARK                         _______ _______ _______ _____ _____    ______ ____
ROOT
ATOM      1  C   UNL     1      -0.197  11.285  18.829  0.00  0.00    +0.000 C 
ATOM      2  C   UNL     1       0.518   9.929  18.981  0.00  0.00    +0.000 C 
ATOM      3  C   UNL     1       0.532   9.425  20.393  0.00  0.00    +0.000 C 
ATOM      4  C   UNL     1       0.302  10.234  21.454  0.00  0.00    +0.000 C 
ATOM      5  C   UNL     1       0.166  11.767  21.364  0.00  0.00    +0.000 C 
ATOM      6  N   UNL     1       0.278  12.208  19.926  0.00  0.00    +0.000 NA
ENDROOT
BRANCH   5   7
ATOM      7  C   UNL     1      -1.004  12.397  22.128  0.00  0.00    +0.000 A 
ATOM      8  C   UNL     1      -2.316  11.892  22.064  0.00  0.00    +0.000 A 
ATOM      9  C   UNL     1      -3.354  12.450  22.836  0.00  0.00    +0.000 A 
ATOM     10  C   UNL     1      -3.114  13.534  23.686  0.00  0.00    +0.000 A 
ATOM     11  C   UNL     1      -4.164  14.164  24.544  0.00  0.00    +0.000 C 
ATOM     12  C   UNL     1      -1.824  14.030  23.771  0.00  0.00    +0.000 A 
ATOM     13  C   UNL     1      -0.812  13.445  23.032  0.00  0.00    +0.000 A 
ENDBRANCH   5   7
BRANCH   1  17
ATOM     14  C   UNL     1      -4.432  11.087  17.878  0.00  0.00    +0.000 A 
ATOM     15  C   UNL     1      -3.943  12.115  18.675  0.00  0.00    +0.000 A 
ATOM     16  C   UNL     1      -2.617  12.111  19.104  0.00  0.00    +0.000 A 
ATOM     17  C   UNL     1      -1.717  11.116  18.692  0.00  0.00    +0.000 A 
ATOM     18  C   UNL     1      -2.255  10.004  18.023  0.00  0.00    +0.000 A 
ATOM     19  C   UNL     1      -3.607   9.988  17.629  0.00  0.00    +0.000 A 
BRANCH  14  20
ATOM     20  O   UNL     1      -5.669  11.100  17.279  0.00  0.00    +0.000 OA
BRANCH  20  22
ATOM     21  C   UNL     1      -6.953  13.150  17.033  0.00  0.00    +0.000 C 
ATOM     22  C   UNL     1      -6.624  11.961  17.914  0.00  0.00    +0.000 C 
ENDBRANCH  20  22
ENDBRANCH  14  20
ENDBRANCH   1  17
BRANCH   6  23
ATOM     23  S   UNL     1       0.487  13.853  19.556  0.00  0.00    +0.000 S 
ATOM     24  O   UNL     1       1.019  13.931  18.210  0.00  0.00    +0.000 OA
ATOM     25  O   UNL     1      -0.686  14.622  19.901  0.00  0.00    +0.000 OA
BRANCH  23  26
ATOM     26  C   UNL     1       1.797  14.363  20.649  0.00  0.00    +0.000 A 
ATOM     27  C   UNL     1       1.560  15.423  21.527  0.00  0.00    +0.000 A 
ATOM     28  C   UNL     1       2.561  15.833  22.407  0.00  0.00    +0.000 A 
ATOM     29  C   UNL     1       3.800  15.182  22.425  0.00  0.00    +0.000 A 
ATOM     30  C   UNL     1       4.895  15.648  23.343  0.00  0.00    +0.000 C 
ATOM     31  C   UNL     1       4.011  14.086  21.576  0.00  0.00    +0.000 A 
ATOM     32  C   UNL     1       3.011  13.666  20.693  0.00  0.00    +0.000 A 
ENDBRANCH  23  26
ENDBRANCH   6  23
BRANCH   4  33
ATOM     33  C   UNL     1       0.360   9.633  22.810  0.00  0.00    +0.000 C 
ATOM     34  O   UNL     1       1.393   9.558  23.461  0.00  0.00    +0.000 OA
BRANCH  33  35
ATOM     35  O   UNL     1      -0.811   9.161  23.276  0.00  0.00    +0.000 OA
ATOM     36  H   UNL     1      -0.884   9.056  24.245  0.00  0.00    +0.000 HD
ENDBRANCH  33  35
ENDBRANCH   4  33
TORSDOF 8
ENDMDL
MODEL 3
REMARK VINA RESULT:      -6.8      1.851      2.426
REMARK  Name = 
REMARK  11 active torsions:
REMARK  status: ('A' for Active; 'I' for Inactive)
REMARK    1  A    between atoms: C_1  and  C_2
REMARK    2  A    between atoms: C_2  and  O_3
REMARK    3  A    between atoms: O_3  and  C_4
REMARK    4  A    between atoms: C_7  and  C_8
REMARK    5  A    between atoms: C_11  and  C_12
REMARK    6  A    between atoms: C_12  and  O_14
REMARK    7  A    between atoms: C_15  and  C_16
REMARK    8  A    between atoms: C_19  and  C_20
REMARK    9  A    between atoms: N_23  and  S_24
REMARK   10  A    between atoms: S_24  and  C_27
REMARK   11  A    between atoms: C_30  and  C_31
REMARK                            x       y       z     vdW  Elec       q    Type
REMARK                         _______ _______ _______ _____ _____    ______ ____
ROOT
ATOM      1  C   UNL     1       0.527  11.657  19.338  0.00  0.00    +0.000 C 
ATOM      2  C   UNL     1       1.378  10.405  19.623  0.00  0.00    +0.000 C 
ATOM      3  C   UNL     1       0.954   9.672  20.861  0.00  0.00    +0.000 C 
ATOM      4  C   UNL     1       0.189  10.250  21.817  0.00  0.00    +0.000 C 
ATOM      5  C   UNL     1      -0.196  11.742  21.840  0.00  0.00    +0.000 C 
ATOM      6  N   UNL     1       0.364  12.434  20.623  0.00  0.00    +0.000 NA
ENDROOT
BRANCH   5   7
ATOM      7  C   UNL     1      -1.666  12.066  22.130  0.00  0.00    +0.000 A 
ATOM      8  C   UNL     1      -2.172  12.212  23.434  0.00  0.00    +0.000 A 
ATOM      9  C   UNL     1      -3.512  12.582  23.663  0.00  0.00    +0.000 A 
ATOM     10  C   UNL     1      -4.386  12.809  22.596  0.00  0.00    +0.000 A 
ATOM     11  C   UNL     1      -5.813  13.220  22.767  0.00  0.00    +0.000 C 
ATOM     12  C   UNL     1      -3.897  12.686  21.307  0.00  0.00    +0.000 A 
ATOM     13  C   UNL     1      -2.570  12.356  21.104  0.00  0.00    +0.000 A 
ENDBRANCH   5   7
BRANCH   1  17
ATOM     14  C   UNL     1      -2.748  10.448  16.752  0.00  0.00    +0.000 A 
ATOM     15  C   UNL     1      -2.311  11.767  16.754  0.00  0.00    +0.000 A 
ATOM     16  C   UNL     1      -1.361  12.198  17.677  0.00  0.00    +0.000 A 
ATOM     17  C   UNL     1      -0.765  11.308  18.585  0.00  0.00    +0.000 A 
ATOM     18  C   UNL     1      -1.325  10.023  18.682  0.00  0.00    +0.000 A 
ATOM     19  C   UNL     1      -2.317   9.602  17.777  0.00  0.00    +0.000 A 
BRANCH  14  20
ATOM     20  O   UNL     1      -3.551   9.904  15.777  0.00  0.00    +0.000 OA
BRANCH  20  22
ATOM     21  C   UNL     1      -4.217   9.759  13.443  0.00  0.00    +0.000 C 
ATOM     22  C   UNL     1      -3.229  10.325  14.444  0.00  0.00    +0.000 C 
ENDBRANCH  20  22
ENDBRANCH  14  20
ENDBRANCH   1  17
BRANCH   6  23
ATOM     23  S   UNL     1       0.377  14.131  20.541  0.00  0.00    +0.000 S 
ATOM     24  O   UNL     1      -0.623  14.527  19.571  0.00  0.00    +0.000 OA
ATOM     25  O   UNL     1       0.358  14.720  21.860  0.00  0.00    +0.000 OA
BRANCH  23  26
ATOM     26  C   UNL     1       1.961  14.501  19.816  0.00  0.00    +0.000 A 
ATOM     27  C   UNL     1       3.103  14.380  20.610  0.00  0.00    +0.000 A 
ATOM     28  C   UNL     1       4.359  14.647  20.064  0.00  0.00    +0.000 A 
ATOM     29  C   UNL     1       4.484  15.023  18.722  0.00  0.00    +0.000 A 
ATOM     30  C   UNL     1       5.832  15.351  18.143  0.00  0.00    +0.000 C 
ATOM     31  C   UNL     1       3.337  15.093  17.920  0.00  0.00    +0.000 A 
ATOM     32  C   UNL     1       2.074  14.823  18.458  0.00  0.00    +0.000 A 
ENDBRANCH  23  26
ENDBRANCH   6  23
BRANCH   4  33
ATOM     33  C   UNL     1      -0.156   9.438  23.012  0.00  0.00    +0.000 C 
ATOM     34  O   UNL     1       0.338   9.634  24.114  0.00  0.00    +0.000 OA
BRANCH  33  35
ATOM     35  O   UNL     1      -1.050   8.455  22.796  0.00  0.00    +0.000 OA
ATOM     36  H   UNL     1      -1.384   7.989  23.587  0.00  0.00    +0.000 HD
ENDBRANCH  33  35
ENDBRANCH   4  33
TORSDOF 8
ENDMDL
MODEL 4
REMARK VINA RESULT:      -6.8      1.422      1.946
REMARK  Name = 
REMARK  11 active torsions:
REMARK  status: ('A' for Active; 'I' for Inactive)
REMARK    1  A    between atoms: C_1  and  C_2
REMARK    2  A    between atoms: C_2  and  O_3
REMARK    3  A    between atoms: O_3  and  C_4
REMARK    4  A    between atoms: C_7  and  C_8
REMARK    5  A    between atoms: C_11  and  C_12
REMARK    6  A    between atoms: C_12  and  O_14
REMARK    7  A    between atoms: C_15  and  C_16
REMARK    8  A    between atoms: C_19  and  C_20
REMARK    9  A    between atoms: N_23  and  S_24
REMARK   10  A    between atoms: S_24  and  C_27
REMARK   11  A    between atoms: C_30  and  C_31
REMARK                            x       y       z     vdW  Elec       q    Type
REMARK                         _______ _______ _______ _____ _____    ______ ____
ROOT
ATOM      1  C   UNL     1       0.421  11.484  18.987  0.00  0.00    +0.000 C 
ATOM      2  C   UNL     1       1.289  10.252  19.303  0.00  0.00    +0.000 C 
ATOM      3  C   UNL     1       0.915   9.582  20.592  0.00  0.00    +0.000 C 
ATOM      4  C   UNL     1       0.183  10.205  21.546  0.00  0.00    +0.000 C 
ATOM      5  C   UNL     1      -0.209  11.694  21.507  0.00  0.00    +0.000 C 
ATOM      6  N   UNL     1       0.302  12.326  20.236  0.00  0.00    +0.000 NA
ENDROOT
BRANCH   5   7
ATOM      7  C   UNL     1      -1.669  12.028  21.834  0.00  0.00    +0.000 A 
ATOM      8  C   UNL     1      -2.154  12.117  23.152  0.00  0.00    +0.000 A 
ATOM      9  C   UNL     1      -3.484  12.498  23.419  0.00  0.00    +0.000 A 
ATOM     10  C   UNL     1      -4.369  12.791  22.379  0.00  0.00    +0.000 A 
ATOM     11  C   UNL     1      -5.786  13.217  22.591  0.00  0.00    +0.000 C 
ATOM     12  C   UNL     1      -3.900  12.725  21.078  0.00  0.00    +0.000 A 
ATOM     13  C   UNL     1      -2.582  12.384  20.838  0.00  0.00    +0.000 A 
ENDBRANCH   5   7
BRANCH   1  17
ATOM     14  C   UNL     1      -3.591  10.618  17.561  0.00  0.00    +0.000 A 
ATOM     15  C   UNL     1      -2.842   9.626  18.184  0.00  0.00    +0.000 A 
ATOM     16  C   UNL     1      -1.507   9.849  18.517  0.00  0.00    +0.000 A 
ATOM     17  C   UNL     1      -0.896  11.094  18.301  0.00  0.00    +0.000 A 
ATOM     18  C   UNL     1      -1.607  12.030  17.531  0.00  0.00    +0.000 A 
ATOM     19  C   UNL     1      -2.942  11.786  17.157  0.00  0.00    +0.000 A 
BRANCH  14  20
ATOM     20  O   UNL     1      -4.947  10.541  17.352  0.00  0.00    +0.000 OA
BRANCH  20  22
ATOM     21  C   UNL     1      -6.678  10.440  19.056  0.00  0.00    +0.000 C 
ATOM     22  C   UNL     1      -5.731  11.320  18.266  0.00  0.00    +0.000 C 
ENDBRANCH  20  22
ENDBRANCH  14  20
ENDBRANCH   1  17
BRANCH   6  23
ATOM     23  S   UNL     1       0.302  14.016  20.067  0.00  0.00    +0.000 S 
ATOM     24  O   UNL     1      -0.511  14.338  18.913  0.00  0.00    +0.000 OA
ATOM     25  O   UNL     1       0.035  14.670  21.328  0.00  0.00    +0.000 OA
BRANCH  23  26
ATOM     26  C   UNL     1       1.985  14.390  19.621  0.00  0.00    +0.000 A 
ATOM     27  C   UNL     1       2.960  14.373  20.621  0.00  0.00    +0.000 A 
ATOM     28  C   UNL     1       4.290  14.645  20.298  0.00  0.00    +0.000 A 
ATOM     29  C   UNL     1       4.657  14.923  18.976  0.00  0.00    +0.000 A 
ATOM     30  C   UNL     1       6.082  15.256  18.633  0.00  0.00    +0.000 C 
ATOM     31  C   UNL     1       3.680  14.887  17.972  0.00  0.00    +0.000 A 
ATOM     32  C   UNL     1       2.345  14.612  18.286  0.00  0.00    +0.000 A 
ENDBRANCH  23  26
ENDBRANCH   6  23
BRANCH   4  33
ATOM     33  C   UNL     1      -0.113   9.454  22.792  0.00  0.00    +0.000 C 
ATOM     34  O   UNL     1       0.399   9.726  23.869  0.00  0.00    +0.000 OA
BRANCH  33  35
ATOM     35  O   UNL     1      -0.983   8.436  22.653  0.00  0.00    +0.000 OA
ATOM     36  H   UNL     1      -1.904   8.678  22.431  0.00  0.00    +0.000 HD
ENDBRANCH  33  35
ENDBRANCH   4  33
TORSDOF 8
ENDMDL
MODEL 5
REMARK VINA RESULT:      -6.7      1.423      1.992
REMARK  Name = 
REMARK  11 active torsions:
REMARK  status: ('A' for Active; 'I' for Inactive)
REMARK    1  A    between atoms: C_1  and  C_2
REMARK    2  A    between atoms: C_2  and  O_3
REMARK    3  A    between atoms: O_3  and  C_4
REMARK    4  A    between atoms: C_7  and  C_8
REMARK    5  A    between atoms: C_11  and  C_12
REMARK    6  A    between atoms: C_12  and  O_14
REMARK    7  A    between atoms: C_15  and  C_16
REMARK    8  A    between atoms: C_19  and  C_20
REMARK    9  A    between atoms: N_23  and  S_24
REMARK   10  A    between atoms: S_24  and  C_27
REMARK   11  A    between atoms: C_30  and  C_31
REMARK                            x       y       z     vdW  Elec       q    Type
REMARK                         _______ _______ _______ _____ _____    ______ ____
ROOT
ATOM      1  C   UNL     1       0.392  11.432  18.908  0.00  0.00    +0.000 C 
ATOM      2  C   UNL     1       1.227  10.176  19.222  0.00  0.00    +0.000 C 
ATOM      3  C   UNL     1       0.872   9.545  20.536  0.00  0.00    +0.000 C 
ATOM      4  C   UNL     1       0.195  10.212  21.499  0.00  0.00    +0.000 C 
ATOM      5  C   UNL     1      -0.146  11.714  21.443  0.00  0.00    +0.000 C 
ATOM      6  N   UNL     1       0.344  12.302  20.143  0.00  0.00    +0.000 NA
ENDROOT
BRANCH   5   7
ATOM      7  C   UNL     1      -1.581  12.106  21.810  0.00  0.00    +0.000 A 
ATOM      8  C   UNL     1      -2.566  12.384  20.846  0.00  0.00    +0.000 A 
ATOM      9  C   UNL     1      -3.896  12.670  21.216  0.00  0.00    +0.000 A 
ATOM     10  C   UNL     1      -4.276  12.694  22.561  0.00  0.00    +0.000 A 
ATOM     11  C   UNL     1      -5.670  12.973  23.024  0.00  0.00    +0.000 C 
ATOM     12  C   UNL     1      -3.320  12.405  23.520  0.00  0.00    +0.000 A 
ATOM     13  C   UNL     1      -2.031  12.092  23.134  0.00  0.00    +0.000 A 
ENDBRANCH   5   7
BRANCH   1  17
ATOM     14  C   UNL     1      -3.689  10.620  17.659  0.00  0.00    +0.000 A 
ATOM     15  C   UNL     1      -2.898   9.596  18.166  0.00  0.00    +0.000 A 
ATOM     16  C   UNL     1      -1.547   9.811  18.436  0.00  0.00    +0.000 A 
ATOM     17  C   UNL     1      -0.960  11.075  18.274  0.00  0.00    +0.000 A 
ATOM     18  C   UNL     1      -1.722  12.055  17.615  0.00  0.00    +0.000 A 
ATOM     19  C   UNL     1      -3.074  11.822  17.302  0.00  0.00    +0.000 A 
BRANCH  14  20
ATOM     20  O   UNL     1      -5.055  10.542  17.525  0.00  0.00    +0.000 OA
BRANCH  20  22
ATOM     21  C   UNL     1      -6.750  11.024  19.199  0.00  0.00    +0.000 C 
ATOM     22  C   UNL     1      -5.775  11.590  18.187  0.00  0.00    +0.000 C 
ENDBRANCH  20  22
ENDBRANCH  14  20
ENDBRANCH   1  17
BRANCH   6  23
ATOM     23  S   UNL     1       0.398  13.987  19.939  0.00  0.00    +0.000 S 
ATOM     24  O   UNL     1      -0.351  14.304  18.740  0.00  0.00    +0.000 OA
ATOM     25  O   UNL     1       0.088  14.675  21.171  0.00  0.00    +0.000 OA
BRANCH  23  26
ATOM     26  C   UNL     1       2.110  14.308  19.567  0.00  0.00    +0.000 A 
ATOM     27  C   UNL     1       2.479  14.505  18.235  0.00  0.00    +0.000 A 
ATOM     28  C   UNL     1       3.809  14.776  17.916  0.00  0.00    +0.000 A 
ATOM     29  C   UNL     1       4.777  14.863  18.923  0.00  0.00    +0.000 A 
ATOM     30  C   UNL     1       6.218  15.113  18.578  0.00  0.00    +0.000 C 
ATOM     31  C   UNL     1       4.388  14.714  20.262  0.00  0.00    +0.000 A 
ATOM     32  C   UNL     1       3.055  14.446  20.591  0.00  0.00    +0.000 A 
ENDBRANCH  23  26
ENDBRANCH   6  23
BRANCH   4  33
ATOM     33  C   UNL     1      -0.085   9.497  22.771  0.00  0.00    +0.000 C 
ATOM     34  O   UNL     1       0.459   9.783  23.828  0.00  0.00    +0.000 OA
BRANCH  33  35
ATOM     35  O   UNL     1      -0.980   8.495  22.677  0.00  0.00    +0.000 OA
ATOM     36  H   UNL     1      -0.696   7.704  22.180  0.00  0.00    +0.000 HD
ENDBRANCH  33  35
ENDBRANCH   4  33
TORSDOF 8
ENDMDL
MODEL 6
REMARK VINA RESULT:      -6.7      2.218      7.515
REMARK  Name = 
REMARK  11 active torsions:
REMARK  status: ('A' for Active; 'I' for Inactive)
REMARK    1  A    between atoms: C_1  and  C_2
REMARK    2  A    between atoms: C_2  and  O_3
REMARK    3  A    between atoms: O_3  and  C_4
REMARK    4  A    between atoms: C_7  and  C_8
REMARK    5  A    between atoms: C_11  and  C_12
REMARK    6  A    between atoms: C_12  and  O_14
REMARK    7  A    between atoms: C_15  and  C_16
REMARK    8  A    between atoms: C_19  and  C_20
REMARK    9  A    between atoms: N_23  and  S_24
REMARK   10  A    between atoms: S_24  and  C_27
REMARK   11  A    between atoms: C_30  and  C_31
REMARK                            x       y       z     vdW  Elec       q    Type
REMARK                         _______ _______ _______ _____ _____    ______ ____
ROOT
ATOM      1  C   UNL     1      -0.536  12.892  20.072  0.00  0.00    +0.000 C 
ATOM      2  C   UNL     1      -0.872  13.143  21.555  0.00  0.00    +0.000 C 
ATOM      3  C   UNL     1      -0.511  11.991  22.445  0.00  0.00    +0.000 C 
ATOM      4  C   UNL     1      -0.290  10.745  21.963  0.00  0.00    +0.000 C 
ATOM      5  C   UNL     1      -0.536  10.321  20.502  0.00  0.00    +0.000 C 
ATOM      6  N   UNL     1      -1.007  11.506  19.697  0.00  0.00    +0.000 NA
ENDROOT
BRANCH   5   7
ATOM      7  C   UNL     1       0.571   9.503  19.830  0.00  0.00    +0.000 A 
ATOM      8  C   UNL     1       1.030   8.275  20.341  0.00  0.00    +0.000 A 
ATOM      9  C   UNL     1       1.998   7.512  19.659  0.00  0.00    +0.000 A 
ATOM     10  C   UNL     1       2.543   7.959  18.452  0.00  0.00    +0.000 A 
ATOM     11  C   UNL     1       3.560   7.193  17.668  0.00  0.00    +0.000 C 
ATOM     12  C   UNL     1       2.088   9.157  17.928  0.00  0.00    +0.000 A 
ATOM     13  C   UNL     1       1.112   9.872  18.595  0.00  0.00    +0.000 A 
ENDBRANCH   5   7
BRANCH   1  17
ATOM     14  C   UNL     1       3.440  14.428  19.229  0.00  0.00    +0.000 A 
ATOM     15  C   UNL     1       2.598  14.060  18.186  0.00  0.00    +0.000 A 
ATOM     16  C   UNL     1       1.380  13.435  18.445  0.00  0.00    +0.000 A 
ATOM     17  C   UNL     1       0.930  13.220  19.757  0.00  0.00    +0.000 A 
ATOM     18  C   UNL     1       1.852  13.448  20.794  0.00  0.00    +0.000 A 
ATOM     19  C   UNL     1       3.101  14.038  20.527  0.00  0.00    +0.000 A 
BRANCH  14  20
ATOM     20  O   UNL     1       4.572  15.192  19.072  0.00  0.00    +0.000 OA
BRANCH  20  22
ATOM     21  C   UNL     1       6.723  14.664  18.069  0.00  0.00    +0.000 C 
ATOM     22  C   UNL     1       5.260  14.980  17.831  0.00  0.00    +0.000 C 
ENDBRANCH  20  22
ENDBRANCH  14  20
ENDBRANCH   1  17
BRANCH   6  23
ATOM     23  S   UNL     1      -1.662  11.275  18.146  0.00  0.00    +0.000 S 
ATOM     24  O   UNL     1      -1.138  12.321  17.293  0.00  0.00    +0.000 OA
ATOM     25  O   UNL     1      -1.548   9.896  17.730  0.00  0.00    +0.000 OA
BRANCH  23  26
ATOM     26  C   UNL     1      -3.394  11.621  18.369  0.00  0.00    +0.000 A 
ATOM     27  C   UNL     1      -3.803  12.257  19.543  0.00  0.00    +0.000 A 
ATOM     28  C   UNL     1      -5.152  12.557  19.737  0.00  0.00    +0.000 A 
ATOM     29  C   UNL     1      -6.098  12.236  18.756  0.00  0.00    +0.000 A 
ATOM     30  C   UNL     1      -7.556  12.520  18.981  0.00  0.00    +0.000 C 
ATOM     31  C   UNL     1      -5.671  11.644  17.559  0.00  0.00    +0.000 A 
ATOM     32  C   UNL     1      -4.320  11.344  17.355  0.00  0.00    +0.000 A 
ENDBRANCH  23  26
ENDBRANCH   6  23
BRANCH   4  33
ATOM     33  C   UNL     1       0.042   9.675  22.937  0.00  0.00    +0.000 C 
ATOM     34  O   UNL     1       1.109   9.627  23.535  0.00  0.00    +0.000 OA
BRANCH  33  35
ATOM     35  O   UNL     1      -0.915   8.744  23.111  0.00  0.00    +0.000 OA
ATOM     36  H   UNL     1      -1.479   8.842  23.903  0.00  0.00    +0.000 HD
ENDBRANCH  33  35
ENDBRANCH   4  33
TORSDOF 8
ENDMDL
MODEL 7
REMARK VINA RESULT:      -6.7      2.236      7.413
REMARK  Name = 
REMARK  11 active torsions:
REMARK  status: ('A' for Active; 'I' for Inactive)
REMARK    1  A    between atoms: C_1  and  C_2
REMARK    2  A    between atoms: C_2  and  O_3
REMARK    3  A    between atoms: O_3  and  C_4
REMARK    4  A    between atoms: C_7  and  C_8
REMARK    5  A    between atoms: C_11  and  C_12
REMARK    6  A    between atoms: C_12  and  O_14
REMARK    7  A    between atoms: C_15  and  C_16
REMARK    8  A    between atoms: C_19  and  C_20
REMARK    9  A    between atoms: N_23  and  S_24
REMARK   10  A    between atoms: S_24  and  C_27
REMARK   11  A    between atoms: C_30  and  C_31
REMARK                            x       y       z     vdW  Elec       q    Type
REMARK                         _______ _______ _______ _____ _____    ______ ____
ROOT
ATOM      1  C   UNL     1      -0.758  12.880  20.148  0.00  0.00    +0.000 C 
ATOM      2  C   UNL     1      -1.027  13.104  21.649  0.00  0.00    +0.000 C 
ATOM      3  C   UNL     1      -0.617  11.940  22.502  0.00  0.00    +0.000 C 
ATOM      4  C   UNL     1      -0.411  10.704  21.989  0.00  0.00    +0.000 C 
ATOM      5  C   UNL     1      -0.723  10.302  20.535  0.00  0.00    +0.000 C 
ATOM      6  N   UNL     1      -1.238  11.497  19.772  0.00  0.00    +0.000 NA
ENDROOT
BRANCH   5   7
ATOM      7  C   UNL     1       0.358   9.503  19.798  0.00  0.00    +0.000 A 
ATOM      8  C   UNL     1       0.942   9.938  18.595  0.00  0.00    +0.000 A 
ATOM      9  C   UNL     1       1.984   9.215  17.982  0.00  0.00    +0.000 A 
ATOM     10  C   UNL     1       2.467   8.033  18.548  0.00  0.00    +0.000 A 
ATOM     11  C   UNL     1       3.580   7.226  17.961  0.00  0.00    +0.000 C 
ATOM     12  C   UNL     1       1.914   7.601  19.742  0.00  0.00    +0.000 A 
ATOM     13  C   UNL     1       0.916   8.344  20.345  0.00  0.00    +0.000 A 
ENDBRANCH   5   7
BRANCH   1  17
ATOM     14  C   UNL     1       3.202  14.439  19.274  0.00  0.00    +0.000 A 
ATOM     15  C   UNL     1       2.255  14.331  18.262  0.00  0.00    +0.000 A 
ATOM     16  C   UNL     1       1.034  13.703  18.497  0.00  0.00    +0.000 A 
ATOM     17  C   UNL     1       0.690  13.223  19.771  0.00  0.00    +0.000 A 
ATOM     18  C   UNL     1       1.708  13.193  20.739  0.00  0.00    +0.000 A 
ATOM     19  C   UNL     1       2.958  13.789  20.486  0.00  0.00    +0.000 A 
BRANCH  14  20
ATOM     20  O   UNL     1       4.353  15.184  19.175  0.00  0.00    +0.000 OA
BRANCH  20  22
ATOM     21  C   UNL     1       6.297  14.577  17.847  0.00  0.00    +0.000 C 
ATOM     22  C   UNL     1       4.923  15.218  17.859  0.00  0.00    +0.000 C 
ENDBRANCH  20  22
ENDBRANCH  14  20
ENDBRANCH   1  17
BRANCH   6  23
ATOM     23  S   UNL     1      -1.962  11.287  18.250  0.00  0.00    +0.000 S 
ATOM     24  O   UNL     1      -1.357  12.243  17.345  0.00  0.00    +0.000 OA
ATOM     25  O   UNL     1      -2.008   9.891  17.879  0.00  0.00    +0.000 OA
BRANCH  23  26
ATOM     26  C   UNL     1      -3.640  11.824  18.508  0.00  0.00    +0.000 A 
ATOM     27  C   UNL     1      -4.570  11.622  17.486  0.00  0.00    +0.000 A 
ATOM     28  C   UNL     1      -5.896  12.017  17.667  0.00  0.00    +0.000 A 
ATOM     29  C   UNL     1      -6.304  12.602  18.871  0.00  0.00    +0.000 A 
ATOM     30  C   UNL     1      -7.723  13.066  19.053  0.00  0.00    +0.000 C 
ATOM     31  C   UNL     1      -5.375  12.753  19.909  0.00  0.00    +0.000 A 
ATOM     32  C   UNL     1      -4.044  12.357  19.738  0.00  0.00    +0.000 A 
ENDBRANCH  23  26
ENDBRANCH   6  23
BRANCH   4  33
ATOM     33  C   UNL     1      -0.027   9.620  22.929  0.00  0.00    +0.000 C 
ATOM     34  O   UNL     1       1.042   9.602  23.523  0.00  0.00    +0.000 OA
BRANCH  33  35
ATOM     35  O   UNL     1      -0.940   8.642  23.075  0.00  0.00    +0.000 OA
ATOM     36  H   UNL     1      -0.743   7.958  23.745  0.00  0.00    +0.000 HD
ENDBRANCH  33  35
ENDBRANCH   4  33
TORSDOF 8
ENDMDL
MODEL 8
REMARK VINA RESULT:      -6.7      1.111      1.666
REMARK  Name = 
REMARK  11 active torsions:
REMARK  status: ('A' for Active; 'I' for Inactive)
REMARK    1  A    between atoms: C_1  and  C_2
REMARK    2  A    between atoms: C_2  and  O_3
REMARK    3  A    between atoms: O_3  and  C_4
REMARK    4  A    between atoms: C_7  and  C_8
REMARK    5  A    between atoms: C_11  and  C_12
REMARK    6  A    between atoms: C_12  and  O_14
REMARK    7  A    between atoms: C_15  and  C_16
REMARK    8  A    between atoms: C_19  and  C_20
REMARK    9  A    between atoms: N_23  and  S_24
REMARK   10  A    between atoms: S_24  and  C_27
REMARK   11  A    between atoms: C_30  and  C_31
REMARK                            x       y       z     vdW  Elec       q    Type
REMARK                         _______ _______ _______ _____ _____    ______ ____
ROOT
ATOM      1  C   UNL     1      -0.212  11.376  18.617  0.00  0.00    +0.000 C 
ATOM      2  C   UNL     1       0.575  10.053  18.670  0.00  0.00    +0.000 C 
ATOM      3  C   UNL     1       0.738   9.518  20.061  0.00  0.00    +0.000 C 
ATOM      4  C   UNL     1       0.567  10.292  21.159  0.00  0.00    +0.000 C 
ATOM      5  C   UNL     1       0.353  11.818  21.123  0.00  0.00    +0.000 C 
ATOM      6  N   UNL     1       0.316  12.296  19.693  0.00  0.00    +0.000 NA
ENDROOT
BRANCH   5   7
ATOM      7  C   UNL     1      -0.772  12.373  22.003  0.00  0.00    +0.000 A 
ATOM      8  C   UNL     1      -2.040  11.770  22.091  0.00  0.00    +0.000 A 
ATOM      9  C   UNL     1      -3.028  12.264  22.966  0.00  0.00    +0.000 A 
ATOM     10  C   UNL     1      -2.781  13.380  23.770  0.00  0.00    +0.000 A 
ATOM     11  C   UNL     1      -3.777  13.947  24.730  0.00  0.00    +0.000 C 
ATOM     12  C   UNL     1      -1.532  13.973  23.706  0.00  0.00    +0.000 A 
ATOM     13  C   UNL     1      -0.565  13.451  22.868  0.00  0.00    +0.000 A 
ENDBRANCH   5   7
BRANCH   1  17
ATOM     14  C   UNL     1      -4.500  10.990  18.033  0.00  0.00    +0.000 A 
ATOM     15  C   UNL     1      -3.991  12.032  18.798  0.00  0.00    +0.000 A 
ATOM     16  C   UNL     1      -2.634  12.086  19.111  0.00  0.00    +0.000 A 
ATOM     17  C   UNL     1      -1.729  11.138  18.610  0.00  0.00    +0.000 A 
ATOM     18  C   UNL     1      -2.272  10.008  17.976  0.00  0.00    +0.000 A 
ATOM     19  C   UNL     1      -3.650   9.933  17.700  0.00  0.00    +0.000 A 
BRANCH  14  20
ATOM     20  O   UNL     1      -5.784  10.950  17.543  0.00  0.00    +0.000 OA
BRANCH  20  22
ATOM     21  C   UNL     1      -6.965   9.776  19.314  0.00  0.00    +0.000 C 
ATOM     22  C   UNL     1      -6.803  11.072  18.545  0.00  0.00    +0.000 C 
ENDBRANCH  20  22
ENDBRANCH  14  20
ENDBRANCH   1  17
BRANCH   6  23
ATOM     23  S   UNL     1       0.416  13.957  19.350  0.00  0.00    +0.000 S 
ATOM     24  O   UNL     1       0.007  14.142  17.973  0.00  0.00    +0.000 OA
ATOM     25  O   UNL     1      -0.208  14.746  20.388  0.00  0.00    +0.000 OA
BRANCH  23  26
ATOM     26  C   UNL     1       2.164  14.290  19.408  0.00  0.00    +0.000 A 
ATOM     27  C   UNL     1       2.873  14.353  18.206  0.00  0.00    +0.000 A 
ATOM     28  C   UNL     1       4.240  14.630  18.220  0.00  0.00    +0.000 A 
ATOM     29  C   UNL     1       4.906  14.858  19.430  0.00  0.00    +0.000 A 
ATOM     30  C   UNL     1       6.386  15.115  19.450  0.00  0.00    +0.000 C 
ATOM     31  C   UNL     1       4.176  14.843  20.627  0.00  0.00    +0.000 A 
ATOM     32  C   UNL     1       2.804  14.570  20.622  0.00  0.00    +0.000 A 
ENDBRANCH  23  26
ENDBRANCH   6  23
BRANCH   4  33
ATOM     33  C   UNL     1       0.772   9.663  22.489  0.00  0.00    +0.000 C 
ATOM     34  O   UNL     1      -0.151   9.363  23.233  0.00  0.00    +0.000 OA
BRANCH  33  35
ATOM     35  O   UNL     1       2.058   9.455  22.829  0.00  0.00    +0.000 OA
ATOM     36  H   UNL     1       2.690   9.343  22.092  0.00  0.00    +0.000 HD
ENDBRANCH  33  35
ENDBRANCH   4  33
TORSDOF 8
ENDMDL
MODEL 9
REMARK VINA RESULT:      -6.7      0.448      1.123
REMARK  Name = 
REMARK  11 active torsions:
REMARK  status: ('A' for Active; 'I' for Inactive)
REMARK    1  A    between atoms: C_1  and  C_2
REMARK    2  A    between atoms: C_2  and  O_3
REMARK    3  A    between atoms: O_3  and  C_4
REMARK    4  A    between atoms: C_7  and  C_8
REMARK    5  A    between atoms: C_11  and  C_12
REMARK    6  A    between atoms: C_12  and  O_14
REMARK    7  A    between atoms: C_15  and  C_16
REMARK    8  A    between atoms: C_19  and  C_20
REMARK    9  A    between atoms: N_23  and  S_24
REMARK   10  A    between atoms: S_24  and  C_27
REMARK   11  A    between atoms: C_30  and  C_31
REMARK                            x       y       z     vdW  Elec       q    Type
REMARK                         _______ _______ _______ _____ _____    ______ ____
ROOT
ATOM      1  C   UNL     1       0.040  11.307  18.695  0.00  0.00    +0.000 C 
ATOM      2  C   UNL     1       0.795   9.969  18.807  0.00  0.00    +0.000 C 
ATOM      3  C   UNL     1       0.857   9.442  20.209  0.00  0.00    +0.000 C 
ATOM      4  C   UNL     1       0.632  10.227  21.289  0.00  0.00    +0.000 C 
ATOM      5  C   UNL     1       0.452  11.757  21.229  0.00  0.00    +0.000 C 
ATOM      6  N   UNL     1       0.516  12.225  19.797  0.00  0.00    +0.000 NA
ENDROOT
BRANCH   5   7
ATOM      7  C   UNL     1      -0.715  12.341  22.032  0.00  0.00    +0.000 A 
ATOM      8  C   UNL     1      -1.995  11.757  22.052  0.00  0.00    +0.000 A 
ATOM      9  C   UNL     1      -3.026  12.278  22.859  0.00  0.00    +0.000 A 
ATOM     10  C   UNL     1      -2.812  13.403  23.660  0.00  0.00    +0.000 A 
ATOM     11  C   UNL     1      -3.855  13.998  24.550  0.00  0.00    +0.000 C 
ATOM     12  C   UNL     1      -1.552  13.978  23.663  0.00  0.00    +0.000 A 
ATOM     13  C   UNL     1      -0.544  13.430  22.892  0.00  0.00    +0.000 A 
ENDBRANCH   5   7
BRANCH   1  17
ATOM     14  C   UNL     1      -4.209  11.003  17.841  0.00  0.00    +0.000 A 
ATOM     15  C   UNL     1      -3.729  12.039  18.634  0.00  0.00    +0.000 A 
ATOM     16  C   UNL     1      -2.394  12.067  19.032  0.00  0.00    +0.000 A 
ATOM     17  C   UNL     1      -1.478  11.099  18.593  0.00  0.00    +0.000 A 
ATOM     18  C   UNL     1      -2.002   9.977  17.928  0.00  0.00    +0.000 A 
ATOM     19  C   UNL     1      -3.361   9.928  17.565  0.00  0.00    +0.000 A 
BRANCH  14  20
ATOM     20  O   UNL     1      -5.460  10.987  17.271  0.00  0.00    +0.000 OA
BRANCH  20  22
ATOM     21  C   UNL     1      -7.262  12.515  17.845  0.00  0.00    +0.000 C 
ATOM     22  C   UNL     1      -6.532  11.232  18.191  0.00  0.00    +0.000 C 
ENDBRANCH  20  22
ENDBRANCH  14  20
ENDBRANCH   1  17
BRANCH   6  23
ATOM     23  S   UNL     1       0.672  13.881  19.450  0.00  0.00    +0.000 S 
ATOM     24  O   UNL     1       1.282  13.995  18.142  0.00  0.00    +0.000 OA
ATOM     25  O   UNL     1      -0.556  14.592  19.725  0.00  0.00    +0.000 OA
BRANCH  23  26
ATOM     26  C   UNL     1       1.886  14.441  20.627  0.00  0.00    +0.000 A 
ATOM     27  C   UNL     1       3.111  13.775  20.692  0.00  0.00    +0.000 A 
ATOM     28  C   UNL     1       4.088  14.203  21.591  0.00  0.00    +0.000 A 
ATOM     29  C   UNL     1       3.852  15.304  22.422  0.00  0.00    +0.000 A 
ATOM     30  C   UNL     1       4.887  15.741  23.422  0.00  0.00    +0.000 C 
ATOM     31  C   UNL     1       2.639  15.998  22.314  0.00  0.00    +0.000 A 
ATOM     32  C   UNL     1       1.656  15.578  21.412  0.00  0.00    +0.000 A 
ENDBRANCH  23  26
ENDBRANCH   6  23
BRANCH   4  33
ATOM     33  C   UNL     1       0.740   9.605  22.633  0.00  0.00    +0.000 C 
ATOM     34  O   UNL     1      -0.234   9.358  23.331  0.00  0.00    +0.000 OA
BRANCH  33  35
ATOM     35  O   UNL     1       1.995   9.340  23.040  0.00  0.00    +0.000 OA
ATOM     36  H   UNL     1       2.244   8.397  23.100  0.00  0.00    +0.000 HD
ENDBRANCH  33  35
ENDBRANCH   4  33
TORSDOF 8
ENDMDL
