MODEL 1
REMARK VINA RESULT:      -9.0      0.000      0.000
REMARK  Name = 
REMARK  5 active torsions:
REMARK  status: ('A' for Active; 'I' for Inactive)
REMARK    1  A    between atoms: N_3  and  C_4
REMARK    2  A    between atoms: N_10  and  C_11
REMARK    3  A    between atoms: C_15  and  C_16
REMARK    4  A    between atoms: C_16  and  C_18
REMARK    5  A    between atoms: C_19  and  C_20
REMARK                            x       y       z     vdW  Elec       q    Type
REMARK                         _______ _______ _______ _____ _____    ______ ____
ROOT
ATOM      1  C   UNL     1       6.500   6.883  17.005  0.00  0.00    +0.000 A 
ATOM      2  C   UNL     1       7.218   5.736  16.644  0.00  0.00    +0.000 A 
ATOM      3  C   UNL     1       6.639   4.470  16.696  0.00  0.00    +0.000 A 
ATOM      4  C   UNL     1       5.315   4.331  17.087  0.00  0.00    +0.000 A 
ATOM      5  C   UNL     1       4.552   5.466  17.392  0.00  0.00    +0.000 A 
ATOM      6  C   UNL     1       5.149   6.742  17.355  0.00  0.00    +0.000 A 
ENDROOT
BRANCH   1  10
ATOM      7  O   UNL     1       8.569   7.820  18.790  0.00  0.00    +0.000 OA
ATOM      8  C   UNL     1       8.080   8.564  17.948  0.00  0.00    +0.000 C 
ATOM      9  N   UNL     1       8.422   9.903  17.812  0.00  0.00    +0.000 N 
ATOM     10  N   UNL     1       7.088   8.175  17.053  0.00  0.00    +0.000 N 
ATOM     11  H   UNL     1       7.821  10.481  17.247  0.00  0.00    +0.000 HD
ATOM     12  H   UNL     1       6.647   8.895  16.503  0.00  0.00    +0.000 HD
BRANCH   9  13
ATOM     13  C   UNL     1       9.383  10.579  18.609  0.00  0.00    +0.000 A 
ATOM     14  C   UNL     1       9.248  10.757  19.991  0.00  0.00    +0.000 A 
ATOM     15  C   UNL     1      10.191  11.489  20.718  0.00  0.00    +0.000 A 
ATOM     16  C   UNL     1      11.293  12.039  20.074  0.00  0.00    +0.000 A 
ATOM     17  C   UNL     1      11.460  11.841  18.704  0.00  0.00    +0.000 A 
ATOM     18  C   UNL     1      10.514  11.107  17.976  0.00  0.00    +0.000 A 
ENDBRANCH   9  13
ENDBRANCH   1  10
BRANCH   5  19
ATOM     19  C   UNL     1       3.131   5.330  17.817  0.00  0.00    +0.000 C 
ATOM     20  O   UNL     1       2.570   4.241  17.789  0.00  0.00    +0.000 OA
BRANCH  19  21
ATOM     21  C   UNL     1       2.446   6.567  18.293  0.00  0.00    +0.000 C 
ATOM     22  C   UNL     1       2.393   6.875  19.596  0.00  0.00    +0.000 C 
BRANCH  22  23
ATOM     23  C   UNL     1       1.660   8.063  20.043  0.00  0.00    +0.000 A 
ATOM     24  C   UNL     1       1.409   9.111  19.149  0.00  0.00    +0.000 A 
ATOM     25  C   UNL     1       0.751  10.267  19.582  0.00  0.00    +0.000 A 
ATOM     26  C   UNL     1       0.342  10.371  20.911  0.00  0.00    +0.000 A 
ATOM     27 BR   UNL     1      -0.538  11.938  21.500  0.00  0.00    +0.000 Br
ATOM     28  C   UNL     1       0.586   9.332  21.808  0.00  0.00    +0.000 A 
ATOM     29  C   UNL     1       1.246   8.179  21.375  0.00  0.00    +0.000 A 
ENDBRANCH  22  23
ENDBRANCH  19  21
ENDBRANCH   5  19
TORSDOF 5
ENDMDL
MODEL 2
REMARK VINA RESULT:      -8.9      0.196      1.327
REMARK  Name = 
REMARK  5 active torsions:
REMARK  status: ('A' for Active; 'I' for Inactive)
REMARK    1  A    between atoms: N_3  and  C_4
REMARK    2  A    between atoms: N_10  and  C_11
REMARK    3  A    between atoms: C_15  and  C_16
REMARK    4  A    between atoms: C_16  and  C_18
REMARK    5  A    between atoms: C_19  and  C_20
REMARK                            x       y       z     vdW  Elec       q    Type
REMARK                         _______ _______ _______ _____ _____    ______ ____
ROOT
ATOM      1  C   UNL     1       6.515   6.946  17.178  0.00  0.00    +0.000 A 
ATOM      2  C   UNL     1       7.268   5.779  17.004  0.00  0.00    +0.000 A 
ATOM      3  C   UNL     1       6.690   4.517  17.122  0.00  0.00    +0.000 A 
ATOM      4  C   UNL     1       5.334   4.400  17.393  0.00  0.00    +0.000 A 
ATOM      5  C   UNL     1       4.542   5.550  17.508  0.00  0.00    +0.000 A 
ATOM      6  C   UNL     1       5.136   6.823  17.406  0.00  0.00    +0.000 A 
ENDROOT
BRANCH   1  10
ATOM      7  O   UNL     1       8.665   7.953  18.825  0.00  0.00    +0.000 OA
ATOM      8  C   UNL     1       8.125   8.667  17.987  0.00  0.00    +0.000 C 
ATOM      9  N   UNL     1       8.447  10.005  17.795  0.00  0.00    +0.000 N 
ATOM     10  N   UNL     1       7.093   8.244  17.158  0.00  0.00    +0.000 N 
ATOM     11  H   UNL     1       7.812  10.561  17.245  0.00  0.00    +0.000 HD
ATOM     12  H   UNL     1       6.616   8.944  16.611  0.00  0.00    +0.000 HD
BRANCH   9  13
ATOM     13  C   UNL     1       9.441  10.712  18.521  0.00  0.00    +0.000 A 
ATOM     14  C   UNL     1      10.612  11.208  17.936  0.00  0.00    +0.000 A 
ATOM     15  C   UNL     1      11.591  11.840  18.708  0.00  0.00    +0.000 A 
ATOM     16  C   UNL     1      11.403  11.998  20.076  0.00  0.00    +0.000 A 
ATOM     17  C   UNL     1      10.226  11.541  20.668  0.00  0.00    +0.000 A 
ATOM     18  C   UNL     1       9.246  10.909  19.892  0.00  0.00    +0.000 A 
ENDBRANCH   9  13
ENDBRANCH   1  10
BRANCH   5  19
ATOM     19  C   UNL     1       3.086   5.438  17.803  0.00  0.00    +0.000 C 
ATOM     20  O   UNL     1       2.493   4.379  17.641  0.00  0.00    +0.000 OA
BRANCH  19  21
ATOM     21  C   UNL     1       2.405   6.661  18.319  0.00  0.00    +0.000 C 
ATOM     22  C   UNL     1       2.366   6.935  19.629  0.00  0.00    +0.000 C 
BRANCH  22  23
ATOM     23  C   UNL     1       1.637   8.109  20.116  0.00  0.00    +0.000 A 
ATOM     24  C   UNL     1       1.210   8.168  21.450  0.00  0.00    +0.000 A 
ATOM     25  C   UNL     1       0.475   9.265  21.908  0.00  0.00    +0.000 A 
ATOM     26  C   UNL     1       0.169  10.306  21.032  0.00  0.00    +0.000 A 
ATOM     27 BR   UNL     1      -0.835  11.785  21.648  0.00  0.00    +0.000 Br
ATOM     28  C   UNL     1       0.592  10.258  19.704  0.00  0.00    +0.000 A 
ATOM     29  C   UNL     1       1.324   9.160  19.246  0.00  0.00    +0.000 A 
ENDBRANCH  22  23
ENDBRANCH  19  21
ENDBRANCH   5  19
TORSDOF 5
ENDMDL
MODEL 3
REMARK VINA RESULT:      -8.8      1.052      1.704
REMARK  Name = 
REMARK  5 active torsions:
REMARK  status: ('A' for Active; 'I' for Inactive)
REMARK    1  A    between atoms: N_3  and  C_4
REMARK    2  A    between atoms: N_10  and  C_11
REMARK    3  A    between atoms: C_15  and  C_16
REMARK    4  A    between atoms: C_16  and  C_18
REMARK    5  A    between atoms: C_19  and  C_20
REMARK                            x       y       z     vdW  Elec       q    Type
REMARK                         _______ _______ _______ _____ _____    ______ ____
ROOT
ATOM      1  C   UNL     1       6.922   6.114  17.438  0.00  0.00    +0.000 A 
ATOM      2  C   UNL     1       7.335   5.543  16.227  0.00  0.00    +0.000 A 
ATOM      3  C   UNL     1       6.495   4.708  15.494  0.00  0.00    +0.000 A 
ATOM      4  C   UNL     1       5.210   4.448  15.950  0.00  0.00    +0.000 A 
ATOM      5  C   UNL     1       4.747   5.056  17.123  0.00  0.00    +0.000 A 
ATOM      6  C   UNL     1       5.607   5.885  17.870  0.00  0.00    +0.000 A 
ENDROOT
BRANCH   1  10
ATOM      7  O   UNL     1       7.395   8.961  17.304  0.00  0.00    +0.000 OA
ATOM      8  C   UNL     1       7.973   8.264  18.130  0.00  0.00    +0.000 C 
ATOM      9  N   UNL     1       8.925   8.752  19.016  0.00  0.00    +0.000 N 
ATOM     10  N   UNL     1       7.786   6.892  18.254  0.00  0.00    +0.000 N 
ATOM     11  H   UNL     1       9.497   8.080  19.502  0.00  0.00    +0.000 HD
ATOM     12  H   UNL     1       8.415   6.387  18.859  0.00  0.00    +0.000 HD
BRANCH   9  13
ATOM     13  C   UNL     1       9.340  10.108  19.096  0.00  0.00    +0.000 A 
ATOM     14  C   UNL     1       9.781  10.843  17.990  0.00  0.00    +0.000 A 
ATOM     15  C   UNL     1      10.241  12.155  18.133  0.00  0.00    +0.000 A 
ATOM     16  C   UNL     1      10.251  12.756  19.386  0.00  0.00    +0.000 A 
ATOM     17  C   UNL     1       9.781  12.049  20.493  0.00  0.00    +0.000 A 
ATOM     18  C   UNL     1       9.320  10.734  20.347  0.00  0.00    +0.000 A 
ENDBRANCH   9  13
ENDBRANCH   1  10
BRANCH   5  19
ATOM     19  C   UNL     1       3.371   4.782  17.625  0.00  0.00    +0.000 C 
ATOM     20  O   UNL     1       2.819   3.714  17.391  0.00  0.00    +0.000 OA
BRANCH  19  21
ATOM     21  C   UNL     1       2.720   5.854  18.433  0.00  0.00    +0.000 C 
ATOM     22  C   UNL     1       2.518   7.079  17.930  0.00  0.00    +0.000 C 
BRANCH  22  23
ATOM     23  C   UNL     1       1.934   8.132  18.765  0.00  0.00    +0.000 A 
ATOM     24  C   UNL     1       1.722   7.909  20.132  0.00  0.00    +0.000 A 
ATOM     25  C   UNL     1       1.124   8.893  20.924  0.00  0.00    +0.000 A 
ATOM     26  C   UNL     1       0.739  10.103  20.348  0.00  0.00    +0.000 A 
ATOM     27 BR   UNL     1      -0.081  11.431  21.416  0.00  0.00    +0.000 Br
ATOM     28  C   UNL     1       0.947  10.336  18.989  0.00  0.00    +0.000 A 
ATOM     29  C   UNL     1       1.543   9.350  18.198  0.00  0.00    +0.000 A 
ENDBRANCH  22  23
ENDBRANCH  19  21
ENDBRANCH   5  19
TORSDOF 5
ENDMDL
MODEL 4
REMARK VINA RESULT:      -8.6      1.166      1.300
REMARK  Name = 
REMARK  5 active torsions:
REMARK  status: ('A' for Active; 'I' for Inactive)
REMARK    1  A    between atoms: N_3  and  C_4
REMARK    2  A    between atoms: N_10  and  C_11
REMARK    3  A    between atoms: C_15  and  C_16
REMARK    4  A    between atoms: C_16  and  C_18
REMARK    5  A    between atoms: C_19  and  C_20
REMARK                            x       y       z     vdW  Elec       q    Type
REMARK                         _______ _______ _______ _____ _____    ______ ____
ROOT
ATOM      1  C   UNL     1       6.931   5.990  17.383  0.00  0.00    +0.000 A 
ATOM      2  C   UNL     1       7.342   5.507  16.134  0.00  0.00    +0.000 A 
ATOM      3  C   UNL     1       6.529   4.668  15.377  0.00  0.00    +0.000 A 
ATOM      4  C   UNL     1       5.271   4.316  15.846  0.00  0.00    +0.000 A 
ATOM      5  C   UNL     1       4.807   4.835  17.061  0.00  0.00    +0.000 A 
ATOM      6  C   UNL     1       5.641   5.668  17.832  0.00  0.00    +0.000 A 
ENDROOT
BRANCH   1  10
ATOM      7  O   UNL     1       7.371   8.844  17.286  0.00  0.00    +0.000 OA
ATOM      8  C   UNL     1       7.946   8.146  18.114  0.00  0.00    +0.000 C 
ATOM      9  N   UNL     1       8.878   8.636  19.019  0.00  0.00    +0.000 N 
ATOM     10  N   UNL     1       7.773   6.770  18.221  0.00  0.00    +0.000 N 
ATOM     11  H   UNL     1       9.450   7.965  19.506  0.00  0.00    +0.000 HD
ATOM     12  H   UNL     1       8.399   6.266  18.829  0.00  0.00    +0.000 HD
BRANCH   9  13
ATOM     13  C   UNL     1       9.275   9.995  19.119  0.00  0.00    +0.000 A 
ATOM     14  C   UNL     1       9.296  10.704  20.326  0.00  0.00    +0.000 A 
ATOM     15  C   UNL     1       9.631  12.060  20.359  0.00  0.00    +0.000 A 
ATOM     16  C   UNL     1       9.966  12.723  19.185  0.00  0.00    +0.000 A 
ATOM     17  C   UNL     1       9.984  12.023  17.979  0.00  0.00    +0.000 A 
ATOM     18  C   UNL     1       9.648  10.664  17.947  0.00  0.00    +0.000 A 
ENDBRANCH   9  13
ENDBRANCH   1  10
BRANCH   5  19
ATOM     19  C   UNL     1       3.460   4.461  17.579  0.00  0.00    +0.000 C 
ATOM     20  O   UNL     1       3.077   3.298  17.545  0.00  0.00    +0.000 OA
BRANCH  19  21
ATOM     21  C   UNL     1       2.627   5.558  18.151  0.00  0.00    +0.000 C 
ATOM     22  C   UNL     1       2.975   6.843  18.006  0.00  0.00    +0.000 C 
BRANCH  22  23
ATOM     23  C   UNL     1       2.174   7.900  18.630  0.00  0.00    +0.000 A 
ATOM     24  C   UNL     1       1.771   9.012  17.880  0.00  0.00    +0.000 A 
ATOM     25  C   UNL     1       1.046  10.045  18.482  0.00  0.00    +0.000 A 
ATOM     26  C   UNL     1       0.722   9.962  19.836  0.00  0.00    +0.000 A 
ATOM     27 BR   UNL     1      -0.249  11.364  20.654  0.00  0.00    +0.000 Br
ATOM     28  C   UNL     1       1.117   8.858  20.591  0.00  0.00    +0.000 A 
ATOM     29  C   UNL     1       1.844   7.828  19.988  0.00  0.00    +0.000 A 
ENDBRANCH  22  23
ENDBRANCH  19  21
ENDBRANCH   5  19
TORSDOF 5
ENDMDL
MODEL 5
REMARK VINA RESULT:      -8.5      0.774      1.262
REMARK  Name = 
REMARK  5 active torsions:
REMARK  status: ('A' for Active; 'I' for Inactive)
REMARK    1  A    between atoms: N_3  and  C_4
REMARK    2  A    between atoms: N_10  and  C_11
REMARK    3  A    between atoms: C_15  and  C_16
REMARK    4  A    between atoms: C_16  and  C_18
REMARK    5  A    between atoms: C_19  and  C_20
REMARK                            x       y       z     vdW  Elec       q    Type
REMARK                         _______ _______ _______ _____ _____    ______ ____
ROOT
ATOM      1  C   UNL     1       6.624   6.794  17.117  0.00  0.00    +0.000 A 
ATOM      2  C   UNL     1       7.142   5.763  16.324  0.00  0.00    +0.000 A 
ATOM      3  C   UNL     1       6.657   4.460  16.419  0.00  0.00    +0.000 A 
ATOM      4  C   UNL     1       5.622   4.170  17.296  0.00  0.00    +0.000 A 
ATOM      5  C   UNL     1       5.040   5.194  18.055  0.00  0.00    +0.000 A 
ATOM      6  C   UNL     1       5.547   6.505  17.968  0.00  0.00    +0.000 A 
ENDROOT
BRANCH   1  10
ATOM      7  O   UNL     1       8.695   7.870  18.820  0.00  0.00    +0.000 OA
ATOM      8  C   UNL     1       8.154   8.567  17.969  0.00  0.00    +0.000 C 
ATOM      9  N   UNL     1       8.437   9.914  17.785  0.00  0.00    +0.000 N 
ATOM     10  N   UNL     1       7.159   8.110  17.112  0.00  0.00    +0.000 N 
ATOM     11  H   UNL     1       7.799  10.450  17.218  0.00  0.00    +0.000 HD
ATOM     12  H   UNL     1       6.674   8.794  16.552  0.00  0.00    +0.000 HD
BRANCH   9  13
ATOM     13  C   UNL     1       9.388  10.654  18.537  0.00  0.00    +0.000 A 
ATOM     14  C   UNL     1      10.560  11.184  17.985  0.00  0.00    +0.000 A 
ATOM     15  C   UNL     1      11.496  11.847  18.784  0.00  0.00    +0.000 A 
ATOM     16  C   UNL     1      11.263  12.003  20.144  0.00  0.00    +0.000 A 
ATOM     17  C   UNL     1      10.083  11.512  20.703  0.00  0.00    +0.000 A 
ATOM     18  C   UNL     1       9.146  10.848  19.901  0.00  0.00    +0.000 A 
ENDBRANCH   9  13
ENDBRANCH   1  10
BRANCH   5  19
ATOM     19  C   UNL     1       3.930   4.895  19.003  0.00  0.00    +0.000 C 
ATOM     20  O   UNL     1       3.760   3.760  19.431  0.00  0.00    +0.000 OA
BRANCH  19  21
ATOM     21  C   UNL     1       3.065   6.039  19.414  0.00  0.00    +0.000 C 
ATOM     22  C   UNL     1       2.694   6.980  18.536  0.00  0.00    +0.000 C 
BRANCH  22  23
ATOM     23  C   UNL     1       1.896   8.127  18.977  0.00  0.00    +0.000 A 
ATOM     24  C   UNL     1       1.518   9.115  18.059  0.00  0.00    +0.000 A 
ATOM     25  C   UNL     1       0.796  10.235  18.483  0.00  0.00    +0.000 A 
ATOM     26  C   UNL     1       0.450  10.364  19.828  0.00  0.00    +0.000 A 
ATOM     27 BR   UNL     1      -0.516  11.884  20.404  0.00  0.00    +0.000 Br
ATOM     28  C   UNL     1       0.820   9.385  20.749  0.00  0.00    +0.000 A 
ATOM     29  C   UNL     1       1.543   8.268  20.324  0.00  0.00    +0.000 A 
ENDBRANCH  22  23
ENDBRANCH  19  21
ENDBRANCH   5  19
TORSDOF 5
ENDMDL
MODEL 6
REMARK VINA RESULT:      -8.4      3.146      7.580
REMARK  Name = 
REMARK  5 active torsions:
REMARK  status: ('A' for Active; 'I' for Inactive)
REMARK    1  A    between atoms: N_3  and  C_4
REMARK    2  A    between atoms: N_10  and  C_11
REMARK    3  A    between atoms: C_15  and  C_16
REMARK    4  A    between atoms: C_16  and  C_18
REMARK    5  A    between atoms: C_19  and  C_20
REMARK                            x       y       z     vdW  Elec       q    Type
REMARK                         _______ _______ _______ _____ _____    ______ ____
ROOT
ATOM      1  C   UNL     1       3.736   5.508  18.875  0.00  0.00    +0.000 A 
ATOM      2  C   UNL     1       3.252   4.922  17.698  0.00  0.00    +0.000 A 
ATOM      3  C   UNL     1       4.113   4.528  16.676  0.00  0.00    +0.000 A 
ATOM      4  C   UNL     1       5.483   4.692  16.825  0.00  0.00    +0.000 A 
ATOM      5  C   UNL     1       6.000   5.215  18.017  0.00  0.00    +0.000 A 
ATOM      6  C   UNL     1       5.124   5.629  19.039  0.00  0.00    +0.000 A 
ENDROOT
BRANCH   1  10
ATOM      7  O   UNL     1       2.321   8.027  18.925  0.00  0.00    +0.000 OA
ATOM      8  C   UNL     1       2.233   7.236  19.858  0.00  0.00    +0.000 C 
ATOM      9  N   UNL     1       1.513   7.492  21.017  0.00  0.00    +0.000 N 
ATOM     10  N   UNL     1       2.880   6.006  19.893  0.00  0.00    +0.000 N 
ATOM     11  H   UNL     1       1.673   6.887  21.807  0.00  0.00    +0.000 HD
ATOM     12  H   UNL     1       2.866   5.496  20.763  0.00  0.00    +0.000 HD
BRANCH   9  13
ATOM     13  C   UNL     1       0.778   8.680  21.271  0.00  0.00    +0.000 A 
ATOM     14  C   UNL     1       0.525   9.168  22.557  0.00  0.00    +0.000 A 
ATOM     15  C   UNL     1      -0.262  10.307  22.754  0.00  0.00    +0.000 A 
ATOM     16  C   UNL     1      -0.792  10.983  21.663  0.00  0.00    +0.000 A 
ATOM     17  C   UNL     1      -0.520  10.530  20.372  0.00  0.00    +0.000 A 
ATOM     18  C   UNL     1       0.269   9.389  20.177  0.00  0.00    +0.000 A 
ENDBRANCH   9  13
ENDBRANCH   1  10
BRANCH   5  19
ATOM     19  C   UNL     1       7.469   5.400  18.187  0.00  0.00    +0.000 C 
ATOM     20  O   UNL     1       8.245   4.473  17.986  0.00  0.00    +0.000 OA
BRANCH  19  21
ATOM     21  C   UNL     1       7.938   6.758  18.588  0.00  0.00    +0.000 C 
ATOM     22  C   UNL     1       7.768   7.817  17.785  0.00  0.00    +0.000 C 
BRANCH  22  23
ATOM     23  C   UNL     1       8.293   9.129  18.174  0.00  0.00    +0.000 A 
ATOM     24  C   UNL     1       8.028  10.254  17.383  0.00  0.00    +0.000 A 
ATOM     25  C   UNL     1       8.564  11.500  17.724  0.00  0.00    +0.000 A 
ATOM     26  C   UNL     1       9.365  11.619  18.859  0.00  0.00    +0.000 A 
ATOM     27 BR   UNL     1      10.100  13.301  19.314  0.00  0.00    +0.000 Br
ATOM     28  C   UNL     1       9.633  10.505  19.654  0.00  0.00    +0.000 A 
ATOM     29  C   UNL     1       9.099   9.261  19.311  0.00  0.00    +0.000 A 
ENDBRANCH  22  23
ENDBRANCH  19  21
ENDBRANCH   5  19
TORSDOF 5
ENDMDL
MODEL 7
REMARK VINA RESULT:      -8.4      3.166      7.629
REMARK  Name = 
REMARK  5 active torsions:
REMARK  status: ('A' for Active; 'I' for Inactive)
REMARK    1  A    between atoms: N_3  and  C_4
REMARK    2  A    between atoms: N_10  and  C_11
REMARK    3  A    between atoms: C_15  and  C_16
REMARK    4  A    between atoms: C_16  and  C_18
REMARK    5  A    between atoms: C_19  and  C_20
REMARK                            x       y       z     vdW  Elec       q    Type
REMARK                         _______ _______ _______ _____ _____    ______ ____
ROOT
ATOM      1  C   UNL     1       3.487   6.492  18.284  0.00  0.00    +0.000 A 
ATOM      2  C   UNL     1       3.120   5.203  17.877  0.00  0.00    +0.000 A 
ATOM      3  C   UNL     1       4.003   4.384  17.177  0.00  0.00    +0.000 A 
ATOM      4  C   UNL     1       5.285   4.834  16.893  0.00  0.00    +0.000 A 
ATOM      5  C   UNL     1       5.702   6.092  17.344  0.00  0.00    +0.000 A 
ATOM      6  C   UNL     1       4.799   6.923  18.035  0.00  0.00    +0.000 A 
ENDROOT
BRANCH   1  10
ATOM      7  O   UNL     1       2.288   8.876  17.175  0.00  0.00    +0.000 OA
ATOM      8  C   UNL     1       2.045   8.524  18.324  0.00  0.00    +0.000 C 
ATOM      9  N   UNL     1       1.241   9.247  19.196  0.00  0.00    +0.000 N 
ATOM     10  N   UNL     1       2.581   7.385  18.916  0.00  0.00    +0.000 N 
ATOM     11  H   UNL     1       1.273   9.000  20.172  0.00  0.00    +0.000 HD
ATOM     12  H   UNL     1       2.441   7.264  19.907  0.00  0.00    +0.000 HD
BRANCH   9  13
ATOM     13  C   UNL     1       0.586  10.465  18.873  0.00  0.00    +0.000 A 
ATOM     14  C   UNL     1       1.198  11.719  18.980  0.00  0.00    +0.000 A 
ATOM     15  C   UNL     1       0.487  12.893  18.714  0.00  0.00    +0.000 A 
ATOM     16  C   UNL     1      -0.844  12.826  18.321  0.00  0.00    +0.000 A 
ATOM     17  C   UNL     1      -1.459  11.583  18.176  0.00  0.00    +0.000 A 
ATOM     18  C   UNL     1      -0.745  10.407  18.443  0.00  0.00    +0.000 A 
ENDBRANCH   9  13
ENDBRANCH   1  10
BRANCH   5  19
ATOM     19  C   UNL     1       7.075   6.587  17.042  0.00  0.00    +0.000 C 
ATOM     20  O   UNL     1       7.729   6.101  16.128  0.00  0.00    +0.000 OA
BRANCH  19  21
ATOM     21  C   UNL     1       7.591   7.704  17.885  0.00  0.00    +0.000 C 
ATOM     22  C   UNL     1       8.001   8.856  17.338  0.00  0.00    +0.000 C 
BRANCH  22  23
ATOM     23  C   UNL     1       8.562   9.915  18.182  0.00  0.00    +0.000 A 
ATOM     24  C   UNL     1       9.029   9.614  19.469  0.00  0.00    +0.000 A 
ATOM     25  C   UNL     1       9.524  10.628  20.296  0.00  0.00    +0.000 A 
ATOM     26  C   UNL     1       9.553  11.942  19.833  0.00  0.00    +0.000 A 
ATOM     27 BR   UNL     1      10.212  13.316  20.954  0.00  0.00    +0.000 Br
ATOM     28  C   UNL     1       9.093  12.252  18.553  0.00  0.00    +0.000 A 
ATOM     29  C   UNL     1       8.597  11.238  17.729  0.00  0.00    +0.000 A 
ENDBRANCH  22  23
ENDBRANCH  19  21
ENDBRANCH   5  19
TORSDOF 5
ENDMDL
MODEL 8
REMARK VINA RESULT:      -8.4      3.172      7.491
REMARK  Name = 
REMARK  5 active torsions:
REMARK  status: ('A' for Active; 'I' for Inactive)
REMARK    1  A    between atoms: N_3  and  C_4
REMARK    2  A    between atoms: N_10  and  C_11
REMARK    3  A    between atoms: C_15  and  C_16
REMARK    4  A    between atoms: C_16  and  C_18
REMARK    5  A    between atoms: C_19  and  C_20
REMARK                            x       y       z     vdW  Elec       q    Type
REMARK                         _______ _______ _______ _____ _____    ______ ____
ROOT
ATOM      1  C   UNL     1       3.269   6.512  18.345  0.00  0.00    +0.000 A 
ATOM      2  C   UNL     1       2.814   5.235  17.989  0.00  0.00    +0.000 A 
ATOM      3  C   UNL     1       3.629   4.342  17.296  0.00  0.00    +0.000 A 
ATOM      4  C   UNL     1       4.928   4.703  16.968  0.00  0.00    +0.000 A 
ATOM      5  C   UNL     1       5.431   5.947  17.368  0.00  0.00    +0.000 A 
ATOM      6  C   UNL     1       4.597   6.853  18.052  0.00  0.00    +0.000 A 
ENDROOT
BRANCH   1  10
ATOM      7  O   UNL     1       2.223   8.949  17.200  0.00  0.00    +0.000 OA
ATOM      8  C   UNL     1       1.971   8.639  18.358  0.00  0.00    +0.000 C 
ATOM      9  N   UNL     1       1.229   9.433  19.223  0.00  0.00    +0.000 N 
ATOM     10  N   UNL     1       2.434   7.478  18.968  0.00  0.00    +0.000 N 
ATOM     11  H   UNL     1       1.256   9.204  20.203  0.00  0.00    +0.000 HD
ATOM     12  H   UNL     1       2.298   7.386  19.963  0.00  0.00    +0.000 HD
BRANCH   9  13
ATOM     13  C   UNL     1       0.656  10.687  18.882  0.00  0.00    +0.000 A 
ATOM     14  C   UNL     1       1.369  11.890  18.905  0.00  0.00    +0.000 A 
ATOM     15  C   UNL     1       0.740  13.107  18.626  0.00  0.00    +0.000 A 
ATOM     16  C   UNL     1      -0.611  13.133  18.302  0.00  0.00    +0.000 A 
ATOM     17  C   UNL     1      -1.328  11.938  18.240  0.00  0.00    +0.000 A 
ATOM     18  C   UNL     1      -0.696  10.720  18.521  0.00  0.00    +0.000 A 
ENDBRANCH   9  13
ENDBRANCH   1  10
BRANCH   5  19
ATOM     19  C   UNL     1       6.823   6.348  17.018  0.00  0.00    +0.000 C 
ATOM     20  O   UNL     1       7.597   5.547  16.508  0.00  0.00    +0.000 OA
BRANCH  19  21
ATOM     21  C   UNL     1       7.210   7.761  17.297  0.00  0.00    +0.000 C 
ATOM     22  C   UNL     1       8.243   8.054  18.098  0.00  0.00    +0.000 C 
BRANCH  22  23
ATOM     23  C   UNL     1       8.565   9.450  18.408  0.00  0.00    +0.000 A 
ATOM     24  C   UNL     1       8.209  10.468  17.512  0.00  0.00    +0.000 A 
ATOM     25  C   UNL     1       8.554  11.796  17.780  0.00  0.00    +0.000 A 
ATOM     26  C   UNL     1       9.253  12.106  18.946  0.00  0.00    +0.000 A 
ATOM     27 BR   UNL     1       9.729  13.901  19.304  0.00  0.00    +0.000 Br
ATOM     28  C   UNL     1       9.609  11.101  19.845  0.00  0.00    +0.000 A 
ATOM     29  C   UNL     1       9.266   9.774  19.575  0.00  0.00    +0.000 A 
ENDBRANCH  22  23
ENDBRANCH  19  21
ENDBRANCH   5  19
TORSDOF 5
ENDMDL
MODEL 9
REMARK VINA RESULT:      -8.3      3.180      7.436
REMARK  Name = 
REMARK  5 active torsions:
REMARK  status: ('A' for Active; 'I' for Inactive)
REMARK    1  A    between atoms: N_3  and  C_4
REMARK    2  A    between atoms: N_10  and  C_11
REMARK    3  A    between atoms: C_15  and  C_16
REMARK    4  A    between atoms: C_16  and  C_18
REMARK    5  A    between atoms: C_19  and  C_20
REMARK                            x       y       z     vdW  Elec       q    Type
REMARK                         _______ _______ _______ _____ _____    ______ ____
ROOT
ATOM      1  C   UNL     1       3.406   6.294  18.389  0.00  0.00    +0.000 A 
ATOM      2  C   UNL     1       2.879   5.122  17.830  0.00  0.00    +0.000 A 
ATOM      3  C   UNL     1       3.679   4.239  17.108  0.00  0.00    +0.000 A 
ATOM      4  C   UNL     1       5.034   4.502  16.954  0.00  0.00    +0.000 A 
ATOM      5  C   UNL     1       5.601   5.631  17.556  0.00  0.00    +0.000 A 
ATOM      6  C   UNL     1       4.783   6.530  18.269  0.00  0.00    +0.000 A 
ENDROOT
BRANCH   1  10
ATOM      7  O   UNL     1       2.159   8.637  17.248  0.00  0.00    +0.000 OA
ATOM      8  C   UNL     1       2.034   8.374  18.438  0.00  0.00    +0.000 C 
ATOM      9  N   UNL     1       1.351   9.182  19.337  0.00  0.00    +0.000 N 
ATOM     10  N   UNL     1       2.600   7.260  19.049  0.00  0.00    +0.000 N 
ATOM     11  H   UNL     1       1.483   9.001  20.319  0.00  0.00    +0.000 HD
ATOM     12  H   UNL     1       2.566   7.211  20.055  0.00  0.00    +0.000 HD
BRANCH   9  13
ATOM     13  C   UNL     1       0.698  10.398  19.001  0.00  0.00    +0.000 A 
ATOM     14  C   UNL     1      -0.643  10.468  18.608  0.00  0.00    +0.000 A 
ATOM     15  C   UNL     1      -1.219  11.682  18.223  0.00  0.00    +0.000 A 
ATOM     16  C   UNL     1      -0.462  12.847  18.242  0.00  0.00    +0.000 A 
ATOM     17  C   UNL     1       0.866  12.801  18.664  0.00  0.00    +0.000 A 
ATOM     18  C   UNL     1       1.441  11.583  19.050  0.00  0.00    +0.000 A 
ENDBRANCH   9  13
ENDBRANCH   1  10
BRANCH   5  19
ATOM     19  C   UNL     1       7.053   5.926  17.395  0.00  0.00    +0.000 C 
ATOM     20  O   UNL     1       7.770   5.195  16.723  0.00  0.00    +0.000 OA
BRANCH  19  21
ATOM     21  C   UNL     1       7.572   7.153  18.066  0.00  0.00    +0.000 C 
ATOM     22  C   UNL     1       7.747   8.295  17.388  0.00  0.00    +0.000 C 
BRANCH  22  23
ATOM     23  C   UNL     1       8.318   9.468  18.055  0.00  0.00    +0.000 A 
ATOM     24  C   UNL     1       8.204  10.736  17.468  0.00  0.00    +0.000 A 
ATOM     25  C   UNL     1       8.786  11.852  18.077  0.00  0.00    +0.000 A 
ATOM     26  C   UNL     1       9.480  11.699  19.276  0.00  0.00    +0.000 A 
ATOM     27 BR   UNL     1      10.278  13.206  20.095  0.00  0.00    +0.000 Br
ATOM     28  C   UNL     1       9.598  10.443  19.870  0.00  0.00    +0.000 A 
ATOM     29  C   UNL     1       9.018   9.328  19.259  0.00  0.00    +0.000 A 
ENDBRANCH  22  23
ENDBRANCH  19  21
ENDBRANCH   5  19
TORSDOF 5
ENDMDL
