MODEL 1
REMARK VINA RESULT:      -6.5      0.000      0.000
REMARK  Name = 
REMARK  2 active torsions:
REMARK  status: ('A' for Active; 'I' for Inactive)
REMARK    1  A    between atoms: C_1  and  C_2
REMARK    2  A    between atoms: N_11  and  C_12
REMARK                            x       y       z     vdW  Elec       q    Type
REMARK                         _______ _______ _______ _____ _____    ______ ____
ROOT
ATOM      1  C   UNL     1       4.355   2.014  19.219  0.00  0.00    +0.000 C 
ATOM      2  C   UNL     1       3.769   2.443  17.864  0.00  0.00    +0.000 C 
ATOM      3  C   UNL     1       4.509   3.686  17.296  0.00  0.00    +0.000 A 
ATOM      4  C   UNL     1       4.992   3.561  15.975  0.00  0.00    +0.000 A 
ATOM      5  C   UNL     1       5.310   4.668  15.194  0.00  0.00    +0.000 A 
ATOM      6  C   UNL     1       5.201   5.952  15.716  0.00  0.00    +0.000 A 
ATOM      7  C   UNL     1       4.833   6.120  17.045  0.00  0.00    +0.000 A 
ATOM      8  C   UNL     1       4.484   5.013  17.845  0.00  0.00    +0.000 A 
ATOM      9  C   UNL     1       3.880   5.461  19.144  0.00  0.00    +0.000 C 
ATOM     10  O   UNL     1       4.652   5.811  20.033  0.00  0.00    +0.000 OA
ATOM     11  N   UNL     1       2.446   5.541  19.244  0.00  0.00    +0.000 N 
ATOM     12  C   UNL     1       1.959   6.067  20.507  0.00  0.00    +0.000 C 
ATOM     13  C   UNL     1       1.829   4.330  18.790  0.00  0.00    +0.000 C 
ATOM     14  C   UNL     1       0.668   3.486  19.233  0.00  0.00    +0.000 C 
ATOM     15  C   UNL     1       1.309   2.127  18.727  0.00  0.00    +0.000 C 
ATOM     16  N   UNL     1       2.257   2.479  17.583  0.00  0.00    +0.000 NA
ATOM     17  C   UNL     1       1.860   3.887  17.327  0.00  0.00    +0.000 C 
ENDROOT
TORSDOF 0
ENDMDL
MODEL 2
REMARK VINA RESULT:      -6.4      1.735      2.993
REMARK  Name = 
REMARK  2 active torsions:
REMARK  status: ('A' for Active; 'I' for Inactive)
REMARK    1  A    between atoms: C_1  and  C_2
REMARK    2  A    between atoms: N_11  and  C_12
REMARK                            x       y       z     vdW  Elec       q    Type
REMARK                         _______ _______ _______ _____ _____    ______ ____
ROOT
ATOM      1  C   UNL     1       5.250   4.029  18.932  0.00  0.00    +0.000 C 
ATOM      2  C   UNL     1       4.236   4.637  17.949  0.00  0.00    +0.000 C 
ATOM      3  C   UNL     1       3.601   5.935  18.523  0.00  0.00    +0.000 A 
ATOM      4  C   UNL     1       3.662   7.069  17.683  0.00  0.00    +0.000 A 
ATOM      5  C   UNL     1       2.823   8.165  17.857  0.00  0.00    +0.000 A 
ATOM      6  C   UNL     1       1.913   8.195  18.908  0.00  0.00    +0.000 A 
ATOM      7  C   UNL     1       1.891   7.149  19.823  0.00  0.00    +0.000 A 
ATOM      8  C   UNL     1       2.716   6.020  19.650  0.00  0.00    +0.000 A 
ATOM      9  C   UNL     1       2.333   4.927  20.605  0.00  0.00    +0.000 C 
ATOM     10  O   UNL     1       2.753   5.011  21.756  0.00  0.00    +0.000 OA
ATOM     11  N   UNL     1       1.431   3.902  20.149  0.00  0.00    +0.000 N 
ATOM     12  C   UNL     1       1.049   2.939  21.167  0.00  0.00    +0.000 C 
ATOM     13  C   UNL     1       1.863   3.354  18.898  0.00  0.00    +0.000 C 
ATOM     14  C   UNL     1       1.910   1.982  18.287  0.00  0.00    +0.000 C 
ATOM     15  C   UNL     1       3.202   2.282  17.419  0.00  0.00    +0.000 C 
ATOM     16  N   UNL     1       3.225   3.786  17.160  0.00  0.00    +0.000 NA
ATOM     17  C   UNL     1       1.856   4.157  17.598  0.00  0.00    +0.000 C 
ENDROOT
TORSDOF 0
ENDMDL
MODEL 3
REMARK VINA RESULT:      -6.2      2.098      4.345
REMARK  Name = 
REMARK  2 active torsions:
REMARK  status: ('A' for Active; 'I' for Inactive)
REMARK    1  A    between atoms: C_1  and  C_2
REMARK    2  A    between atoms: N_11  and  C_12
REMARK                            x       y       z     vdW  Elec       q    Type
REMARK                         _______ _______ _______ _____ _____    ______ ____
ROOT
ATOM      1  C   UNL     1       4.164   3.122  16.699  0.00  0.00    +0.000 C 
ATOM      2  C   UNL     1       4.677   3.260  18.142  0.00  0.00    +0.000 C 
ATOM      3  C   UNL     1       3.501   3.352  19.154  0.00  0.00    +0.000 A 
ATOM      4  C   UNL     1       3.548   2.440  20.233  0.00  0.00    +0.000 A 
ATOM      5  C   UNL     1       2.825   2.641  21.404  0.00  0.00    +0.000 A 
ATOM      6  C   UNL     1       1.985   3.742  21.533  0.00  0.00    +0.000 A 
ATOM      7  C   UNL     1       1.824   4.607  20.458  0.00  0.00    +0.000 A 
ATOM      8  C   UNL     1       2.565   4.435  19.273  0.00  0.00    +0.000 A 
ATOM      9  C   UNL     1       2.415   5.625  18.370  0.00  0.00    +0.000 C 
ATOM     10  O   UNL     1       1.400   5.685  17.681  0.00  0.00    +0.000 OA
ATOM     11  N   UNL     1       3.413   6.661  18.428  0.00  0.00    +0.000 N 
ATOM     12  C   UNL     1       3.137   7.811  17.584  0.00  0.00    +0.000 C 
ATOM     13  C   UNL     1       4.732   6.113  18.328  0.00  0.00    +0.000 C 
ATOM     14  C   UNL     1       6.009   6.508  17.641  0.00  0.00    +0.000 C 
ATOM     15  C   UNL     1       6.493   5.014  17.422  0.00  0.00    +0.000 C 
ATOM     16  N   UNL     1       5.855   4.173  18.524  0.00  0.00    +0.000 NA
ATOM     17  C   UNL     1       5.349   5.242  19.422  0.00  0.00    +0.000 C 
ENDROOT
TORSDOF 0
ENDMDL
MODEL 4
REMARK VINA RESULT:      -6.2      1.791      3.444
REMARK  Name = 
REMARK  2 active torsions:
REMARK  status: ('A' for Active; 'I' for Inactive)
REMARK    1  A    between atoms: C_1  and  C_2
REMARK    2  A    between atoms: N_11  and  C_12
REMARK                            x       y       z     vdW  Elec       q    Type
REMARK                         _______ _______ _______ _____ _____    ______ ____
ROOT
ATOM      1  C   UNL     1       1.769   6.892  17.656  0.00  0.00    +0.000 C 
ATOM      2  C   UNL     1       3.130   6.702  18.346  0.00  0.00    +0.000 C 
ATOM      3  C   UNL     1       4.115   5.909  17.443  0.00  0.00    +0.000 A 
ATOM      4  C   UNL     1       5.375   6.513  17.233  0.00  0.00    +0.000 A 
ATOM      5  C   UNL     1       6.482   5.788  16.802  0.00  0.00    +0.000 A 
ATOM      6  C   UNL     1       6.367   4.431  16.519  0.00  0.00    +0.000 A 
ATOM      7  C   UNL     1       5.124   3.817  16.608  0.00  0.00    +0.000 A 
ATOM      8  C   UNL     1       3.997   4.528  17.065  0.00  0.00    +0.000 A 
ATOM      9  C   UNL     1       2.846   3.600  17.319  0.00  0.00    +0.000 C 
ATOM     10  O   UNL     1       2.181   3.247  16.348  0.00  0.00    +0.000 OA
ATOM     11  N   UNL     1       2.641   3.108  18.657  0.00  0.00    +0.000 N 
ATOM     12  C   UNL     1       1.559   2.148  18.788  0.00  0.00    +0.000 C 
ATOM     13  C   UNL     1       2.646   4.181  19.606  0.00  0.00    +0.000 C 
ATOM     14  C   UNL     1       1.861   4.524  20.840  0.00  0.00    +0.000 C 
ATOM     15  C   UNL     1       1.986   6.091  20.629  0.00  0.00    +0.000 C 
ATOM     16  N   UNL     1       3.266   6.332  19.833  0.00  0.00    +0.000 NA
ATOM     17  C   UNL     1       3.900   4.993  19.928  0.00  0.00    +0.000 C 
ENDROOT
TORSDOF 0
ENDMDL
MODEL 5
REMARK VINA RESULT:      -5.9      2.002      3.402
REMARK  Name = 
REMARK  2 active torsions:
REMARK  status: ('A' for Active; 'I' for Inactive)
REMARK    1  A    between atoms: C_1  and  C_2
REMARK    2  A    between atoms: N_11  and  C_12
REMARK                            x       y       z     vdW  Elec       q    Type
REMARK                         _______ _______ _______ _____ _____    ______ ____
ROOT
ATOM      1  C   UNL     1       0.659   3.274  18.232  0.00  0.00    +0.000 C 
ATOM      2  C   UNL     1       1.221   4.486  18.994  0.00  0.00    +0.000 C 
ATOM      3  C   UNL     1       2.401   5.141  18.223  0.00  0.00    +0.000 A 
ATOM      4  C   UNL     1       2.291   6.531  18.001  0.00  0.00    +0.000 A 
ATOM      5  C   UNL     1       3.395   7.323  17.697  0.00  0.00    +0.000 A 
ATOM      6  C   UNL     1       4.654   6.749  17.556  0.00  0.00    +0.000 A 
ATOM      7  C   UNL     1       4.792   5.371  17.659  0.00  0.00    +0.000 A 
ATOM      8  C   UNL     1       3.692   4.556  17.991  0.00  0.00    +0.000 A 
ATOM      9  C   UNL     1       4.137   3.155  18.295  0.00  0.00    +0.000 C 
ATOM     10  O   UNL     1       4.351   2.411  17.341  0.00  0.00    +0.000 OA
ATOM     11  N   UNL     1       4.372   2.792  19.668  0.00  0.00    +0.000 N 
ATOM     12  C   UNL     1       4.883   1.446  19.857  0.00  0.00    +0.000 C 
ATOM     13  C   UNL     1       3.264   3.163  20.497  0.00  0.00    +0.000 C 
ATOM     14  C   UNL     1       2.534   2.541  21.653  0.00  0.00    +0.000 C 
ATOM     15  C   UNL     1       1.139   3.197  21.281  0.00  0.00    +0.000 C 
ATOM     16  N   UNL     1       1.442   4.484  20.517  0.00  0.00    +0.000 NA
ATOM     17  C   UNL     1       2.897   4.619  20.781  0.00  0.00    +0.000 C 
ENDROOT
TORSDOF 0
ENDMDL
MODEL 6
REMARK VINA RESULT:      -5.8      1.878      3.189
REMARK  Name = 
REMARK  2 active torsions:
REMARK  status: ('A' for Active; 'I' for Inactive)
REMARK    1  A    between atoms: C_1  and  C_2
REMARK    2  A    between atoms: N_11  and  C_12
REMARK                            x       y       z     vdW  Elec       q    Type
REMARK                         _______ _______ _______ _____ _____    ______ ____
ROOT
ATOM      1  C   UNL     1       1.299   4.476  17.486  0.00  0.00    +0.000 C 
ATOM      2  C   UNL     1       2.262   5.533  18.051  0.00  0.00    +0.000 C 
ATOM      3  C   UNL     1       3.674   5.410  17.413  0.00  0.00    +0.000 A 
ATOM      4  C   UNL     1       4.203   6.598  16.862  0.00  0.00    +0.000 A 
ATOM      5  C   UNL     1       5.564   6.762  16.621  0.00  0.00    +0.000 A 
ATOM      6  C   UNL     1       6.453   5.724  16.880  0.00  0.00    +0.000 A 
ATOM      7  C   UNL     1       5.966   4.500  17.320  0.00  0.00    +0.000 A 
ATOM      8  C   UNL     1       4.596   4.323  17.593  0.00  0.00    +0.000 A 
ATOM      9  C   UNL     1       4.354   3.018  18.293  0.00  0.00    +0.000 C 
ATOM     10  O   UNL     1       4.308   2.005  17.599  0.00  0.00    +0.000 OA
ATOM     11  N   UNL     1       4.282   3.013  19.731  0.00  0.00    +0.000 N 
ATOM     12  C   UNL     1       4.135   1.694  20.323  0.00  0.00    +0.000 C 
ATOM     13  C   UNL     1       3.377   4.017  20.205  0.00  0.00    +0.000 C 
ATOM     14  C   UNL     1       2.348   4.105  21.296  0.00  0.00    +0.000 C 
ATOM     15  C   UNL     1       1.419   5.117  20.503  0.00  0.00    +0.000 C 
ATOM     16  N   UNL     1       2.321   5.892  19.546  0.00  0.00    +0.000 NA
ATOM     17  C   UNL     1       3.659   5.513  20.068  0.00  0.00    +0.000 C 
ENDROOT
TORSDOF 0
ENDMDL
MODEL 7
REMARK VINA RESULT:      -5.6      1.793      2.357
REMARK  Name = 
REMARK  2 active torsions:
REMARK  status: ('A' for Active; 'I' for Inactive)
REMARK    1  A    between atoms: C_1  and  C_2
REMARK    2  A    between atoms: N_11  and  C_12
REMARK                            x       y       z     vdW  Elec       q    Type
REMARK                         _______ _______ _______ _____ _____    ______ ____
ROOT
ATOM      1  C   UNL     1       2.914   2.052  16.922  0.00  0.00    +0.000 C 
ATOM      2  C   UNL     1       2.864   3.582  17.065  0.00  0.00    +0.000 C 
ATOM      3  C   UNL     1       4.234   4.151  17.533  0.00  0.00    +0.000 A 
ATOM      4  C   UNL     1       4.767   5.192  16.741  0.00  0.00    +0.000 A 
ATOM      5  C   UNL     1       5.745   6.059  17.218  0.00  0.00    +0.000 A 
ATOM      6  C   UNL     1       6.266   5.896  18.497  0.00  0.00    +0.000 A 
ATOM      7  C   UNL     1       5.850   4.821  19.273  0.00  0.00    +0.000 A 
ATOM      8  C   UNL     1       4.844   3.946  18.817  0.00  0.00    +0.000 A 
ATOM      9  C   UNL     1       4.388   3.035  19.918  0.00  0.00    +0.000 C 
ATOM     10  O   UNL     1       5.081   2.050  20.158  0.00  0.00    +0.000 OA
ATOM     11  N   UNL     1       3.227   3.409  20.683  0.00  0.00    +0.000 N 
ATOM     12  C   UNL     1       2.915   2.512  21.782  0.00  0.00    +0.000 C 
ATOM     13  C   UNL     1       2.132   3.752  19.825  0.00  0.00    +0.000 C 
ATOM     14  C   UNL     1       0.648   3.519  19.833  0.00  0.00    +0.000 C 
ATOM     15  C   UNL     1       0.524   3.484  18.252  0.00  0.00    +0.000 C 
ATOM     16  N   UNL     1       1.673   4.322  17.697  0.00  0.00    +0.000 NA
ATOM     17  C   UNL     1       2.141   4.996  18.935  0.00  0.00    +0.000 C 
ENDROOT
TORSDOF 0
ENDMDL
MODEL 8
REMARK VINA RESULT:      -5.6      1.881      3.323
REMARK  Name = 
REMARK  2 active torsions:
REMARK  status: ('A' for Active; 'I' for Inactive)
REMARK    1  A    between atoms: C_1  and  C_2
REMARK    2  A    between atoms: N_11  and  C_12
REMARK                            x       y       z     vdW  Elec       q    Type
REMARK                         _______ _______ _______ _____ _____    ______ ____
ROOT
ATOM      1  C   UNL     1       2.137   6.322  20.024  0.00  0.00    +0.000 C 
ATOM      2  C   UNL     1       3.414   5.467  20.056  0.00  0.00    +0.000 C 
ATOM      3  C   UNL     1       3.944   5.189  18.620  0.00  0.00    +0.000 A 
ATOM      4  C   UNL     1       5.301   5.509  18.396  0.00  0.00    +0.000 A 
ATOM      5  C   UNL     1       6.023   4.973  17.334  0.00  0.00    +0.000 A 
ATOM      6  C   UNL     1       5.405   4.126  16.421  0.00  0.00    +0.000 A 
ATOM      7  C   UNL     1       4.045   3.868  16.539  0.00  0.00    +0.000 A 
ATOM      8  C   UNL     1       3.303   4.382  17.620  0.00  0.00    +0.000 A 
ATOM      9  C   UNL     1       1.937   3.763  17.673  0.00  0.00    +0.000 C 
ATOM     10  O   UNL     1       1.081   4.220  16.919  0.00  0.00    +0.000 OA
ATOM     11  N   UNL     1       1.731   2.623  18.528  0.00  0.00    +0.000 N 
ATOM     12  C   UNL     1       0.403   2.040  18.446  0.00  0.00    +0.000 C 
ATOM     13  C   UNL     1       2.224   2.874  19.849  0.00  0.00    +0.000 C 
ATOM     14  C   UNL     1       1.762   2.563  21.244  0.00  0.00    +0.000 C 
ATOM     15  C   UNL     1       2.405   3.867  21.877  0.00  0.00    +0.000 C 
ATOM     16  N   UNL     1       3.585   4.256  20.990  0.00  0.00    +0.000 NA
ATOM     17  C   UNL     1       3.713   3.034  20.157  0.00  0.00    +0.000 C 
ENDROOT
TORSDOF 0
ENDMDL
MODEL 9
REMARK VINA RESULT:      -5.6      1.751      2.123
REMARK  Name = 
REMARK  2 active torsions:
REMARK  status: ('A' for Active; 'I' for Inactive)
REMARK    1  A    between atoms: C_1  and  C_2
REMARK    2  A    between atoms: N_11  and  C_12
REMARK                            x       y       z     vdW  Elec       q    Type
REMARK                         _______ _______ _______ _____ _____    ______ ____
ROOT
ATOM      1  C   UNL     1       5.917   4.713  19.576  0.00  0.00    +0.000 C 
ATOM      2  C   UNL     1       5.257   3.910  18.443  0.00  0.00    +0.000 C 
ATOM      3  C   UNL     1       5.604   4.507  17.050  0.00  0.00    +0.000 A 
ATOM      4  C   UNL     1       6.128   3.596  16.106  0.00  0.00    +0.000 A 
ATOM      5  C   UNL     1       6.117   3.856  14.740  0.00  0.00    +0.000 A 
ATOM      6  C   UNL     1       5.620   5.062  14.258  0.00  0.00    +0.000 A 
ATOM      7  C   UNL     1       5.193   6.033  15.155  0.00  0.00    +0.000 A 
ATOM      8  C   UNL     1       5.174   5.779  16.540  0.00  0.00    +0.000 A 
ATOM      9  C   UNL     1       4.440   6.864  17.273  0.00  0.00    +0.000 C 
ATOM     10  O   UNL     1       5.055   7.900  17.510  0.00  0.00    +0.000 OA
ATOM     11  N   UNL     1       3.045   6.667  17.573  0.00  0.00    +0.000 N 
ATOM     12  C   UNL     1       2.398   7.805  18.203  0.00  0.00    +0.000 C 
ATOM     13  C   UNL     1       2.826   5.397  18.197  0.00  0.00    +0.000 C 
ATOM     14  C   UNL     1       1.960   4.885  19.313  0.00  0.00    +0.000 C 
ATOM     15  C   UNL     1       2.986   3.759  19.754  0.00  0.00    +0.000 C 
ATOM     16  N   UNL     1       3.808   3.398  18.519  0.00  0.00    +0.000 NA
ATOM     17  C   UNL     1       3.015   4.071  17.459  0.00  0.00    +0.000 C 
ENDROOT
TORSDOF 0
ENDMDL
