MODEL 1
REMARK VINA RESULT:      -8.4      0.000      0.000
REMARK  Name = 
REMARK  9 active torsions:
REMARK  status: ('A' for Active; 'I' for Inactive)
REMARK    1  A    between atoms: C_1  and  C_2
REMARK    2  A    between atoms: C_2  and  N_3
REMARK    3  A    between atoms: C_2  and  C_16
REMARK    4  A    between atoms: C_4  and  C_6
REMARK    5  A    between atoms: C_6  and  C_7
REMARK    6  A    between atoms: C_6  and  N_8
REMARK    7  A    between atoms: C_9  and  C_11
REMARK    8  A    between atoms: C_19  and  S_20
REMARK    9  A    between atoms: S_20  and  N_21
REMARK                            x       y       z     vdW  Elec       q    Type
REMARK                         _______ _______ _______ _____ _____    ______ ____
ROOT
ATOM      1  N   UNL     1       4.848   5.913  18.241  0.00  0.00    +0.000 N 
ATOM      2  C   UNL     1       5.869   5.013  18.488  0.00  0.00    +0.000 C 
ATOM      3  O   UNL     1       5.770   4.120  19.327  0.00  0.00    +0.000 OA
ATOM      4  H   UNL     1       4.984   6.603  17.515  0.00  0.00    +0.000 HD
ENDROOT
BRANCH   1   6
ATOM      5  C   UNL     1       2.749   4.659  17.919  0.00  0.00    +0.000 C 
ATOM      6  C   UNL     1       3.506   5.694  18.759  0.00  0.00    +0.000 C 
BRANCH   6   7
ATOM      7  C   UNL     1       2.746   7.006  18.846  0.00  0.00    +0.000 A 
ATOM      8  C   UNL     1       2.031   7.318  20.016  0.00  0.00    +0.000 A 
ATOM      9  C   UNL     1       1.322   8.514  20.122  0.00  0.00    +0.000 A 
ATOM     10  C   UNL     1       1.340   9.413  19.056  0.00  0.00    +0.000 A 
ATOM     11  C   UNL     1       2.025   9.120  17.877  0.00  0.00    +0.000 A 
ATOM     12  C   UNL     1       2.733   7.922  17.778  0.00  0.00    +0.000 A 
BRANCH  10  13
ATOM     13  S   UNL     1       0.555  10.987  19.222  0.00  0.00    +0.000 S 
ATOM     14  O   UNL     1      -0.226  11.012  20.431  0.00  0.00    +0.000 OA
ATOM     15  O   UNL     1       1.493  12.033  18.872  0.00  0.00    +0.000 OA
BRANCH  13  16
ATOM     16  N   UNL     1      -0.537  10.887  17.952  0.00  0.00    +0.000 NA
ATOM     17  H   UNL     1      -1.011   9.986  17.950  0.00  0.00    +0.000 HD
ATOM     18  H   UNL     1      -1.145  11.706  17.925  0.00  0.00    +0.000 HD
ENDBRANCH  13  16
ENDBRANCH  10  13
ENDBRANCH   6   7
ENDBRANCH   1   6
BRANCH   2  19
ATOM     19  C   UNL     1       7.209   5.323  17.786  0.00  0.00    +0.000 C 
ATOM     20  C   UNL     1       7.459   6.825  17.787  0.00  0.00    +0.000 C 
BRANCH  19  21
ATOM     21  N   UNL     1       7.223   4.814  16.421  0.00  0.00    +0.000 N 
ATOM     22  C   UNL     1       6.460   5.390  15.426  0.00  0.00    +0.000 C 
ATOM     23  O   UNL     1       5.709   6.337  15.634  0.00  0.00    +0.000 OA
ATOM     24  H   UNL     1       7.829   4.047  16.157  0.00  0.00    +0.000 HD
BRANCH  22  25
ATOM     25  C   UNL     1       6.642   4.785  14.124  0.00  0.00    +0.000 A 
ATOM     26  C   UNL     1       6.015   3.707  13.528  0.00  0.00    +0.000 A 
ATOM     27  C   UNL     1       6.575   3.573  12.236  0.00  0.00    +0.000 A 
ATOM     28  C   UNL     1       7.520   4.565  12.123  0.00  0.00    +0.000 A 
ATOM     29  O   UNL     1       7.569   5.310  13.258  0.00  0.00    +0.000 OA
ENDBRANCH  22  25
ENDBRANCH  19  21
ENDBRANCH   2  19
TORSDOF 7
ENDMDL
MODEL 2
REMARK VINA RESULT:      -8.3      0.822      1.450
REMARK  Name = 
REMARK  9 active torsions:
REMARK  status: ('A' for Active; 'I' for Inactive)
REMARK    1  A    between atoms: C_1  and  C_2
REMARK    2  A    between atoms: C_2  and  N_3
REMARK    3  A    between atoms: C_2  and  C_16
REMARK    4  A    between atoms: C_4  and  C_6
REMARK    5  A    between atoms: C_6  and  C_7
REMARK    6  A    between atoms: C_6  and  N_8
REMARK    7  A    between atoms: C_9  and  C_11
REMARK    8  A    between atoms: C_19  and  S_20
REMARK    9  A    between atoms: S_20  and  N_21
REMARK                            x       y       z     vdW  Elec       q    Type
REMARK                         _______ _______ _______ _____ _____    ______ ____
ROOT
ATOM      1  N   UNL     1       4.748   5.689  18.349  0.00  0.00    +0.000 N 
ATOM      2  C   UNL     1       5.740   4.744  18.545  0.00  0.00    +0.000 C 
ATOM      3  O   UNL     1       5.593   3.784  19.297  0.00  0.00    +0.000 OA
ATOM      4  H   UNL     1       4.923   6.437  17.693  0.00  0.00    +0.000 HD
ENDROOT
BRANCH   1   6
ATOM      5  C   UNL     1       2.610   4.580  17.817  0.00  0.00    +0.000 C 
ATOM      6  C   UNL     1       3.385   5.459  18.804  0.00  0.00    +0.000 C 
BRANCH   6   7
ATOM      7  C   UNL     1       2.675   6.778  19.053  0.00  0.00    +0.000 A 
ATOM      8  C   UNL     1       2.600   7.732  18.022  0.00  0.00    +0.000 A 
ATOM      9  C   UNL     1       1.957   8.953  18.224  0.00  0.00    +0.000 A 
ATOM     10  C   UNL     1       1.371   9.217  19.462  0.00  0.00    +0.000 A 
ATOM     11  C   UNL     1       1.447   8.297  20.507  0.00  0.00    +0.000 A 
ATOM     12  C   UNL     1       2.091   7.077  20.298  0.00  0.00    +0.000 A 
BRANCH  10  13
ATOM     13  S   UNL     1       0.442  10.702  19.694  0.00  0.00    +0.000 S 
ATOM     14  O   UNL     1       0.980  11.744  18.859  0.00  0.00    +0.000 OA
ATOM     15  O   UNL     1      -0.970  10.386  19.742  0.00  0.00    +0.000 OA
BRANCH  13  16
ATOM     16  N   UNL     1       0.898  11.070  21.266  0.00  0.00    +0.000 NA
ATOM     17  H   UNL     1       0.433  11.916  21.591  0.00  0.00    +0.000 HD
ATOM     18  H   UNL     1       0.810  10.257  21.874  0.00  0.00    +0.000 HD
ENDBRANCH  13  16
ENDBRANCH  10  13
ENDBRANCH   6   7
ENDBRANCH   1   6
BRANCH   2  19
ATOM     19  C   UNL     1       7.108   5.082  17.915  0.00  0.00    +0.000 C 
ATOM     20  C   UNL     1       7.375   6.576  18.024  0.00  0.00    +0.000 C 
BRANCH  19  21
ATOM     21  N   UNL     1       7.167   4.662  16.520  0.00  0.00    +0.000 N 
ATOM     22  C   UNL     1       6.458   5.320  15.536  0.00  0.00    +0.000 C 
ATOM     23  O   UNL     1       5.719   6.269  15.776  0.00  0.00    +0.000 OA
ATOM     24  H   UNL     1       7.768   3.900  16.230  0.00  0.00    +0.000 HD
BRANCH  22  25
ATOM     25  C   UNL     1       6.680   4.797  14.206  0.00  0.00    +0.000 A 
ATOM     26  C   UNL     1       6.104   3.732  13.540  0.00  0.00    +0.000 A 
ATOM     27  C   UNL     1       6.686   3.693  12.251  0.00  0.00    +0.000 A 
ATOM     28  C   UNL     1       7.592   4.725  12.209  0.00  0.00    +0.000 A 
ATOM     29  O   UNL     1       7.597   5.406  13.385  0.00  0.00    +0.000 OA
ENDBRANCH  22  25
ENDBRANCH  19  21
ENDBRANCH   2  19
TORSDOF 7
ENDMDL
MODEL 3
REMARK VINA RESULT:      -8.1      1.025      1.332
REMARK  Name = 
REMARK  9 active torsions:
REMARK  status: ('A' for Active; 'I' for Inactive)
REMARK    1  A    between atoms: C_1  and  C_2
REMARK    2  A    between atoms: C_2  and  N_3
REMARK    3  A    between atoms: C_2  and  C_16
REMARK    4  A    between atoms: C_4  and  C_6
REMARK    5  A    between atoms: C_6  and  C_7
REMARK    6  A    between atoms: C_6  and  N_8
REMARK    7  A    between atoms: C_9  and  C_11
REMARK    8  A    between atoms: C_19  and  S_20
REMARK    9  A    between atoms: S_20  and  N_21
REMARK                            x       y       z     vdW  Elec       q    Type
REMARK                         _______ _______ _______ _____ _____    ______ ____
ROOT
ATOM      1  N   UNL     1       4.665   5.650  18.362  0.00  0.00    +0.000 N 
ATOM      2  C   UNL     1       5.627   4.663  18.481  0.00  0.00    +0.000 C 
ATOM      3  O   UNL     1       5.465   3.668  19.183  0.00  0.00    +0.000 OA
ATOM      4  H   UNL     1       4.850   6.427  17.743  0.00  0.00    +0.000 HD
ENDROOT
BRANCH   1   6
ATOM      5  C   UNL     1       2.515   4.541  17.884  0.00  0.00    +0.000 C 
ATOM      6  C   UNL     1       3.306   5.441  18.838  0.00  0.00    +0.000 C 
BRANCH   6   7
ATOM      7  C   UNL     1       2.606   6.771  19.059  0.00  0.00    +0.000 A 
ATOM      8  C   UNL     1       2.023   7.050  20.308  0.00  0.00    +0.000 A 
ATOM      9  C   UNL     1       1.372   8.262  20.538  0.00  0.00    +0.000 A 
ATOM     10  C   UNL     1       1.316   9.209  19.515  0.00  0.00    +0.000 A 
ATOM     11  C   UNL     1       1.870   8.951  18.262  0.00  0.00    +0.000 A 
ATOM     12  C   UNL     1       2.520   7.737  18.040  0.00  0.00    +0.000 A 
BRANCH  10  13
ATOM     13  S   UNL     1       0.610  10.798  19.829  0.00  0.00    +0.000 S 
ATOM     14  O   UNL     1       1.365  11.807  19.133  0.00  0.00    +0.000 OA
ATOM     15  O   UNL     1      -0.833  10.708  19.756  0.00  0.00    +0.000 OA
BRANCH  13  16
ATOM     16  N   UNL     1       0.993  10.955  21.455  0.00  0.00    +0.000 NA
ATOM     17  H   UNL     1       1.368  10.084  21.826  0.00  0.00    +0.000 HD
ATOM     18  H   UNL     1       1.561  11.785  21.620  0.00  0.00    +0.000 HD
ENDBRANCH  13  16
ENDBRANCH  10  13
ENDBRANCH   6   7
ENDBRANCH   1   6
BRANCH   2  19
ATOM     19  C   UNL     1       6.992   4.989  17.835  0.00  0.00    +0.000 C 
ATOM     20  C   UNL     1       7.266   6.484  17.929  0.00  0.00    +0.000 C 
BRANCH  19  21
ATOM     21  N   UNL     1       7.036   4.558  16.444  0.00  0.00    +0.000 N 
ATOM     22  C   UNL     1       6.391   5.263  15.447  0.00  0.00    +0.000 C 
ATOM     23  O   UNL     1       5.723   6.266  15.673  0.00  0.00    +0.000 OA
ATOM     24  H   UNL     1       7.581   3.752  16.165  0.00  0.00    +0.000 HD
BRANCH  22  25
ATOM     25  C   UNL     1       6.590   4.716  14.122  0.00  0.00    +0.000 A 
ATOM     26  C   UNL     1       7.550   4.982  13.164  0.00  0.00    +0.000 A 
ATOM     27  C   UNL     1       7.274   4.137  12.064  0.00  0.00    +0.000 A 
ATOM     28  C   UNL     1       6.155   3.415  12.407  0.00  0.00    +0.000 A 
ATOM     29  O   UNL     1       5.731   3.752  13.653  0.00  0.00    +0.000 OA
ENDBRANCH  22  25
ENDBRANCH  19  21
ENDBRANCH   2  19
TORSDOF 7
ENDMDL
MODEL 4
REMARK VINA RESULT:      -8.1      0.801      1.279
REMARK  Name = 
REMARK  9 active torsions:
REMARK  status: ('A' for Active; 'I' for Inactive)
REMARK    1  A    between atoms: C_1  and  C_2
REMARK    2  A    between atoms: C_2  and  N_3
REMARK    3  A    between atoms: C_2  and  C_16
REMARK    4  A    between atoms: C_4  and  C_6
REMARK    5  A    between atoms: C_6  and  C_7
REMARK    6  A    between atoms: C_6  and  N_8
REMARK    7  A    between atoms: C_9  and  C_11
REMARK    8  A    between atoms: C_19  and  S_20
REMARK    9  A    between atoms: S_20  and  N_21
REMARK                            x       y       z     vdW  Elec       q    Type
REMARK                         _______ _______ _______ _____ _____    ______ ____
ROOT
ATOM      1  N   UNL     1       4.960   5.369  17.981  0.00  0.00    +0.000 N 
ATOM      2  C   UNL     1       6.128   5.153  18.689  0.00  0.00    +0.000 C 
ATOM      3  O   UNL     1       6.137   4.969  19.904  0.00  0.00    +0.000 OA
ATOM      4  H   UNL     1       5.021   5.482  16.979  0.00  0.00    +0.000 HD
ENDROOT
BRANCH   1   6
ATOM      5  C   UNL     1       2.821   4.168  17.722  0.00  0.00    +0.000 C 
ATOM      6  C   UNL     1       3.657   5.123  18.581  0.00  0.00    +0.000 C 
BRANCH   6   7
ATOM      7  C   UNL     1       2.928   6.431  18.831  0.00  0.00    +0.000 A 
ATOM      8  C   UNL     1       2.902   7.415  17.826  0.00  0.00    +0.000 A 
ATOM      9  C   UNL     1       2.242   8.627  18.030  0.00  0.00    +0.000 A 
ATOM     10  C   UNL     1       1.591   8.852  19.242  0.00  0.00    +0.000 A 
ATOM     11  C   UNL     1       1.616   7.901  20.262  0.00  0.00    +0.000 A 
ATOM     12  C   UNL     1       2.277   6.691  20.052  0.00  0.00    +0.000 A 
BRANCH  10  13
ATOM     13  S   UNL     1       0.643  10.326  19.469  0.00  0.00    +0.000 S 
ATOM     14  O   UNL     1      -0.721  10.088  19.072  0.00  0.00    +0.000 OA
ATOM     15  O   UNL     1       0.996  10.938  20.732  0.00  0.00    +0.000 OA
BRANCH  13  16
ATOM     16  N   UNL     1       1.327  11.282  18.272  0.00  0.00    +0.000 NA
ATOM     17  H   UNL     1       1.935  10.731  17.669  0.00  0.00    +0.000 HD
ATOM     18  H   UNL     1       0.617  11.836  17.794  0.00  0.00    +0.000 HD
ENDBRANCH  13  16
ENDBRANCH  10  13
ENDBRANCH   6   7
ENDBRANCH   1   6
BRANCH   2  19
ATOM     19  C   UNL     1       7.433   5.355  17.888  0.00  0.00    +0.000 C 
ATOM     20  C   UNL     1       7.781   6.836  17.829  0.00  0.00    +0.000 C 
BRANCH  19  21
ATOM     21  N   UNL     1       7.317   4.814  16.540  0.00  0.00    +0.000 N 
ATOM     22  C   UNL     1       6.606   5.469  15.555  0.00  0.00    +0.000 C 
ATOM     23  O   UNL     1       6.010   6.521  15.760  0.00  0.00    +0.000 OA
ATOM     24  H   UNL     1       7.794   3.959  16.278  0.00  0.00    +0.000 HD
BRANCH  22  25
ATOM     25  C   UNL     1       6.645   4.810  14.268  0.00  0.00    +0.000 A 
ATOM     26  C   UNL     1       5.882   3.780  13.752  0.00  0.00    +0.000 A 
ATOM     27  C   UNL     1       6.341   3.553  12.433  0.00  0.00    +0.000 A 
ATOM     28  C   UNL     1       7.365   4.446  12.225  0.00  0.00    +0.000 A 
ATOM     29  O   UNL     1       7.558   5.218  13.328  0.00  0.00    +0.000 OA
ENDBRANCH  22  25
ENDBRANCH  19  21
ENDBRANCH   2  19
TORSDOF 7
ENDMDL
MODEL 5
REMARK VINA RESULT:      -8.1      1.645      2.071
REMARK  Name = 
REMARK  9 active torsions:
REMARK  status: ('A' for Active; 'I' for Inactive)
REMARK    1  A    between atoms: C_1  and  C_2
REMARK    2  A    between atoms: C_2  and  N_3
REMARK    3  A    between atoms: C_2  and  C_16
REMARK    4  A    between atoms: C_4  and  C_6
REMARK    5  A    between atoms: C_6  and  C_7
REMARK    6  A    between atoms: C_6  and  N_8
REMARK    7  A    between atoms: C_9  and  C_11
REMARK    8  A    between atoms: C_19  and  S_20
REMARK    9  A    between atoms: S_20  and  N_21
REMARK                            x       y       z     vdW  Elec       q    Type
REMARK                         _______ _______ _______ _____ _____    ______ ____
ROOT
ATOM      1  N   UNL     1       5.010   4.659  17.807  0.00  0.00    +0.000 N 
ATOM      2  C   UNL     1       6.164   4.806  18.555  0.00  0.00    +0.000 C 
ATOM      3  O   UNL     1       6.158   4.791  19.784  0.00  0.00    +0.000 OA
ATOM      4  H   UNL     1       5.090   4.650  16.800  0.00  0.00    +0.000 HD
ENDROOT
BRANCH   1   6
ATOM      5  C   UNL     1       2.894   3.458  17.406  0.00  0.00    +0.000 C 
ATOM      6  C   UNL     1       3.767   4.210  18.416  0.00  0.00    +0.000 C 
BRANCH   6   7
ATOM      7  C   UNL     1       3.022   5.378  19.036  0.00  0.00    +0.000 A 
ATOM      8  C   UNL     1       2.331   5.197  20.248  0.00  0.00    +0.000 A 
ATOM      9  C   UNL     1       1.636   6.253  20.839  0.00  0.00    +0.000 A 
ATOM     10  C   UNL     1       1.644   7.503  20.221  0.00  0.00    +0.000 A 
ATOM     11  C   UNL     1       2.306   7.705  19.010  0.00  0.00    +0.000 A 
ATOM     12  C   UNL     1       3.000   6.646  18.426  0.00  0.00    +0.000 A 
BRANCH  10  13
ATOM     13  S   UNL     1       0.879   8.881  21.020  0.00  0.00    +0.000 S 
ATOM     14  O   UNL     1       1.018  10.054  20.197  0.00  0.00    +0.000 OA
ATOM     15  O   UNL     1      -0.386   8.469  21.589  0.00  0.00    +0.000 OA
BRANCH  13  16
ATOM     16  N   UNL     1       1.937   9.076  22.308  0.00  0.00    +0.000 NA
ATOM     17  H   UNL     1       2.513   9.906  22.183  0.00  0.00    +0.000 HD
ATOM     18  H   UNL     1       1.446   9.009  23.199  0.00  0.00    +0.000 HD
ENDBRANCH  13  16
ENDBRANCH  10  13
ENDBRANCH   6   7
ENDBRANCH   1   6
BRANCH   2  19
ATOM     19  C   UNL     1       7.428   5.187  17.753  0.00  0.00    +0.000 C 
ATOM     20  C   UNL     1       7.612   6.698  17.762  0.00  0.00    +0.000 C 
BRANCH  19  21
ATOM     21  N   UNL     1       7.352   4.700  16.382  0.00  0.00    +0.000 N 
ATOM     22  C   UNL     1       6.615   5.360  15.419  0.00  0.00    +0.000 C 
ATOM     23  O   UNL     1       5.962   6.368  15.663  0.00  0.00    +0.000 OA
ATOM     24  H   UNL     1       7.877   3.885  16.088  0.00  0.00    +0.000 HD
BRANCH  22  25
ATOM     25  C   UNL     1       6.701   4.760  14.105  0.00  0.00    +0.000 A 
ATOM     26  C   UNL     1       7.540   5.023  13.039  0.00  0.00    +0.000 A 
ATOM     27  C   UNL     1       7.192   4.115  12.011  0.00  0.00    +0.000 A 
ATOM     28  C   UNL     1       6.153   3.361  12.503  0.00  0.00    +0.000 A 
ATOM     29  O   UNL     1       5.847   3.738  13.772  0.00  0.00    +0.000 OA
ENDBRANCH  22  25
ENDBRANCH  19  21
ENDBRANCH   2  19
TORSDOF 7
ENDMDL
MODEL 6
REMARK VINA RESULT:      -8.1      1.148      1.304
REMARK  Name = 
REMARK  9 active torsions:
REMARK  status: ('A' for Active; 'I' for Inactive)
REMARK    1  A    between atoms: C_1  and  C_2
REMARK    2  A    between atoms: C_2  and  N_3
REMARK    3  A    between atoms: C_2  and  C_16
REMARK    4  A    between atoms: C_4  and  C_6
REMARK    5  A    between atoms: C_6  and  C_7
REMARK    6  A    between atoms: C_6  and  N_8
REMARK    7  A    between atoms: C_9  and  C_11
REMARK    8  A    between atoms: C_19  and  S_20
REMARK    9  A    between atoms: S_20  and  N_21
REMARK                            x       y       z     vdW  Elec       q    Type
REMARK                         _______ _______ _______ _____ _____    ______ ____
ROOT
ATOM      1  N   UNL     1       5.036   6.338  17.837  0.00  0.00    +0.000 N 
ATOM      2  C   UNL     1       6.253   5.971  18.381  0.00  0.00    +0.000 C 
ATOM      3  O   UNL     1       6.351   5.474  19.500  0.00  0.00    +0.000 OA
ATOM      4  H   UNL     1       5.023   6.712  16.899  0.00  0.00    +0.000 HD
ENDROOT
BRANCH   1   6
ATOM      5  C   UNL     1       3.087   4.848  17.585  0.00  0.00    +0.000 C 
ATOM      6  C   UNL     1       3.781   5.914  18.440  0.00  0.00    +0.000 C 
BRANCH   6   7
ATOM      7  C   UNL     1       2.875   7.108  18.686  0.00  0.00    +0.000 A 
ATOM      8  C   UNL     1       2.237   7.251  19.931  0.00  0.00    +0.000 A 
ATOM      9  C   UNL     1       1.398   8.336  20.183  0.00  0.00    +0.000 A 
ATOM     10  C   UNL     1       1.206   9.294  19.188  0.00  0.00    +0.000 A 
ATOM     11  C   UNL     1       1.812   9.167  17.938  0.00  0.00    +0.000 A 
ATOM     12  C   UNL     1       2.651   8.080  17.693  0.00  0.00    +0.000 A 
BRANCH  10  13
ATOM     13  S   UNL     1       0.251  10.740  19.534  0.00  0.00    +0.000 S 
ATOM     14  O   UNL     1      -1.133  10.487  19.232  0.00  0.00    +0.000 OA
ATOM     15  O   UNL     1       0.688  11.319  20.786  0.00  0.00    +0.000 OA
BRANCH  13  16
ATOM     16  N   UNL     1       0.826  11.747  18.321  0.00  0.00    +0.000 NA
ATOM     17  H   UNL     1       1.833  11.875  18.400  0.00  0.00    +0.000 HD
ATOM     18  H   UNL     1       0.489  11.449  17.406  0.00  0.00    +0.000 HD
ENDBRANCH  13  16
ENDBRANCH  10  13
ENDBRANCH   6   7
ENDBRANCH   1   6
BRANCH   2  19
ATOM     19  C   UNL     1       7.496   6.405  17.573  0.00  0.00    +0.000 C 
ATOM     20  C   UNL     1       7.666   7.916  17.656  0.00  0.00    +0.000 C 
BRANCH  19  21
ATOM     21  N   UNL     1       7.395   5.988  16.180  0.00  0.00    +0.000 N 
ATOM     22  C   UNL     1       6.985   4.716  15.833  0.00  0.00    +0.000 C 
ATOM     23  O   UNL     1       6.713   3.860  16.667  0.00  0.00    +0.000 OA
ATOM     24  H   UNL     1       7.582   6.638  15.426  0.00  0.00    +0.000 HD
BRANCH  22  25
ATOM     25  C   UNL     1       6.895   4.500  14.406  0.00  0.00    +0.000 A 
ATOM     26  C   UNL     1       7.567   5.091  13.353  0.00  0.00    +0.000 A 
ATOM     27  C   UNL     1       7.096   4.475  12.170  0.00  0.00    +0.000 A 
ATOM     28  C   UNL     1       6.155   3.555  12.566  0.00  0.00    +0.000 A 
ATOM     29  O   UNL     1       6.025   3.556  13.919  0.00  0.00    +0.000 OA
ENDBRANCH  22  25
ENDBRANCH  19  21
ENDBRANCH   2  19
TORSDOF 7
ENDMDL
MODEL 7
REMARK VINA RESULT:      -8.0      1.446      1.698
REMARK  Name = 
REMARK  9 active torsions:
REMARK  status: ('A' for Active; 'I' for Inactive)
REMARK    1  A    between atoms: C_1  and  C_2
REMARK    2  A    between atoms: C_2  and  N_3
REMARK    3  A    between atoms: C_2  and  C_16
REMARK    4  A    between atoms: C_4  and  C_6
REMARK    5  A    between atoms: C_6  and  C_7
REMARK    6  A    between atoms: C_6  and  N_8
REMARK    7  A    between atoms: C_9  and  C_11
REMARK    8  A    between atoms: C_19  and  S_20
REMARK    9  A    between atoms: S_20  and  N_21
REMARK                            x       y       z     vdW  Elec       q    Type
REMARK                         _______ _______ _______ _____ _____    ______ ____
ROOT
ATOM      1  N   UNL     1       4.895   4.551  17.815  0.00  0.00    +0.000 N 
ATOM      2  C   UNL     1       5.997   4.728  18.631  0.00  0.00    +0.000 C 
ATOM      3  O   UNL     1       5.904   4.819  19.853  0.00  0.00    +0.000 OA
ATOM      4  H   UNL     1       5.046   4.452  16.821  0.00  0.00    +0.000 HD
ENDROOT
BRANCH   1   6
ATOM      5  C   UNL     1       2.701   3.546  17.304  0.00  0.00    +0.000 C 
ATOM      6  C   UNL     1       3.597   4.191  18.366  0.00  0.00    +0.000 C 
BRANCH   6   7
ATOM      7  C   UNL     1       2.931   5.400  18.998  0.00  0.00    +0.000 A 
ATOM      8  C   UNL     1       2.317   5.277  20.257  0.00  0.00    +0.000 A 
ATOM      9  C   UNL     1       1.695   6.371  20.859  0.00  0.00    +0.000 A 
ATOM     10  C   UNL     1       1.699   7.601  20.204  0.00  0.00    +0.000 A 
ATOM     11  C   UNL     1       2.284   7.747  18.946  0.00  0.00    +0.000 A 
ATOM     12  C   UNL     1       2.905   6.650  18.350  0.00  0.00    +0.000 A 
BRANCH  10  13
ATOM     13  S   UNL     1       1.030   9.026  21.007  0.00  0.00    +0.000 S 
ATOM     14  O   UNL     1       1.799   9.319  22.189  0.00  0.00    +0.000 OA
ATOM     15  O   UNL     1       0.701  10.029  20.018  0.00  0.00    +0.000 OA
BRANCH  13  16
ATOM     16  N   UNL     1      -0.428   8.386  21.536  0.00  0.00    +0.000 NA
ATOM     17  H   UNL     1      -1.074   8.260  20.758  0.00  0.00    +0.000 HD
ATOM     18  H   UNL     1      -0.278   7.566  22.122  0.00  0.00    +0.000 HD
ENDBRANCH  13  16
ENDBRANCH  10  13
ENDBRANCH   6   7
ENDBRANCH   1   6
BRANCH   2  19
ATOM     19  C   UNL     1       7.327   5.002  17.895  0.00  0.00    +0.000 C 
ATOM     20  C   UNL     1       7.665   6.485  17.970  0.00  0.00    +0.000 C 
BRANCH  19  21
ATOM     21  N   UNL     1       7.262   4.573  16.504  0.00  0.00    +0.000 N 
ATOM     22  C   UNL     1       6.679   5.359  15.531  0.00  0.00    +0.000 C 
ATOM     23  O   UNL     1       6.160   6.441  15.779  0.00  0.00    +0.000 OA
ATOM     24  H   UNL     1       7.683   3.701  16.208  0.00  0.00    +0.000 HD
BRANCH  22  25
ATOM     25  C   UNL     1       6.754   4.793  14.201  0.00  0.00    +0.000 A 
ATOM     26  C   UNL     1       6.075   3.738  13.622  0.00  0.00    +0.000 A 
ATOM     27  C   UNL     1       6.530   3.642  12.287  0.00  0.00    +0.000 A 
ATOM     28  C   UNL     1       7.470   4.633  12.131  0.00  0.00    +0.000 A 
ATOM     29  O   UNL     1       7.614   5.342  13.281  0.00  0.00    +0.000 OA
ENDBRANCH  22  25
ENDBRANCH  19  21
ENDBRANCH   2  19
TORSDOF 7
ENDMDL
MODEL 8
REMARK VINA RESULT:      -8.0      1.548      1.981
REMARK  Name = 
REMARK  9 active torsions:
REMARK  status: ('A' for Active; 'I' for Inactive)
REMARK    1  A    between atoms: C_1  and  C_2
REMARK    2  A    between atoms: C_2  and  N_3
REMARK    3  A    between atoms: C_2  and  C_16
REMARK    4  A    between atoms: C_4  and  C_6
REMARK    5  A    between atoms: C_6  and  C_7
REMARK    6  A    between atoms: C_6  and  N_8
REMARK    7  A    between atoms: C_9  and  C_11
REMARK    8  A    between atoms: C_19  and  S_20
REMARK    9  A    between atoms: S_20  and  N_21
REMARK                            x       y       z     vdW  Elec       q    Type
REMARK                         _______ _______ _______ _____ _____    ______ ____
ROOT
ATOM      1  N   UNL     1       4.856   4.580  17.833  0.00  0.00    +0.000 N 
ATOM      2  C   UNL     1       5.959   4.742  18.652  0.00  0.00    +0.000 C 
ATOM      3  O   UNL     1       5.870   4.771  19.877  0.00  0.00    +0.000 OA
ATOM      4  H   UNL     1       5.003   4.533  16.835  0.00  0.00    +0.000 HD
ENDROOT
BRANCH   1   6
ATOM      5  C   UNL     1       2.659   3.610  17.272  0.00  0.00    +0.000 C 
ATOM      6  C   UNL     1       3.569   4.166  18.372  0.00  0.00    +0.000 C 
BRANCH   6   7
ATOM      7  C   UNL     1       2.908   5.313  19.117  0.00  0.00    +0.000 A 
ATOM      8  C   UNL     1       2.923   6.604  18.559  0.00  0.00    +0.000 A 
ATOM      9  C   UNL     1       2.325   7.675  19.222  0.00  0.00    +0.000 A 
ATOM     10  C   UNL     1       1.696   7.452  20.447  0.00  0.00    +0.000 A 
ATOM     11  C   UNL     1       1.682   6.186  21.031  0.00  0.00    +0.000 A 
ATOM     12  C   UNL     1       2.281   5.119  20.362  0.00  0.00    +0.000 A 
BRANCH  10  13
ATOM     13  S   UNL     1       0.824   8.770  21.238  0.00  0.00    +0.000 S 
ATOM     14  O   UNL     1      -0.536   8.368  21.485  0.00  0.00    +0.000 OA
ATOM     15  O   UNL     1       1.664   9.362  22.257  0.00  0.00    +0.000 OA
BRANCH  13  16
ATOM     16  N   UNL     1       0.771   9.867  19.970  0.00  0.00    +0.000 NA
ATOM     17  H   UNL     1       0.262  10.708  20.237  0.00  0.00    +0.000 HD
ATOM     18  H   UNL     1       1.700  10.020  19.578  0.00  0.00    +0.000 HD
ENDBRANCH  13  16
ENDBRANCH  10  13
ENDBRANCH   6   7
ENDBRANCH   1   6
BRANCH   2  19
ATOM     19  C   UNL     1       7.278   5.080  17.924  0.00  0.00    +0.000 C 
ATOM     20  C   UNL     1       7.537   6.578  17.990  0.00  0.00    +0.000 C 
BRANCH  19  21
ATOM     21  N   UNL     1       7.247   4.637  16.536  0.00  0.00    +0.000 N 
ATOM     22  C   UNL     1       6.568   5.346  15.566  0.00  0.00    +0.000 C 
ATOM     23  O   UNL     1       5.932   6.364  15.815  0.00  0.00    +0.000 OA
ATOM     24  H   UNL     1       7.761   3.817  16.239  0.00  0.00    +0.000 HD
BRANCH  22  25
ATOM     25  C   UNL     1       6.692   4.785  14.238  0.00  0.00    +0.000 A 
ATOM     26  C   UNL     1       6.056   3.713  13.641  0.00  0.00    +0.000 A 
ATOM     27  C   UNL     1       6.548   3.631  12.318  0.00  0.00    +0.000 A 
ATOM     28  C   UNL     1       7.464   4.646  12.186  0.00  0.00    +0.000 A 
ATOM     29  O   UNL     1       7.560   5.357  13.341  0.00  0.00    +0.000 OA
ENDBRANCH  22  25
ENDBRANCH  19  21
ENDBRANCH   2  19
TORSDOF 7
ENDMDL
MODEL 9
REMARK VINA RESULT:      -7.8      1.411      1.862
REMARK  Name = 
REMARK  9 active torsions:
REMARK  status: ('A' for Active; 'I' for Inactive)
REMARK    1  A    between atoms: C_1  and  C_2
REMARK    2  A    between atoms: C_2  and  N_3
REMARK    3  A    between atoms: C_2  and  C_16
REMARK    4  A    between atoms: C_4  and  C_6
REMARK    5  A    between atoms: C_6  and  C_7
REMARK    6  A    between atoms: C_6  and  N_8
REMARK    7  A    between atoms: C_9  and  C_11
REMARK    8  A    between atoms: C_19  and  S_20
REMARK    9  A    between atoms: S_20  and  N_21
REMARK                            x       y       z     vdW  Elec       q    Type
REMARK                         _______ _______ _______ _____ _____    ______ ____
ROOT
ATOM      1  N   UNL     1       4.228   6.507  18.166  0.00  0.00    +0.000 N 
ATOM      2  C   UNL     1       5.428   5.836  18.320  0.00  0.00    +0.000 C 
ATOM      3  O   UNL     1       5.605   5.001  19.204  0.00  0.00    +0.000 OA
ATOM      4  H   UNL     1       4.139   7.159  17.399  0.00  0.00    +0.000 HD
ENDROOT
BRANCH   1   6
ATOM      5  C   UNL     1       2.156   5.184  17.970  0.00  0.00    +0.000 C 
ATOM      6  C   UNL     1       3.026   6.075  18.863  0.00  0.00    +0.000 C 
BRANCH   6   7
ATOM      7  C   UNL     1       2.249   7.272  19.382  0.00  0.00    +0.000 A 
ATOM      8  C   UNL     1       2.025   8.374  18.537  0.00  0.00    +0.000 A 
ATOM      9  C   UNL     1       1.316   9.487  18.988  0.00  0.00    +0.000 A 
ATOM     10  C   UNL     1       0.816   9.494  20.290  0.00  0.00    +0.000 A 
ATOM     11  C   UNL     1       1.040   8.423  21.154  0.00  0.00    +0.000 A 
ATOM     12  C   UNL     1       1.748   7.312  20.696  0.00  0.00    +0.000 A 
BRANCH  10  13
ATOM     13  S   UNL     1      -0.192  10.839  20.836  0.00  0.00    +0.000 S 
ATOM     14  O   UNL     1      -0.979  11.330  19.735  0.00  0.00    +0.000 OA
ATOM     15  O   UNL     1      -0.762  10.522  22.127  0.00  0.00    +0.000 OA
BRANCH  13  16
ATOM     16  N   UNL     1       1.002  11.985  21.114  0.00  0.00    +0.000 NA
ATOM     17  H   UNL     1       0.745  12.884  20.712  0.00  0.00    +0.000 HD
ATOM     18  H   UNL     1       1.273  12.002  22.097  0.00  0.00    +0.000 HD
ENDBRANCH  13  16
ENDBRANCH  10  13
ENDBRANCH   6   7
ENDBRANCH   1   6
BRANCH   2  19
ATOM     19  C   UNL     1       6.588   6.345  17.437  0.00  0.00    +0.000 C 
ATOM     20  C   UNL     1       6.631   7.866  17.464  0.00  0.00    +0.000 C 
BRANCH  19  21
ATOM     21  N   UNL     1       6.457   5.871  16.065  0.00  0.00    +0.000 N 
ATOM     22  C   UNL     1       7.123   4.746  15.621  0.00  0.00    +0.000 C 
ATOM     23  O   UNL     1       7.880   4.101  16.338  0.00  0.00    +0.000 OA
ATOM     24  H   UNL     1       5.836   6.332  15.411  0.00  0.00    +0.000 HD
BRANCH  22  25
ATOM     25  C   UNL     1       6.831   4.397  14.248  0.00  0.00    +0.000 A 
ATOM     26  C   UNL     1       5.846   3.595  13.704  0.00  0.00    +0.000 A 
ATOM     27  C   UNL     1       6.019   3.630  12.300  0.00  0.00    +0.000 A 
ATOM     28  C   UNL     1       7.106   4.440  12.069  0.00  0.00    +0.000 A 
ATOM     29  O   UNL     1       7.606   4.915  13.240  0.00  0.00    +0.000 OA
ENDBRANCH  22  25
ENDBRANCH  19  21
ENDBRANCH   2  19
TORSDOF 7
ENDMDL
