MODEL 1
REMARK VINA RESULT:      -8.7      0.000      0.000
REMARK  Name = 
REMARK  5 active torsions:
REMARK  status: ('A' for Active; 'I' for Inactive)
REMARK    1  A    between atoms: C_1  and  N_2
REMARK    2  A    between atoms: C_12  and  S_13
REMARK    3  A    between atoms: S_13  and  C_14
REMARK    4  A    between atoms: C_14  and  C_15
REMARK    5  A    between atoms: C_18  and  C_19
REMARK                            x       y       z     vdW  Elec       q    Type
REMARK                         _______ _______ _______ _____ _____    ______ ____
ROOT
ATOM      1  C   UNL     1       2.079   9.898  17.982  0.00  0.00    +0.000 C 
ATOM      2  N   UNL     1       1.637   9.276  19.210  0.00  0.00    +0.000 N 
ATOM      3  C   UNL     1       0.938   9.883  20.233  0.00  0.00    +0.000 A 
ATOM      4  C   UNL     1       0.476  11.203  20.383  0.00  0.00    +0.000 A 
ATOM      5  C   UNL     1      -0.216  11.538  21.547  0.00  0.00    +0.000 A 
ATOM      6  C   UNL     1      -0.442  10.588  22.537  0.00  0.00    +0.000 A 
ATOM      7  C   UNL     1       0.019   9.272  22.387  0.00  0.00    +0.000 A 
ATOM      8  C   UNL     1       0.722   8.903  21.219  0.00  0.00    +0.000 A 
ATOM      9  C   UNL     1       1.318   7.694  20.745  0.00  0.00    +0.000 A 
ATOM     10  N   UNL     1       1.422   6.441  21.265  0.00  0.00    +0.000 NA
ATOM     11  N   UNL     1       2.079   5.530  20.511  0.00  0.00    +0.000 NA
ATOM     12  C   UNL     1       2.598   5.860  19.301  0.00  0.00    +0.000 A 
ATOM     13  N   UNL     1       2.530   7.080  18.732  0.00  0.00    +0.000 NA
ATOM     14  C   UNL     1       1.874   7.961  19.507  0.00  0.00    +0.000 A 
ENDROOT
BRANCH  12  15
ATOM     15  S   UNL     1       3.477   4.665  18.314  0.00  0.00    +0.000 S 
BRANCH  15  16
ATOM     16  C   UNL     1       5.116   4.589  19.107  0.00  0.00    +0.000 C 
BRANCH  16  17
ATOM     17  C   UNL     1       6.176   4.558  18.053  0.00  0.00    +0.000 A 
ATOM     18  N   UNL     1       7.487   4.509  18.181  0.00  0.00    +0.000 NA
ATOM     19  N   UNL     1       8.003   4.452  16.898  0.00  0.00    +0.000 NA
ATOM     20  C   UNL     1       6.975   4.479  16.070  0.00  0.00    +0.000 A 
ATOM     21  O   UNL     1       5.773   4.559  16.737  0.00  0.00    +0.000 OA
BRANCH  20  22
ATOM     22  C   UNL     1       6.939   4.442  14.608  0.00  0.00    +0.000 A 
ATOM     23  C   UNL     1       6.099   3.532  13.943  0.00  0.00    +0.000 A 
ATOM     24  C   UNL     1       6.064   3.472  12.543  0.00  0.00    +0.000 A 
ATOM     25  C   UNL     1       6.873   4.320  11.790  0.00  0.00    +0.000 A 
ATOM     26  C   UNL     1       7.706   5.232  12.431  0.00  0.00    +0.000 A 
ATOM     27  C   UNL     1       7.736   5.294  13.829  0.00  0.00    +0.000 A 
ENDBRANCH  20  22
ENDBRANCH  16  17
ENDBRANCH  15  16
ENDBRANCH  12  15
TORSDOF 4
ENDMDL
MODEL 2
REMARK VINA RESULT:      -8.3      1.042      1.447
REMARK  Name = 
REMARK  5 active torsions:
REMARK  status: ('A' for Active; 'I' for Inactive)
REMARK    1  A    between atoms: C_1  and  N_2
REMARK    2  A    between atoms: C_12  and  S_13
REMARK    3  A    between atoms: S_13  and  C_14
REMARK    4  A    between atoms: C_14  and  C_15
REMARK    5  A    between atoms: C_18  and  C_19
REMARK                            x       y       z     vdW  Elec       q    Type
REMARK                         _______ _______ _______ _____ _____    ______ ____
ROOT
ATOM      1  C   UNL     1       2.765   8.706  17.643  0.00  0.00    +0.000 C 
ATOM      2  N   UNL     1       2.175   8.193  18.859  0.00  0.00    +0.000 N 
ATOM      3  C   UNL     1       1.276   8.848  19.676  0.00  0.00    +0.000 A 
ATOM      4  C   UNL     1       0.700  10.128  19.580  0.00  0.00    +0.000 A 
ATOM      5  C   UNL     1      -0.195  10.531  20.571  0.00  0.00    +0.000 A 
ATOM      6  C   UNL     1      -0.509   9.686  21.630  0.00  0.00    +0.000 A 
ATOM      7  C   UNL     1       0.065   8.410  21.725  0.00  0.00    +0.000 A 
ATOM      8  C   UNL     1       0.974   7.974  20.736  0.00  0.00    +0.000 A 
ATOM      9  C   UNL     1       1.726   6.779  20.521  0.00  0.00    +0.000 A 
ATOM     10  N   UNL     1       1.835   5.610  21.209  0.00  0.00    +0.000 NA
ATOM     11  N   UNL     1       2.671   4.682  20.689  0.00  0.00    +0.000 NA
ATOM     12  C   UNL     1       3.354   4.915  19.540  0.00  0.00    +0.000 A 
ATOM     13  N   UNL     1       3.291   6.049  18.813  0.00  0.00    +0.000 NA
ATOM     14  C   UNL     1       2.455   6.950  19.357  0.00  0.00    +0.000 A 
ENDROOT
BRANCH  12  15
ATOM     15  S   UNL     1       4.468   3.700  18.863  0.00  0.00    +0.000 S 
BRANCH  15  16
ATOM     16  C   UNL     1       6.108   4.464  19.081  0.00  0.00    +0.000 C 
BRANCH  16  17
ATOM     17  C   UNL     1       6.552   5.062  17.784  0.00  0.00    +0.000 A 
ATOM     18  N   UNL     1       7.178   6.198  17.555  0.00  0.00    +0.000 NA
ATOM     19  N   UNL     1       7.397   6.255  16.189  0.00  0.00    +0.000 NA
ATOM     20  C   UNL     1       6.883   5.154  15.673  0.00  0.00    +0.000 A 
ATOM     21  O   UNL     1       6.313   4.347  16.633  0.00  0.00    +0.000 OA
BRANCH  20  22
ATOM     22  C   UNL     1       6.832   4.696  14.284  0.00  0.00    +0.000 A 
ATOM     23  C   UNL     1       7.676   5.270  13.318  0.00  0.00    +0.000 A 
ATOM     24  C   UNL     1       7.628   4.855  11.980  0.00  0.00    +0.000 A 
ATOM     25  C   UNL     1       6.733   3.861  11.591  0.00  0.00    +0.000 A 
ATOM     26  C   UNL     1       5.894   3.276  12.536  0.00  0.00    +0.000 A 
ATOM     27  C   UNL     1       5.946   3.690  13.872  0.00  0.00    +0.000 A 
ENDBRANCH  20  22
ENDBRANCH  16  17
ENDBRANCH  15  16
ENDBRANCH  12  15
TORSDOF 4
ENDMDL
MODEL 3
REMARK VINA RESULT:      -8.3      1.294      1.565
REMARK  Name = 
REMARK  5 active torsions:
REMARK  status: ('A' for Active; 'I' for Inactive)
REMARK    1  A    between atoms: C_1  and  N_2
REMARK    2  A    between atoms: C_12  and  S_13
REMARK    3  A    between atoms: S_13  and  C_14
REMARK    4  A    between atoms: C_14  and  C_15
REMARK    5  A    between atoms: C_18  and  C_19
REMARK                            x       y       z     vdW  Elec       q    Type
REMARK                         _______ _______ _______ _____ _____    ______ ____
ROOT
ATOM      1  C   UNL     1       1.763  10.395  18.082  0.00  0.00    +0.000 C 
ATOM      2  N   UNL     1       1.439   9.580  19.232  0.00  0.00    +0.000 N 
ATOM      3  C   UNL     1       0.694   9.965  20.328  0.00  0.00    +0.000 A 
ATOM      4  C   UNL     1       0.064  11.184  20.638  0.00  0.00    +0.000 A 
ATOM      5  C   UNL     1      -0.635  11.285  21.840  0.00  0.00    +0.000 A 
ATOM      6  C   UNL     1      -0.706  10.205  22.713  0.00  0.00    +0.000 A 
ATOM      7  C   UNL     1      -0.079   8.989  22.404  0.00  0.00    +0.000 A 
ATOM      8  C   UNL     1       0.635   8.857  21.193  0.00  0.00    +0.000 A 
ATOM      9  C   UNL     1       1.375   7.803  20.573  0.00  0.00    +0.000 A 
ATOM     10  N   UNL     1       1.658   6.524  20.939  0.00  0.00    +0.000 NA
ATOM     11  N   UNL     1       2.409   5.803  20.076  0.00  0.00    +0.000 NA
ATOM     12  C   UNL     1       2.847   6.338  18.908  0.00  0.00    +0.000 A 
ATOM     13  N   UNL     1       2.603   7.596  18.488  0.00  0.00    +0.000 NA
ATOM     14  C   UNL     1       1.857   8.284  19.368  0.00  0.00    +0.000 A 
ENDROOT
BRANCH  12  15
ATOM     15  S   UNL     1       3.851   5.395  17.777  0.00  0.00    +0.000 S 
BRANCH  15  16
ATOM     16  C   UNL     1       4.942   6.652  17.035  0.00  0.00    +0.000 C 
BRANCH  16  17
ATOM     17  C   UNL     1       5.866   5.994  16.060  0.00  0.00    +0.000 A 
ATOM     18  N   UNL     1       7.183   5.977  16.032  0.00  0.00    +0.000 NA
ATOM     19  N   UNL     1       7.541   5.188  14.952  0.00  0.00    +0.000 NA
ATOM     20  C   UNL     1       6.420   4.782  14.386  0.00  0.00    +0.000 A 
ATOM     21  O   UNL     1       5.305   5.268  15.034  0.00  0.00    +0.000 OA
BRANCH  20  22
ATOM     22  C   UNL     1       6.207   3.930  13.216  0.00  0.00    +0.000 A 
ATOM     23  C   UNL     1       4.903   3.651  12.772  0.00  0.00    +0.000 A 
ATOM     24  C   UNL     1       4.680   2.823  11.663  0.00  0.00    +0.000 A 
ATOM     25  C   UNL     1       5.760   2.261  10.986  0.00  0.00    +0.000 A 
ATOM     26  C   UNL     1       7.059   2.531  11.408  0.00  0.00    +0.000 A 
ATOM     27  C   UNL     1       7.279   3.362  12.513  0.00  0.00    +0.000 A 
ENDBRANCH  20  22
ENDBRANCH  16  17
ENDBRANCH  15  16
ENDBRANCH  12  15
TORSDOF 4
ENDMDL
MODEL 4
REMARK VINA RESULT:      -8.2      3.441      8.977
REMARK  Name = 
REMARK  5 active torsions:
REMARK  status: ('A' for Active; 'I' for Inactive)
REMARK    1  A    between atoms: C_1  and  N_2
REMARK    2  A    between atoms: C_12  and  S_13
REMARK    3  A    between atoms: S_13  and  C_14
REMARK    4  A    between atoms: C_14  and  C_15
REMARK    5  A    between atoms: C_18  and  C_19
REMARK                            x       y       z     vdW  Elec       q    Type
REMARK                         _______ _______ _______ _____ _____    ______ ____
ROOT
ATOM      1  C   UNL     1       3.336   3.430  19.341  0.00  0.00    +0.000 C 
ATOM      2  N   UNL     1       3.589   4.612  18.548  0.00  0.00    +0.000 N 
ATOM      3  C   UNL     1       4.380   4.691  17.420  0.00  0.00    +0.000 A 
ATOM      4  C   UNL     1       5.131   3.711  16.746  0.00  0.00    +0.000 A 
ATOM      5  C   UNL     1       5.847   4.087  15.610  0.00  0.00    +0.000 A 
ATOM      6  C   UNL     1       5.820   5.401  15.155  0.00  0.00    +0.000 A 
ATOM      7  C   UNL     1       5.071   6.377  15.828  0.00  0.00    +0.000 A 
ATOM      8  C   UNL     1       4.335   6.026  16.980  0.00  0.00    +0.000 A 
ATOM      9  C   UNL     1       3.490   6.737  17.888  0.00  0.00    +0.000 A 
ATOM     10  N   UNL     1       3.087   8.034  17.963  0.00  0.00    +0.000 NA
ATOM     11  N   UNL     1       2.267   8.351  18.991  0.00  0.00    +0.000 NA
ATOM     12  C   UNL     1       1.872   7.414  19.890  0.00  0.00    +0.000 A 
ATOM     13  N   UNL     1       2.235   6.116  19.872  0.00  0.00    +0.000 NA
ATOM     14  C   UNL     1       3.050   5.836  18.841  0.00  0.00    +0.000 A 
ENDROOT
BRANCH  12  15
ATOM     15  S   UNL     1       0.804   7.833  21.254  0.00  0.00    +0.000 S 
BRANCH  15  16
ATOM     16  C   UNL     1       1.250   9.561  21.621  0.00  0.00    +0.000 C 
BRANCH  16  17
ATOM     17  C   UNL     1       0.298  10.478  20.922  0.00  0.00    +0.000 A 
ATOM     18  N   UNL     1       0.049  11.754  21.137  0.00  0.00    +0.000 NA
ATOM     19  N   UNL     1      -0.879  12.138  20.185  0.00  0.00    +0.000 NA
ATOM     20  C   UNL     1      -1.144  11.070  19.456  0.00  0.00    +0.000 A 
ATOM     21  O   UNL     1      -0.436   9.966  19.876  0.00  0.00    +0.000 OA
BRANCH  20  22
ATOM     22  C   UNL     1      -2.047  10.904  18.317  0.00  0.00    +0.000 A 
ATOM     23  C   UNL     1      -3.252  11.624  18.259  0.00  0.00    +0.000 A 
ATOM     24  C   UNL     1      -4.137  11.464  17.183  0.00  0.00    +0.000 A 
ATOM     25  C   UNL     1      -3.828  10.578  16.153  0.00  0.00    +0.000 A 
ATOM     26  C   UNL     1      -2.636   9.861  16.191  0.00  0.00    +0.000 A 
ATOM     27  C   UNL     1      -1.751  10.025  17.264  0.00  0.00    +0.000 A 
ENDBRANCH  20  22
ENDBRANCH  16  17
ENDBRANCH  15  16
ENDBRANCH  12  15
TORSDOF 4
ENDMDL
MODEL 5
REMARK VINA RESULT:      -8.2      0.978      2.276
REMARK  Name = 
REMARK  5 active torsions:
REMARK  status: ('A' for Active; 'I' for Inactive)
REMARK    1  A    between atoms: C_1  and  N_2
REMARK    2  A    between atoms: C_12  and  S_13
REMARK    3  A    between atoms: S_13  and  C_14
REMARK    4  A    between atoms: C_14  and  C_15
REMARK    5  A    between atoms: C_18  and  C_19
REMARK                            x       y       z     vdW  Elec       q    Type
REMARK                         _______ _______ _______ _____ _____    ______ ____
ROOT
ATOM      1  C   UNL     1       0.767   8.201  21.951  0.00  0.00    +0.000 C 
ATOM      2  N   UNL     1       1.064   8.884  20.711  0.00  0.00    +0.000 N 
ATOM      3  C   UNL     1       0.746  10.189  20.396  0.00  0.00    +0.000 A 
ATOM      4  C   UNL     1       0.082  11.185  21.135  0.00  0.00    +0.000 A 
ATOM      5  C   UNL     1      -0.100  12.438  20.549  0.00  0.00    +0.000 A 
ATOM      6  C   UNL     1       0.364  12.695  19.264  0.00  0.00    +0.000 A 
ATOM      7  C   UNL     1       1.026  11.702  18.528  0.00  0.00    +0.000 A 
ATOM      8  C   UNL     1       1.226  10.425  19.094  0.00  0.00    +0.000 A 
ATOM      9  C   UNL     1       1.838   9.212  18.649  0.00  0.00    +0.000 A 
ATOM     10  N   UNL     1       2.459   8.853  17.493  0.00  0.00    +0.000 NA
ATOM     11  N   UNL     1       2.922   7.584  17.429  0.00  0.00    +0.000 NA
ATOM     12  C   UNL     1       2.772   6.726  18.470  0.00  0.00    +0.000 A 
ATOM     13  N   UNL     1       2.167   7.019  19.639  0.00  0.00    +0.000 NA
ATOM     14  C   UNL     1       1.717   8.285  19.669  0.00  0.00    +0.000 A 
ENDROOT
BRANCH  12  15
ATOM     15  S   UNL     1       3.366   5.048  18.380  0.00  0.00    +0.000 S 
BRANCH  15  16
ATOM     16  C   UNL     1       5.002   5.138  19.178  0.00  0.00    +0.000 C 
BRANCH  16  17
ATOM     17  C   UNL     1       6.067   4.912  18.153  0.00  0.00    +0.000 A 
ATOM     18  N   UNL     1       7.362   4.733  18.314  0.00  0.00    +0.000 NA
ATOM     19  N   UNL     1       7.888   4.521  17.051  0.00  0.00    +0.000 NA
ATOM     20  C   UNL     1       6.881   4.593  16.201  0.00  0.00    +0.000 A 
ATOM     21  O   UNL     1       5.685   4.853  16.832  0.00  0.00    +0.000 OA
BRANCH  20  22
ATOM     22  C   UNL     1       6.862   4.446  14.746  0.00  0.00    +0.000 A 
ATOM     23  C   UNL     1       7.728   5.209  13.945  0.00  0.00    +0.000 A 
ATOM     24  C   UNL     1       7.711   5.093  12.548  0.00  0.00    +0.000 A 
ATOM     25  C   UNL     1       6.823   4.212  11.934  0.00  0.00    +0.000 A 
ATOM     26  C   UNL     1       5.962   3.443  12.711  0.00  0.00    +0.000 A 
ATOM     27  C   UNL     1       5.983   3.558  14.106  0.00  0.00    +0.000 A 
ENDBRANCH  20  22
ENDBRANCH  16  17
ENDBRANCH  15  16
ENDBRANCH  12  15
TORSDOF 4
ENDMDL
MODEL 6
REMARK VINA RESULT:      -8.1      1.229      2.222
REMARK  Name = 
REMARK  5 active torsions:
REMARK  status: ('A' for Active; 'I' for Inactive)
REMARK    1  A    between atoms: C_1  and  N_2
REMARK    2  A    between atoms: C_12  and  S_13
REMARK    3  A    between atoms: S_13  and  C_14
REMARK    4  A    between atoms: C_14  and  C_15
REMARK    5  A    between atoms: C_18  and  C_19
REMARK                            x       y       z     vdW  Elec       q    Type
REMARK                         _______ _______ _______ _____ _____    ______ ____
ROOT
ATOM      1  C   UNL     1       0.939   8.611  22.169  0.00  0.00    +0.000 C 
ATOM      2  N   UNL     1       1.076   9.209  20.859  0.00  0.00    +0.000 N 
ATOM      3  C   UNL     1       0.683  10.479  20.491  0.00  0.00    +0.000 A 
ATOM      4  C   UNL     1       0.069  11.509  21.227  0.00  0.00    +0.000 A 
ATOM      5  C   UNL     1      -0.217  12.710  20.580  0.00  0.00    +0.000 A 
ATOM      6  C   UNL     1       0.097  12.886  19.237  0.00  0.00    +0.000 A 
ATOM      7  C   UNL     1       0.708  11.859  18.502  0.00  0.00    +0.000 A 
ATOM      8  C   UNL     1       1.011  10.632  19.131  0.00  0.00    +0.000 A 
ATOM      9  C   UNL     1       1.611   9.406  18.706  0.00  0.00    +0.000 A 
ATOM     10  N   UNL     1       2.115   8.980  17.517  0.00  0.00    +0.000 NA
ATOM     11  N   UNL     1       2.611   7.722  17.490  0.00  0.00    +0.000 NA
ATOM     12  C   UNL     1       2.603   6.939  18.598  0.00  0.00    +0.000 A 
ATOM     13  N   UNL     1       2.119   7.300  19.803  0.00  0.00    +0.000 NA
ATOM     14  C   UNL     1       1.633   8.553  19.795  0.00  0.00    +0.000 A 
ENDROOT
BRANCH  12  15
ATOM     15  S   UNL     1       3.241   5.275  18.559  0.00  0.00    +0.000 S 
BRANCH  15  16
ATOM     16  C   UNL     1       4.963   5.471  19.120  0.00  0.00    +0.000 C 
BRANCH  16  17
ATOM     17  C   UNL     1       5.847   5.699  17.936  0.00  0.00    +0.000 A 
ATOM     18  N   UNL     1       6.918   6.458  17.821  0.00  0.00    +0.000 NA
ATOM     19  N   UNL     1       7.390   6.276  16.532  0.00  0.00    +0.000 NA
ATOM     20  C   UNL     1       6.573   5.425  15.942  0.00  0.00    +0.000 A 
ATOM     21  O   UNL     1       5.553   5.020  16.775  0.00  0.00    +0.000 OA
BRANCH  20  22
ATOM     22  C   UNL     1       6.596   4.879  14.585  0.00  0.00    +0.000 A 
ATOM     23  C   UNL     1       5.610   3.967  14.171  0.00  0.00    +0.000 A 
ATOM     24  C   UNL     1       5.627   3.422  12.880  0.00  0.00    +0.000 A 
ATOM     25  C   UNL     1       6.634   3.780  11.986  0.00  0.00    +0.000 A 
ATOM     26  C   UNL     1       7.615   4.687  12.376  0.00  0.00    +0.000 A 
ATOM     27  C   UNL     1       7.594   5.234  13.664  0.00  0.00    +0.000 A 
ENDBRANCH  20  22
ENDBRANCH  16  17
ENDBRANCH  15  16
ENDBRANCH  12  15
TORSDOF 4
ENDMDL
MODEL 7
REMARK VINA RESULT:      -8.0      2.235      3.574
REMARK  Name = 
REMARK  5 active torsions:
REMARK  status: ('A' for Active; 'I' for Inactive)
REMARK    1  A    between atoms: C_1  and  N_2
REMARK    2  A    between atoms: C_12  and  S_13
REMARK    3  A    between atoms: S_13  and  C_14
REMARK    4  A    between atoms: C_14  and  C_15
REMARK    5  A    between atoms: C_18  and  C_19
REMARK                            x       y       z     vdW  Elec       q    Type
REMARK                         _______ _______ _______ _____ _____    ______ ____
ROOT
ATOM      1  C   UNL     1      -0.313   9.629  23.053  0.00  0.00    +0.000 C 
ATOM      2  N   UNL     1       0.164   9.847  21.705  0.00  0.00    +0.000 N 
ATOM      3  C   UNL     1       0.025  11.000  20.961  0.00  0.00    +0.000 A 
ATOM      4  C   UNL     1      -0.582  12.232  21.266  0.00  0.00    +0.000 A 
ATOM      5  C   UNL     1      -0.570  13.237  20.300  0.00  0.00    +0.000 A 
ATOM      6  C   UNL     1       0.029  13.027  19.063  0.00  0.00    +0.000 A 
ATOM      7  C   UNL     1       0.635  11.799  18.759  0.00  0.00    +0.000 A 
ATOM      8  C   UNL     1       0.639  10.762  19.718  0.00  0.00    +0.000 A 
ATOM      9  C   UNL     1       1.145   9.426  19.750  0.00  0.00    +0.000 A 
ATOM     10  N   UNL     1       1.818   8.663  18.848  0.00  0.00    +0.000 NA
ATOM     11  N   UNL     1       2.138   7.409  19.240  0.00  0.00    +0.000 NA
ATOM     12  C   UNL     1       1.803   6.950  20.472  0.00  0.00    +0.000 A 
ATOM     13  N   UNL     1       1.137   7.653  21.410  0.00  0.00    +0.000 NA
ATOM     14  C   UNL     1       0.833   8.892  20.988  0.00  0.00    +0.000 A 
ENDROOT
BRANCH  12  15
ATOM     15  S   UNL     1       2.208   5.292  20.984  0.00  0.00    +0.000 S 
BRANCH  15  16
ATOM     16  C   UNL     1       1.126   4.255  19.948  0.00  0.00    +0.000 C 
BRANCH  16  17
ATOM     17  C   UNL     1       1.886   3.788  18.748  0.00  0.00    +0.000 A 
ATOM     18  N   UNL     1       1.544   2.913  17.824  0.00  0.00    +0.000 NA
ATOM     19  N   UNL     1       2.583   2.881  16.911  0.00  0.00    +0.000 NA
ATOM     20  C   UNL     1       3.497   3.731  17.340  0.00  0.00    +0.000 A 
ATOM     21  O   UNL     1       3.126   4.341  18.518  0.00  0.00    +0.000 OA
BRANCH  20  22
ATOM     22  C   UNL     1       4.793   4.094  16.767  0.00  0.00    +0.000 A 
ATOM     23  C   UNL     1       4.972   4.105  15.373  0.00  0.00    +0.000 A 
ATOM     24  C   UNL     1       6.212   4.435  14.808  0.00  0.00    +0.000 A 
ATOM     25  C   UNL     1       7.289   4.756  15.631  0.00  0.00    +0.000 A 
ATOM     26  C   UNL     1       7.128   4.756  17.013  0.00  0.00    +0.000 A 
ATOM     27  C   UNL     1       5.888   4.431  17.576  0.00  0.00    +0.000 A 
ENDBRANCH  20  22
ENDBRANCH  16  17
ENDBRANCH  15  16
ENDBRANCH  12  15
TORSDOF 4
ENDMDL
MODEL 8
REMARK VINA RESULT:      -7.9      1.343      2.466
REMARK  Name = 
REMARK  5 active torsions:
REMARK  status: ('A' for Active; 'I' for Inactive)
REMARK    1  A    between atoms: C_1  and  N_2
REMARK    2  A    between atoms: C_12  and  S_13
REMARK    3  A    between atoms: S_13  and  C_14
REMARK    4  A    between atoms: C_14  and  C_15
REMARK    5  A    between atoms: C_18  and  C_19
REMARK                            x       y       z     vdW  Elec       q    Type
REMARK                         _______ _______ _______ _____ _____    ______ ____
ROOT
ATOM      1  C   UNL     1       0.540   9.166  22.626  0.00  0.00    +0.000 C 
ATOM      2  N   UNL     1       0.664   9.520  21.230  0.00  0.00    +0.000 N 
ATOM      3  C   UNL     1       0.187  10.666  20.627  0.00  0.00    +0.000 A 
ATOM      4  C   UNL     1      -0.518  11.764  21.153  0.00  0.00    +0.000 A 
ATOM      5  C   UNL     1      -0.876  12.799  20.290  0.00  0.00    +0.000 A 
ATOM      6  C   UNL     1      -0.545  12.746  18.941  0.00  0.00    +0.000 A 
ATOM      7  C   UNL     1       0.158  11.651  18.416  0.00  0.00    +0.000 A 
ATOM      8  C   UNL     1       0.535  10.588  19.266  0.00  0.00    +0.000 A 
ATOM      9  C   UNL     1       1.234   9.355  19.083  0.00  0.00    +0.000 A 
ATOM     10  N   UNL     1       1.795   8.755  17.999  0.00  0.00    +0.000 NA
ATOM     11  N   UNL     1       2.383   7.556  18.211  0.00  0.00    +0.000 NA
ATOM     12  C   UNL     1       2.406   6.993  19.446  0.00  0.00    +0.000 A 
ATOM     13  N   UNL     1       1.869   7.534  20.558  0.00  0.00    +0.000 NA
ATOM     14  C   UNL     1       1.293   8.723  20.312  0.00  0.00    +0.000 A 
ENDROOT
BRANCH  12  15
ATOM     15  S   UNL     1       3.165   5.405  19.725  0.00  0.00    +0.000 S 
BRANCH  15  16
ATOM     16  C   UNL     1       3.062   4.598  18.095  0.00  0.00    +0.000 C 
BRANCH  16  17
ATOM     17  C   UNL     1       4.419   4.569  17.469  0.00  0.00    +0.000 A 
ATOM     18  N   UNL     1       5.607   4.559  18.039  0.00  0.00    +0.000 NA
ATOM     19  N   UNL     1       6.533   4.483  17.013  0.00  0.00    +0.000 NA
ATOM     20  C   UNL     1       5.851   4.461  15.883  0.00  0.00    +0.000 A 
ATOM     21  O   UNL     1       4.492   4.525  16.095  0.00  0.00    +0.000 OA
BRANCH  20  22
ATOM     22  C   UNL     1       6.319   4.385  14.499  0.00  0.00    +0.000 A 
ATOM     23  C   UNL     1       7.387   5.190  14.067  0.00  0.00    +0.000 A 
ATOM     24  C   UNL     1       7.837   5.142  12.740  0.00  0.00    +0.000 A 
ATOM     25  C   UNL     1       7.220   4.290  11.827  0.00  0.00    +0.000 A 
ATOM     26  C   UNL     1       6.165   3.481  12.237  0.00  0.00    +0.000 A 
ATOM     27  C   UNL     1       5.720   3.527  13.564  0.00  0.00    +0.000 A 
ENDBRANCH  20  22
ENDBRANCH  16  17
ENDBRANCH  15  16
ENDBRANCH  12  15
TORSDOF 4
ENDMDL
MODEL 9
REMARK VINA RESULT:      -7.9      3.915      9.025
REMARK  Name = 
REMARK  5 active torsions:
REMARK  status: ('A' for Active; 'I' for Inactive)
REMARK    1  A    between atoms: C_1  and  N_2
REMARK    2  A    between atoms: C_12  and  S_13
REMARK    3  A    between atoms: S_13  and  C_14
REMARK    4  A    between atoms: C_14  and  C_15
REMARK    5  A    between atoms: C_18  and  C_19
REMARK                            x       y       z     vdW  Elec       q    Type
REMARK                         _______ _______ _______ _____ _____    ______ ____
ROOT
ATOM      1  C   UNL     1       2.001   4.151  21.221  0.00  0.00    +0.000 C 
ATOM      2  N   UNL     1       2.413   5.005  20.129  0.00  0.00    +0.000 N 
ATOM      3  C   UNL     1       3.136   4.625  19.016  0.00  0.00    +0.000 A 
ATOM      4  C   UNL     1       3.657   3.376  18.633  0.00  0.00    +0.000 A 
ATOM      5  C   UNL     1       4.358   3.289  17.431  0.00  0.00    +0.000 A 
ATOM      6  C   UNL     1       4.539   4.411  16.630  0.00  0.00    +0.000 A 
ATOM      7  C   UNL     1       4.019   5.657  17.013  0.00  0.00    +0.000 A 
ATOM      8  C   UNL     1       3.304   5.776  18.224  0.00  0.00    +0.000 A 
ATOM      9  C   UNL     1       2.656   6.851  18.907  0.00  0.00    +0.000 A 
ATOM     10  N   UNL     1       2.497   8.172  18.624  0.00  0.00    +0.000 NA
ATOM     11  N   UNL     1       1.811   8.903  19.532  0.00  0.00    +0.000 NA
ATOM     12  C   UNL     1       1.310   8.337  20.658  0.00  0.00    +0.000 A 
ATOM     13  N   UNL     1       1.433   7.038  20.997  0.00  0.00    +0.000 NA
ATOM     14  C   UNL     1       2.121   6.341  20.076  0.00  0.00    +0.000 A 
ENDROOT
BRANCH  12  15
ATOM     15  S   UNL     1       0.420   9.302  21.863  0.00  0.00    +0.000 S 
BRANCH  15  16
ATOM     16  C   UNL     1       0.496  10.993  21.187  0.00  0.00    +0.000 C 
BRANCH  16  17
ATOM     17  C   UNL     1      -0.787  11.305  20.486  0.00  0.00    +0.000 A 
ATOM     18  N   UNL     1      -1.798  12.053  20.879  0.00  0.00    +0.000 NA
ATOM     19  N   UNL     1      -2.713  12.051  19.841  0.00  0.00    +0.000 NA
ATOM     20  C   UNL     1      -2.207  11.295  18.885  0.00  0.00    +0.000 A 
ATOM     21  O   UNL     1      -0.980  10.773  19.232  0.00  0.00    +0.000 OA
BRANCH  20  22
ATOM     22  C   UNL     1      -2.745  10.946  17.571  0.00  0.00    +0.000 A 
ATOM     23  C   UNL     1      -2.089  10.000  16.764  0.00  0.00    +0.000 A 
ATOM     24  C   UNL     1      -2.582   9.667  15.495  0.00  0.00    +0.000 A 
ATOM     25  C   UNL     1      -3.738  10.279  15.015  0.00  0.00    +0.000 A 
ATOM     26  C   UNL     1      -4.405  11.213  15.802  0.00  0.00    +0.000 A 
ATOM     27  C   UNL     1      -3.913  11.542  17.071  0.00  0.00    +0.000 A 
ENDBRANCH  20  22
ENDBRANCH  16  17
ENDBRANCH  15  16
ENDBRANCH  12  15
TORSDOF 4
ENDMDL
