MODEL 1
REMARK VINA RESULT:      -6.0      0.000      0.000
REMARK  Name = 
REMARK  8 active torsions:
REMARK  status: ('A' for Active; 'I' for Inactive)
REMARK    1  A    between atoms: C_1  and  C_2
REMARK    2  A    between atoms: C_2  and  N_3
REMARK    3  A    between atoms: N_3  and  C_11
REMARK    4  A    between atoms: C_4  and  O_6
REMARK    5  A    between atoms: O_6  and  C_7
REMARK    6  A    between atoms: C_7  and  C_8
REMARK    7  A    between atoms: C_7  and  C_9
REMARK    8  A    between atoms: C_7  and  C_10
REMARK                            x       y       z     vdW  Elec       q    Type
REMARK                         _______ _______ _______ _____ _____    ______ ____
ROOT
ATOM      1  N   UNL     1       3.658   4.235  17.292  0.00  0.00    +0.000 N 
ATOM      2  C   UNL     1       3.001   5.344  17.853  0.00  0.00    +0.000 C 
ATOM      3  O   UNL     1       3.408   6.495  17.758  0.00  0.00    +0.000 OA
ENDROOT
BRANCH   1   4
ATOM      4  C   UNL     1       5.045   4.339  16.898  0.00  0.00    +0.000 A 
ATOM      5  C   UNL     1       5.408   4.334  15.544  0.00  0.00    +0.000 A 
ATOM      6  C   UNL     1       6.744   4.462  15.191  0.00  0.00    +0.000 A 
ATOM      7  N   UNL     1       7.743   4.593  16.080  0.00  0.00    +0.000 NA
ATOM      8  C   UNL     1       7.385   4.602  17.379  0.00  0.00    +0.000 A 
ATOM      9  C   UNL     1       6.075   4.496  17.829  0.00  0.00    +0.000 A 
ENDBRANCH   1   4
BRANCH   1  11
ATOM     10  C   UNL     1       3.412   1.850  17.995  0.00  0.00    +0.000 C 
ATOM     11  C   UNL     1       2.945   2.972  17.075  0.00  0.00    +0.000 C 
ENDBRANCH   1  11
BRANCH   2  12
ATOM     12  O   UNL     1       1.872   5.020  18.555  0.00  0.00    +0.000 OA
BRANCH  12  13
ATOM     13  C   UNL     1       1.944   4.946  20.011  0.00  0.00    +0.000 C 
ATOM     14  C   UNL     1       1.536   6.278  20.653  0.00  0.00    +0.000 C 
ATOM     15  C   UNL     1       0.921   3.879  20.434  0.00  0.00    +0.000 C 
ATOM     16  C   UNL     1       3.325   4.471  20.494  0.00  0.00    +0.000 C 
ENDBRANCH  12  13
ENDBRANCH   2  12
TORSDOF 4
ENDMDL
MODEL 2
REMARK VINA RESULT:      -5.9      0.114      1.173
REMARK  Name = 
REMARK  8 active torsions:
REMARK  status: ('A' for Active; 'I' for Inactive)
REMARK    1  A    between atoms: C_1  and  C_2
REMARK    2  A    between atoms: C_2  and  N_3
REMARK    3  A    between atoms: N_3  and  C_11
REMARK    4  A    between atoms: C_4  and  O_6
REMARK    5  A    between atoms: O_6  and  C_7
REMARK    6  A    between atoms: C_7  and  C_8
REMARK    7  A    between atoms: C_7  and  C_9
REMARK    8  A    between atoms: C_7  and  C_10
REMARK                            x       y       z     vdW  Elec       q    Type
REMARK                         _______ _______ _______ _____ _____    ______ ____
ROOT
ATOM      1  N   UNL     1       3.639   4.373  17.275  0.00  0.00    +0.000 N 
ATOM      2  C   UNL     1       3.001   5.481  17.859  0.00  0.00    +0.000 C 
ATOM      3  O   UNL     1       3.427   6.626  17.789  0.00  0.00    +0.000 OA
ENDROOT
BRANCH   1   4
ATOM      4  C   UNL     1       5.027   4.461  16.883  0.00  0.00    +0.000 A 
ATOM      5  C   UNL     1       6.040   4.556  17.846  0.00  0.00    +0.000 A 
ATOM      6  C   UNL     1       7.367   4.612  17.445  0.00  0.00    +0.000 A 
ATOM      7  N   UNL     1       7.761   4.583  16.160  0.00  0.00    +0.000 NA
ATOM      8  C   UNL     1       6.781   4.487  15.240  0.00  0.00    +0.000 A 
ATOM      9  C   UNL     1       5.429   4.408  15.546  0.00  0.00    +0.000 A 
ENDBRANCH   1   4
BRANCH   1  11
ATOM     10  C   UNL     1       3.362   1.974  17.916  0.00  0.00    +0.000 C 
ATOM     11  C   UNL     1       2.904   3.128  17.031  0.00  0.00    +0.000 C 
ENDBRANCH   1  11
BRANCH   2  12
ATOM     12  O   UNL     1       1.865   5.162  18.554  0.00  0.00    +0.000 OA
BRANCH  12  13
ATOM     13  C   UNL     1       1.938   5.046  20.007  0.00  0.00    +0.000 C 
ATOM     14  C   UNL     1       1.547   6.364  20.687  0.00  0.00    +0.000 C 
ATOM     15  C   UNL     1       0.901   3.981  20.401  0.00  0.00    +0.000 C 
ATOM     16  C   UNL     1       3.313   4.541  20.475  0.00  0.00    +0.000 C 
ENDBRANCH  12  13
ENDBRANCH   2  12
TORSDOF 4
ENDMDL
MODEL 3
REMARK VINA RESULT:      -5.8      0.118      1.578
REMARK  Name = 
REMARK  8 active torsions:
REMARK  status: ('A' for Active; 'I' for Inactive)
REMARK    1  A    between atoms: C_1  and  C_2
REMARK    2  A    between atoms: C_2  and  N_3
REMARK    3  A    between atoms: N_3  and  C_11
REMARK    4  A    between atoms: C_4  and  O_6
REMARK    5  A    between atoms: O_6  and  C_7
REMARK    6  A    between atoms: C_7  and  C_8
REMARK    7  A    between atoms: C_7  and  C_9
REMARK    8  A    between atoms: C_7  and  C_10
REMARK                            x       y       z     vdW  Elec       q    Type
REMARK                         _______ _______ _______ _____ _____    ______ ____
ROOT
ATOM      1  N   UNL     1       3.635   4.180  17.293  0.00  0.00    +0.000 N 
ATOM      2  C   UNL     1       2.947   5.266  17.862  0.00  0.00    +0.000 C 
ATOM      3  O   UNL     1       3.311   6.431  17.761  0.00  0.00    +0.000 OA
ENDROOT
BRANCH   1   4
ATOM      4  C   UNL     1       5.011   4.333  16.877  0.00  0.00    +0.000 A 
ATOM      5  C   UNL     1       6.035   4.473  17.823  0.00  0.00    +0.000 A 
ATOM      6  C   UNL     1       7.350   4.591  17.399  0.00  0.00    +0.000 A 
ATOM      7  N   UNL     1       7.723   4.582  16.108  0.00  0.00    +0.000 NA
ATOM      8  C   UNL     1       6.733   4.441  15.204  0.00  0.00    +0.000 A 
ATOM      9  C   UNL     1       5.391   4.300  15.533  0.00  0.00    +0.000 A 
ENDBRANCH   1   4
BRANCH   1  11
ATOM     10  C   UNL     1       3.430   1.809  18.054  0.00  0.00    +0.000 C 
ATOM     11  C   UNL     1       2.964   2.893  17.088  0.00  0.00    +0.000 C 
ENDBRANCH   1  11
BRANCH   2  12
ATOM     12  O   UNL     1       1.841   4.903  18.582  0.00  0.00    +0.000 OA
BRANCH  12  13
ATOM     13  C   UNL     1       1.960   4.755  20.030  0.00  0.00    +0.000 C 
ATOM     14  C   UNL     1       3.417   4.520  20.444  0.00  0.00    +0.000 C 
ATOM     15  C   UNL     1       1.502   6.093  20.633  0.00  0.00    +0.000 C 
ATOM     16  C   UNL     1       1.022   3.664  20.573  0.00  0.00    +0.000 C 
ENDBRANCH  12  13
ENDBRANCH   2  12
TORSDOF 4
ENDMDL
MODEL 4
REMARK VINA RESULT:      -5.8      1.659      2.222
REMARK  Name = 
REMARK  8 active torsions:
REMARK  status: ('A' for Active; 'I' for Inactive)
REMARK    1  A    between atoms: C_1  and  C_2
REMARK    2  A    between atoms: C_2  and  N_3
REMARK    3  A    between atoms: N_3  and  C_11
REMARK    4  A    between atoms: C_4  and  O_6
REMARK    5  A    between atoms: O_6  and  C_7
REMARK    6  A    between atoms: C_7  and  C_8
REMARK    7  A    between atoms: C_7  and  C_9
REMARK    8  A    between atoms: C_7  and  C_10
REMARK                            x       y       z     vdW  Elec       q    Type
REMARK                         _______ _______ _______ _____ _____    ______ ____
ROOT
ATOM      1  N   UNL     1       3.998   4.667  18.008  0.00  0.00    +0.000 N 
ATOM      2  C   UNL     1       4.040   3.697  19.024  0.00  0.00    +0.000 C 
ATOM      3  O   UNL     1       5.065   3.366  19.607  0.00  0.00    +0.000 OA
ENDROOT
BRANCH   1   4
ATOM      4  C   UNL     1       5.213   5.058  17.330  0.00  0.00    +0.000 A 
ATOM      5  C   UNL     1       5.573   4.475  16.108  0.00  0.00    +0.000 A 
ATOM      6  C   UNL     1       6.731   4.887  15.464  0.00  0.00    +0.000 A 
ATOM      7  N   UNL     1       7.557   5.832  15.945  0.00  0.00    +0.000 NA
ATOM      8  C   UNL     1       7.202   6.391  17.118  0.00  0.00    +0.000 A 
ATOM      9  C   UNL     1       6.055   6.057  17.827  0.00  0.00    +0.000 A 
ENDBRANCH   1   4
BRANCH   1  11
ATOM     10  C   UNL     1       2.644   6.764  18.098  0.00  0.00    +0.000 C 
ATOM     11  C   UNL     1       2.734   5.313  17.640  0.00  0.00    +0.000 C 
ENDBRANCH   1  11
BRANCH   2  12
ATOM     12  O   UNL     1       2.828   3.117  19.285  0.00  0.00    +0.000 OA
BRANCH  12  13
ATOM     13  C   UNL     1       2.177   3.389  20.563  0.00  0.00    +0.000 C 
ATOM     14  C   UNL     1       2.446   4.826  21.026  0.00  0.00    +0.000 C 
ATOM     15  C   UNL     1       0.666   3.244  20.309  0.00  0.00    +0.000 C 
ATOM     16  C   UNL     1       2.561   2.355  21.634  0.00  0.00    +0.000 C 
ENDBRANCH  12  13
ENDBRANCH   2  12
TORSDOF 4
ENDMDL
MODEL 5
REMARK VINA RESULT:      -5.8      2.197      5.366
REMARK  Name = 
REMARK  8 active torsions:
REMARK  status: ('A' for Active; 'I' for Inactive)
REMARK    1  A    between atoms: C_1  and  C_2
REMARK    2  A    between atoms: C_2  and  N_3
REMARK    3  A    between atoms: N_3  and  C_11
REMARK    4  A    between atoms: C_4  and  O_6
REMARK    5  A    between atoms: O_6  and  C_7
REMARK    6  A    between atoms: C_7  and  C_8
REMARK    7  A    between atoms: C_7  and  C_9
REMARK    8  A    between atoms: C_7  and  C_10
REMARK                            x       y       z     vdW  Elec       q    Type
REMARK                         _______ _______ _______ _____ _____    ______ ____
ROOT
ATOM      1  N   UNL     1       3.797   5.276  18.561  0.00  0.00    +0.000 N 
ATOM      2  C   UNL     1       5.089   5.008  19.045  0.00  0.00    +0.000 C 
ATOM      3  O   UNL     1       5.426   3.934  19.527  0.00  0.00    +0.000 OA
ENDROOT
BRANCH   1   4
ATOM      4  C   UNL     1       2.690   4.431  18.947  0.00  0.00    +0.000 A 
ATOM      5  C   UNL     1       2.190   3.458  18.072  0.00  0.00    +0.000 A 
ATOM      6  C   UNL     1       1.144   2.641  18.476  0.00  0.00    +0.000 A 
ATOM      7  N   UNL     1       0.558   2.721  19.683  0.00  0.00    +0.000 NA
ATOM      8  C   UNL     1       1.048   3.655  20.522  0.00  0.00    +0.000 A 
ATOM      9  C   UNL     1       2.101   4.506  20.212  0.00  0.00    +0.000 A 
ENDBRANCH   1   4
BRANCH   1  11
ATOM     10  C   UNL     1       2.703   7.500  18.245  0.00  0.00    +0.000 C 
ATOM     11  C   UNL     1       3.559   6.392  17.641  0.00  0.00    +0.000 C 
ENDBRANCH   1  11
BRANCH   2  12
ATOM     12  O   UNL     1       5.941   6.076  18.966  0.00  0.00    +0.000 OA
BRANCH  12  13
ATOM     13  C   UNL     1       7.186   5.931  18.217  0.00  0.00    +0.000 C 
ATOM     14  C   UNL     1       7.569   7.244  17.522  0.00  0.00    +0.000 C 
ATOM     15  C   UNL     1       8.272   5.607  19.257  0.00  0.00    +0.000 C 
ATOM     16  C   UNL     1       7.129   4.752  17.233  0.00  0.00    +0.000 C 
ENDBRANCH  12  13
ENDBRANCH   2  12
TORSDOF 4
ENDMDL
MODEL 6
REMARK VINA RESULT:      -5.8      2.208      5.483
REMARK  Name = 
REMARK  8 active torsions:
REMARK  status: ('A' for Active; 'I' for Inactive)
REMARK    1  A    between atoms: C_1  and  C_2
REMARK    2  A    between atoms: C_2  and  N_3
REMARK    3  A    between atoms: N_3  and  C_11
REMARK    4  A    between atoms: C_4  and  O_6
REMARK    5  A    between atoms: O_6  and  C_7
REMARK    6  A    between atoms: C_7  and  C_8
REMARK    7  A    between atoms: C_7  and  C_9
REMARK    8  A    between atoms: C_7  and  C_10
REMARK                            x       y       z     vdW  Elec       q    Type
REMARK                         _______ _______ _______ _____ _____    ______ ____
ROOT
ATOM      1  N   UNL     1       3.814   5.238  18.566  0.00  0.00    +0.000 N 
ATOM      2  C   UNL     1       5.113   4.991  19.041  0.00  0.00    +0.000 C 
ATOM      3  O   UNL     1       5.472   3.921  19.518  0.00  0.00    +0.000 OA
ENDROOT
BRANCH   1   4
ATOM      4  C   UNL     1       2.724   4.373  18.957  0.00  0.00    +0.000 A 
ATOM      5  C   UNL     1       2.152   4.470  20.232  0.00  0.00    +0.000 A 
ATOM      6  C   UNL     1       1.089   3.646  20.573  0.00  0.00    +0.000 A 
ATOM      7  N   UNL     1       0.555   2.734  19.743  0.00  0.00    +0.000 NA
ATOM      8  C   UNL     1       1.106   2.650  18.517  0.00  0.00    +0.000 A 
ATOM      9  C   UNL     1       2.161   3.442  18.080  0.00  0.00    +0.000 A 
ENDBRANCH   1   4
BRANCH   1  11
ATOM     10  C   UNL     1       2.696   7.453  18.272  0.00  0.00    +0.000 C 
ATOM     11  C   UNL     1       3.551   6.353  17.651  0.00  0.00    +0.000 C 
ENDBRANCH   1  11
BRANCH   2  12
ATOM     12  O   UNL     1       5.947   6.074  18.961  0.00  0.00    +0.000 OA
BRANCH  12  13
ATOM     13  C   UNL     1       7.202   5.945  18.227  0.00  0.00    +0.000 C 
ATOM     14  C   UNL     1       7.581   7.264  17.542  0.00  0.00    +0.000 C 
ATOM     15  C   UNL     1       8.278   5.626  19.278  0.00  0.00    +0.000 C 
ATOM     16  C   UNL     1       7.169   4.769  17.236  0.00  0.00    +0.000 C 
ENDBRANCH  12  13
ENDBRANCH   2  12
TORSDOF 4
ENDMDL
MODEL 7
REMARK VINA RESULT:      -5.7      2.349      5.081
REMARK  Name = 
REMARK  8 active torsions:
REMARK  status: ('A' for Active; 'I' for Inactive)
REMARK    1  A    between atoms: C_1  and  C_2
REMARK    2  A    between atoms: C_2  and  N_3
REMARK    3  A    between atoms: N_3  and  C_11
REMARK    4  A    between atoms: C_4  and  O_6
REMARK    5  A    between atoms: O_6  and  C_7
REMARK    6  A    between atoms: C_7  and  C_8
REMARK    7  A    between atoms: C_7  and  C_9
REMARK    8  A    between atoms: C_7  and  C_10
REMARK                            x       y       z     vdW  Elec       q    Type
REMARK                         _______ _______ _______ _____ _____    ______ ____
ROOT
ATOM      1  N   UNL     1       4.487   3.809  18.566  0.00  0.00    +0.000 N 
ATOM      2  C   UNL     1       5.653   4.591  18.626  0.00  0.00    +0.000 C 
ATOM      3  O   UNL     1       6.210   4.903  19.670  0.00  0.00    +0.000 OA
ENDROOT
BRANCH   1   4
ATOM      4  C   UNL     1       3.665   3.644  19.743  0.00  0.00    +0.000 A 
ATOM      5  C   UNL     1       2.847   4.687  20.198  0.00  0.00    +0.000 A 
ATOM      6  C   UNL     1       2.047   4.495  21.315  0.00  0.00    +0.000 A 
ATOM      7  N   UNL     1       2.000   3.347  22.012  0.00  0.00    +0.000 NA
ATOM      8  C   UNL     1       2.784   2.347  21.565  0.00  0.00    +0.000 A 
ATOM      9  C   UNL     1       3.606   2.440  20.449  0.00  0.00    +0.000 A 
ENDBRANCH   1   4
BRANCH   1  11
ATOM     10  C   UNL     1       2.623   3.271  16.992  0.00  0.00    +0.000 C 
ATOM     11  C   UNL     1       4.104   3.129  17.324  0.00  0.00    +0.000 C 
ENDBRANCH   1  11
BRANCH   2  12
ATOM     12  O   UNL     1       6.100   5.012  17.402  0.00  0.00    +0.000 OA
BRANCH  12  13
ATOM     13  C   UNL     1       5.747   6.353  16.946  0.00  0.00    +0.000 C 
ATOM     14  C   UNL     1       6.892   7.342  17.198  0.00  0.00    +0.000 C 
ATOM     15  C   UNL     1       5.537   6.243  15.426  0.00  0.00    +0.000 C 
ATOM     16  C   UNL     1       4.422   6.837  17.557  0.00  0.00    +0.000 C 
ENDBRANCH  12  13
ENDBRANCH   2  12
TORSDOF 4
ENDMDL
MODEL 8
REMARK VINA RESULT:      -5.6      1.744      2.466
REMARK  Name = 
REMARK  8 active torsions:
REMARK  status: ('A' for Active; 'I' for Inactive)
REMARK    1  A    between atoms: C_1  and  C_2
REMARK    2  A    between atoms: C_2  and  N_3
REMARK    3  A    between atoms: N_3  and  C_11
REMARK    4  A    between atoms: C_4  and  O_6
REMARK    5  A    between atoms: O_6  and  C_7
REMARK    6  A    between atoms: C_7  and  C_8
REMARK    7  A    between atoms: C_7  and  C_9
REMARK    8  A    between atoms: C_7  and  C_10
REMARK                            x       y       z     vdW  Elec       q    Type
REMARK                         _______ _______ _______ _____ _____    ______ ____
ROOT
ATOM      1  N   UNL     1       4.407   5.059  17.592  0.00  0.00    +0.000 N 
ATOM      2  C   UNL     1       3.233   5.393  18.288  0.00  0.00    +0.000 C 
ATOM      3  O   UNL     1       3.100   6.417  18.946  0.00  0.00    +0.000 OA
ENDROOT
BRANCH   1   4
ATOM      4  C   UNL     1       5.653   5.715  17.918  0.00  0.00    +0.000 A 
ATOM      5  C   UNL     1       6.467   5.236  18.952  0.00  0.00    +0.000 A 
ATOM      6  C   UNL     1       7.671   5.867  19.228  0.00  0.00    +0.000 A 
ATOM      7  N   UNL     1       8.124   6.938  18.554  0.00  0.00    +0.000 NA
ATOM      8  C   UNL     1       7.339   7.390  17.557  0.00  0.00    +0.000 A 
ATOM      9  C   UNL     1       6.126   6.815  17.197  0.00  0.00    +0.000 A 
ENDBRANCH   1   4
BRANCH   1  11
ATOM     10  C   UNL     1       5.727   3.898  15.816  0.00  0.00    +0.000 C 
ATOM     11  C   UNL     1       4.381   4.067  16.512  0.00  0.00    +0.000 C 
ENDBRANCH   1  11
BRANCH   2  12
ATOM     12  O   UNL     1       2.248   4.446  18.198  0.00  0.00    +0.000 OA
BRANCH  12  13
ATOM     13  C   UNL     1       2.010   3.567  19.339  0.00  0.00    +0.000 C 
ATOM     14  C   UNL     1       1.064   4.221  20.354  0.00  0.00    +0.000 C 
ATOM     15  C   UNL     1       1.314   2.317  18.775  0.00  0.00    +0.000 C 
ATOM     16  C   UNL     1       3.324   3.103  19.991  0.00  0.00    +0.000 C 
ENDBRANCH  12  13
ENDBRANCH   2  12
TORSDOF 4
ENDMDL
MODEL 9
REMARK VINA RESULT:      -5.6      2.348      5.098
REMARK  Name = 
REMARK  8 active torsions:
REMARK  status: ('A' for Active; 'I' for Inactive)
REMARK    1  A    between atoms: C_1  and  C_2
REMARK    2  A    between atoms: C_2  and  N_3
REMARK    3  A    between atoms: N_3  and  C_11
REMARK    4  A    between atoms: C_4  and  O_6
REMARK    5  A    between atoms: O_6  and  C_7
REMARK    6  A    between atoms: C_7  and  C_8
REMARK    7  A    between atoms: C_7  and  C_9
REMARK    8  A    between atoms: C_7  and  C_10
REMARK                            x       y       z     vdW  Elec       q    Type
REMARK                         _______ _______ _______ _____ _____    ______ ____
ROOT
ATOM      1  N   UNL     1       4.472   3.826  18.552  0.00  0.00    +0.000 N 
ATOM      2  C   UNL     1       5.643   4.598  18.635  0.00  0.00    +0.000 C 
ATOM      3  O   UNL     1       6.182   4.904  19.690  0.00  0.00    +0.000 OA
ENDROOT
BRANCH   1   4
ATOM      4  C   UNL     1       3.626   3.667  19.713  0.00  0.00    +0.000 A 
ATOM      5  C   UNL     1       3.610   2.464  20.431  0.00  0.00    +0.000 A 
ATOM      6  C   UNL     1       2.810   2.346  21.558  0.00  0.00    +0.000 A 
ATOM      7  N   UNL     1       2.024   3.332  22.022  0.00  0.00    +0.000 NA
ATOM      8  C   UNL     1       2.048   4.488  21.330  0.00  0.00    +0.000 A 
ATOM      9  C   UNL     1       2.828   4.705  20.201  0.00  0.00    +0.000 A 
ENDBRANCH   1   4
BRANCH   1  11
ATOM     10  C   UNL     1       2.619   3.246  16.978  0.00  0.00    +0.000 C 
ATOM     11  C   UNL     1       4.106   3.151  17.303  0.00  0.00    +0.000 C 
ENDBRANCH   1  11
BRANCH   2  12
ATOM     12  O   UNL     1       6.116   5.016  17.420  0.00  0.00    +0.000 OA
BRANCH  12  13
ATOM     13  C   UNL     1       5.768   6.354  16.951  0.00  0.00    +0.000 C 
ATOM     14  C   UNL     1       6.918   7.340  17.190  0.00  0.00    +0.000 C 
ATOM     15  C   UNL     1       5.554   6.230  15.433  0.00  0.00    +0.000 C 
ATOM     16  C   UNL     1       4.446   6.850  17.560  0.00  0.00    +0.000 C 
ENDBRANCH  12  13
ENDBRANCH   2  12
TORSDOF 4
ENDMDL
