MODEL 1
REMARK VINA RESULT:      -7.8      0.000      0.000
REMARK  Name = 
REMARK  8 active torsions:
REMARK  status: ('A' for Active; 'I' for Inactive)
REMARK    1  A    between atoms: C_1  and  C_2
REMARK    2  A    between atoms: C_2  and  C_3
REMARK    3  A    between atoms: C_2  and  N_4
REMARK    4  A    between atoms: N_4  and  C_5
REMARK    5  A    between atoms: C_9  and  C_10
REMARK    6  A    between atoms: C_16  and  N_17
REMARK    7  A    between atoms: C_20  and  O_21
REMARK    8  A    between atoms: O_21  and  C_22
REMARK                            x       y       z     vdW  Elec       q    Type
REMARK                         _______ _______ _______ _____ _____    ______ ____
ROOT
ATOM      1  C   UNL     1       2.514   6.035  19.910  0.00  0.00    +0.000 A 
ATOM      2  N   UNL     1       1.762   6.774  20.768  0.00  0.00    +0.000 NA
ATOM      3  C   UNL     1       1.438   8.025  20.403  0.00  0.00    +0.000 A 
ATOM      4  C   UNL     1       0.607   8.779  21.216  0.00  0.00    +0.000 A 
ATOM      5  C   UNL     1       0.238  10.051  20.806  0.00  0.00    +0.000 A 
ATOM      6  N   UNL     1       0.671  10.611  19.657  0.00  0.00    +0.000 NA
ATOM      7  C   UNL     1       1.490   9.851  18.892  0.00  0.00    +0.000 A 
ATOM      8  C   UNL     1       1.894   8.565  19.193  0.00  0.00    +0.000 A 
ATOM      9  N   UNL     1       2.668   7.863  18.349  0.00  0.00    +0.000 NA
ATOM     10  C   UNL     1       3.003   6.594  18.686  0.00  0.00    +0.000 A 
ENDROOT
BRANCH  10  11
ATOM     11  N   UNL     1       3.788   5.936  17.753  0.00  0.00    +0.000 N 
ATOM     12  C   UNL     1       3.383   4.702  17.105  0.00  0.00    +0.000 C 
ATOM     13  C   UNL     1       4.601   3.813  16.924  0.00  0.00    +0.000 C 
ATOM     14  C   UNL     1       5.688   4.524  16.110  0.00  0.00    +0.000 C 
ATOM     15  C   UNL     1       6.079   5.808  16.852  0.00  0.00    +0.000 C 
ATOM     16  C   UNL     1       4.869   6.705  17.126  0.00  0.00    +0.000 C 
BRANCH  14  17
ATOM     17  O   UNL     1       5.228   4.889  14.797  0.00  0.00    +0.000 OA
BRANCH  17  18
ATOM     18  C   UNL     1       5.713   4.182  13.729  0.00  0.00    +0.000 A 
ATOM     19  C   UNL     1       4.968   3.275  12.971  0.00  0.00    +0.000 A 
ATOM     20  C   UNL     1       5.540   2.629  11.876  0.00  0.00    +0.000 A 
ATOM     21  C   UNL     1       6.866   2.876  11.546  0.00  0.00    +0.000 A 
ATOM     22  F   UNL     1       7.411   2.234  10.506  0.00  0.00    +0.000 F 
ATOM     23  C   UNL     1       7.626   3.776  12.278  0.00  0.00    +0.000 A 
ATOM     24  C   UNL     1       7.041   4.432  13.357  0.00  0.00    +0.000 A 
ATOM     25  F   UNL     1       7.784   5.306  14.052  0.00  0.00    +0.000 F 
ENDBRANCH  17  18
ENDBRANCH  14  17
ENDBRANCH  10  11
BRANCH   1  26
ATOM     26  N   UNL     1       2.775   4.685  20.251  0.00  0.00    +0.000 N 
ATOM     27  H   UNL     1       3.172   4.253  19.422  0.00  0.00    +0.000 HD
BRANCH  26  29
ATOM     28  C   UNL     1       1.023   3.130  19.519  0.00  0.00    +0.000 C 
ATOM     29  C   UNL     1       1.626   3.891  20.705  0.00  0.00    +0.000 C 
ATOM     30  C   UNL     1       2.125   2.880  21.744  0.00  0.00    +0.000 C 
ENDBRANCH  26  29
ENDBRANCH   1  26
BRANCH   5  31
ATOM     31  C   UNL     1      -0.681  10.838  21.585  0.00  0.00    +0.000 C 
ATOM     32  N   UNL     1      -1.398  11.465  22.243  0.00  0.00    +0.000 NA
ENDBRANCH   5  31
TORSDOF 6
ENDMDL
MODEL 2
REMARK VINA RESULT:      -7.3      4.201      6.765
REMARK  Name = 
REMARK  8 active torsions:
REMARK  status: ('A' for Active; 'I' for Inactive)
REMARK    1  A    between atoms: C_1  and  C_2
REMARK    2  A    between atoms: C_2  and  C_3
REMARK    3  A    between atoms: C_2  and  N_4
REMARK    4  A    between atoms: N_4  and  C_5
REMARK    5  A    between atoms: C_9  and  C_10
REMARK    6  A    between atoms: C_16  and  N_17
REMARK    7  A    between atoms: C_20  and  O_21
REMARK    8  A    between atoms: O_21  and  C_22
REMARK                            x       y       z     vdW  Elec       q    Type
REMARK                         _______ _______ _______ _____ _____    ______ ____
ROOT
ATOM      1  C   UNL     1      -0.491  11.331  18.223  0.00  0.00    +0.000 A 
ATOM      2  N   UNL     1      -0.901  12.628  18.221  0.00  0.00    +0.000 NA
ATOM      3  C   UNL     1      -0.095  13.543  18.782  0.00  0.00    +0.000 A 
ATOM      4  C   UNL     1      -0.443  14.883  18.727  0.00  0.00    +0.000 A 
ATOM      5  C   UNL     1       0.421  15.824  19.266  0.00  0.00    +0.000 A 
ATOM      6  N   UNL     1       1.582  15.501  19.872  0.00  0.00    +0.000 NA
ATOM      7  C   UNL     1       1.886  14.181  19.917  0.00  0.00    +0.000 A 
ATOM      8  C   UNL     1       1.112  13.168  19.386  0.00  0.00    +0.000 A 
ATOM      9  N   UNL     1       1.516  11.887  19.431  0.00  0.00    +0.000 NA
ATOM     10  C   UNL     1       0.729  10.943  18.863  0.00  0.00    +0.000 A 
ENDROOT
BRANCH  10  11
ATOM     11  N   UNL     1       1.228   9.653  18.938  0.00  0.00    +0.000 N 
ATOM     12  C   UNL     1       0.824   8.704  19.959  0.00  0.00    +0.000 C 
ATOM     13  C   UNL     1       2.025   7.867  20.364  0.00  0.00    +0.000 C 
ATOM     14  C   UNL     1       2.625   7.142  19.155  0.00  0.00    +0.000 C 
ATOM     15  C   UNL     1       3.041   8.196  18.121  0.00  0.00    +0.000 C 
ATOM     16  C   UNL     1       1.880   9.116  17.738  0.00  0.00    +0.000 C 
BRANCH  14  17
ATOM     17  O   UNL     1       1.679   6.256  18.532  0.00  0.00    +0.000 OA
BRANCH  17  18
ATOM     18  C   UNL     1       1.994   4.925  18.468  0.00  0.00    +0.000 A 
ATOM     19  C   UNL     1       2.786   4.341  17.476  0.00  0.00    +0.000 A 
ATOM     20  C   UNL     1       3.082   2.979  17.516  0.00  0.00    +0.000 A 
ATOM     21  C   UNL     1       2.571   2.192  18.540  0.00  0.00    +0.000 A 
ATOM     22  F   UNL     1       2.844   0.883  18.556  0.00  0.00    +0.000 F 
ATOM     23  C   UNL     1       1.788   2.747  19.541  0.00  0.00    +0.000 A 
ATOM     24  C   UNL     1       1.514   4.112  19.504  0.00  0.00    +0.000 A 
ATOM     25  F   UNL     1       0.762   4.638  20.482  0.00  0.00    +0.000 F 
ENDBRANCH  17  18
ENDBRANCH  14  17
ENDBRANCH  10  11
BRANCH   1  26
ATOM     26  N   UNL     1      -1.295  10.381  17.547  0.00  0.00    +0.000 N 
ATOM     27  H   UNL     1      -0.759  10.075  16.740  0.00  0.00    +0.000 HD
BRANCH  26  29
ATOM     28  C   UNL     1      -2.714  10.730  15.574  0.00  0.00    +0.000 C 
ATOM     29  C   UNL     1      -2.617  10.841  17.099  0.00  0.00    +0.000 C 
ATOM     30  C   UNL     1      -3.677   9.934  17.734  0.00  0.00    +0.000 C 
ENDBRANCH  26  29
ENDBRANCH   1  26
BRANCH   5  31
ATOM     31  C   UNL     1       0.132  17.231  19.166  0.00  0.00    +0.000 C 
ATOM     32  N   UNL     1      -0.062  18.368  19.080  0.00  0.00    +0.000 NA
ENDBRANCH   5  31
TORSDOF 6
ENDMDL
MODEL 3
REMARK VINA RESULT:      -7.2      1.196      1.490
REMARK  Name = 
REMARK  8 active torsions:
REMARK  status: ('A' for Active; 'I' for Inactive)
REMARK    1  A    between atoms: C_1  and  C_2
REMARK    2  A    between atoms: C_2  and  C_3
REMARK    3  A    between atoms: C_2  and  N_4
REMARK    4  A    between atoms: N_4  and  C_5
REMARK    5  A    between atoms: C_9  and  C_10
REMARK    6  A    between atoms: C_16  and  N_17
REMARK    7  A    between atoms: C_20  and  O_21
REMARK    8  A    between atoms: O_21  and  C_22
REMARK                            x       y       z     vdW  Elec       q    Type
REMARK                         _______ _______ _______ _____ _____    ______ ____
ROOT
ATOM      1  C   UNL     1       2.073   6.245  20.589  0.00  0.00    +0.000 A 
ATOM      2  N   UNL     1       1.297   7.167  21.217  0.00  0.00    +0.000 NA
ATOM      3  C   UNL     1       1.092   8.342  20.601  0.00  0.00    +0.000 A 
ATOM      4  C   UNL     1       0.242   9.274  21.174  0.00  0.00    +0.000 A 
ATOM      5  C   UNL     1      -0.002  10.464  20.504  0.00  0.00    +0.000 A 
ATOM      6  N   UNL     1       0.571  10.778  19.324  0.00  0.00    +0.000 NA
ATOM      7  C   UNL     1       1.405   9.849  18.797  0.00  0.00    +0.000 A 
ATOM      8  C   UNL     1       1.692   8.623  19.366  0.00  0.00    +0.000 A 
ATOM      9  N   UNL     1       2.493   7.740  18.747  0.00  0.00    +0.000 NA
ATOM     10  C   UNL     1       2.709   6.541  19.341  0.00  0.00    +0.000 A 
ENDROOT
BRANCH  10  11
ATOM     11  N   UNL     1       3.531   5.683  18.628  0.00  0.00    +0.000 N 
ATOM     12  C   UNL     1       3.509   5.585  17.180  0.00  0.00    +0.000 C 
ATOM     13  C   UNL     1       3.728   4.137  16.776  0.00  0.00    +0.000 C 
ATOM     14  C   UNL     1       5.049   3.601  17.338  0.00  0.00    +0.000 C 
ATOM     15  C   UNL     1       5.003   3.721  18.867  0.00  0.00    +0.000 C 
ATOM     16  C   UNL     1       4.708   5.150  19.323  0.00  0.00    +0.000 C 
BRANCH  14  17
ATOM     17  O   UNL     1       6.181   4.351  16.866  0.00  0.00    +0.000 OA
BRANCH  17  18
ATOM     18  C   UNL     1       6.443   4.338  15.522  0.00  0.00    +0.000 A 
ATOM     19  C   UNL     1       5.883   3.440  14.610  0.00  0.00    +0.000 A 
ATOM     20  C   UNL     1       6.183   3.529  13.252  0.00  0.00    +0.000 A 
ATOM     21  C   UNL     1       7.059   4.508  12.802  0.00  0.00    +0.000 A 
ATOM     22  F   UNL     1       7.356   4.570  11.499  0.00  0.00    +0.000 F 
ATOM     23  C   UNL     1       7.624   5.416  13.685  0.00  0.00    +0.000 A 
ATOM     24  C   UNL     1       7.303   5.333  15.036  0.00  0.00    +0.000 A 
ATOM     25  F   UNL     1       7.850   6.222  15.879  0.00  0.00    +0.000 F 
ENDBRANCH  17  18
ENDBRANCH  14  17
ENDBRANCH  10  11
BRANCH   1  26
ATOM     26  N   UNL     1       2.211   4.972  21.194  0.00  0.00    +0.000 N 
ATOM     27  H   UNL     1       3.097   4.595  20.869  0.00  0.00    +0.000 HD
BRANCH  26  29
ATOM     28  C   UNL     1       1.123   3.662  19.426  0.00  0.00    +0.000 C 
ATOM     29  C   UNL     1       1.146   3.998  20.921  0.00  0.00    +0.000 C 
ATOM     30  C   UNL     1       1.451   2.722  21.715  0.00  0.00    +0.000 C 
ENDBRANCH  26  29
ENDBRANCH   1  26
BRANCH   5  31
ATOM     31  C   UNL     1      -0.934  11.426  21.029  0.00  0.00    +0.000 C 
ATOM     32  N   UNL     1      -1.673  12.189  21.488  0.00  0.00    +0.000 NA
ENDBRANCH   5  31
TORSDOF 6
ENDMDL
MODEL 4
REMARK VINA RESULT:      -7.2      3.795      6.294
REMARK  Name = 
REMARK  8 active torsions:
REMARK  status: ('A' for Active; 'I' for Inactive)
REMARK    1  A    between atoms: C_1  and  C_2
REMARK    2  A    between atoms: C_2  and  C_3
REMARK    3  A    between atoms: C_2  and  N_4
REMARK    4  A    between atoms: N_4  and  C_5
REMARK    5  A    between atoms: C_9  and  C_10
REMARK    6  A    between atoms: C_16  and  N_17
REMARK    7  A    between atoms: C_20  and  O_21
REMARK    8  A    between atoms: O_21  and  C_22
REMARK                            x       y       z     vdW  Elec       q    Type
REMARK                         _______ _______ _______ _____ _____    ______ ____
ROOT
ATOM      1  C   UNL     1      -0.518  11.059  18.178  0.00  0.00    +0.000 A 
ATOM      2  N   UNL     1      -1.019  12.321  18.251  0.00  0.00    +0.000 NA
ATOM      3  C   UNL     1      -0.321  13.236  18.942  0.00  0.00    +0.000 A 
ATOM      4  C   UNL     1      -0.759  14.550  18.970  0.00  0.00    +0.000 A 
ATOM      5  C   UNL     1      -0.004  15.496  19.646  0.00  0.00    +0.000 A 
ATOM      6  N   UNL     1       1.134  15.199  20.308  0.00  0.00    +0.000 NA
ATOM      7  C   UNL     1       1.527  13.903  20.268  0.00  0.00    +0.000 A 
ATOM      8  C   UNL     1       0.866  12.890  19.602  0.00  0.00    +0.000 A 
ATOM      9  N   UNL     1       1.357  11.640  19.573  0.00  0.00    +0.000 NA
ATOM     10  C   UNL     1       0.680  10.698  18.873  0.00  0.00    +0.000 A 
ENDROOT
BRANCH  10  11
ATOM     11  N   UNL     1       1.264   9.442  18.881  0.00  0.00    +0.000 N 
ATOM     12  C   UNL     1       0.932   8.419  19.855  0.00  0.00    +0.000 C 
ATOM     13  C   UNL     1       2.189   7.644  20.211  0.00  0.00    +0.000 C 
ATOM     14  C   UNL     1       2.826   7.022  18.964  0.00  0.00    +0.000 C 
ATOM     15  C   UNL     1       3.162   8.151  17.982  0.00  0.00    +0.000 C 
ATOM     16  C   UNL     1       1.940   9.010  17.652  0.00  0.00    +0.000 C 
BRANCH  14  17
ATOM     17  O   UNL     1       1.935   6.107  18.302  0.00  0.00    +0.000 OA
BRANCH  17  18
ATOM     18  C   UNL     1       2.221   4.769  18.372  0.00  0.00    +0.000 A 
ATOM     19  C   UNL     1       1.506   3.841  19.132  0.00  0.00    +0.000 A 
ATOM     20  C   UNL     1       1.852   2.491  19.111  0.00  0.00    +0.000 A 
ATOM     21  C   UNL     1       2.928   2.067  18.342  0.00  0.00    +0.000 A 
ATOM     22  F   UNL     1       3.264   0.772  18.346  0.00  0.00    +0.000 F 
ATOM     23  C   UNL     1       3.651   2.967  17.573  0.00  0.00    +0.000 A 
ATOM     24  C   UNL     1       3.286   4.310  17.585  0.00  0.00    +0.000 A 
ATOM     25  F   UNL     1       3.988   5.169  16.831  0.00  0.00    +0.000 F 
ENDBRANCH  17  18
ENDBRANCH  14  17
ENDBRANCH  10  11
BRANCH   1  26
ATOM     26  N   UNL     1      -1.204  10.119  17.370  0.00  0.00    +0.000 N 
ATOM     27  H   UNL     1      -0.615   9.956  16.559  0.00  0.00    +0.000 HD
BRANCH  26  29
ATOM     28  C   UNL     1      -2.711  10.160  15.433  0.00  0.00    +0.000 C 
ATOM     29  C   UNL     1      -2.548  10.502  16.918  0.00  0.00    +0.000 C 
ATOM     30  C   UNL     1      -3.571   9.699  17.729  0.00  0.00    +0.000 C 
ENDBRANCH  26  29
ENDBRANCH   1  26
BRANCH   5  31
ATOM     31  C   UNL     1      -0.385  16.884  19.638  0.00  0.00    +0.000 C 
ATOM     32  N   UNL     1      -0.675  18.004  19.597  0.00  0.00    +0.000 NA
ENDBRANCH   5  31
TORSDOF 6
ENDMDL
MODEL 5
REMARK VINA RESULT:      -7.1      0.982      1.314
REMARK  Name = 
REMARK  8 active torsions:
REMARK  status: ('A' for Active; 'I' for Inactive)
REMARK    1  A    between atoms: C_1  and  C_2
REMARK    2  A    between atoms: C_2  and  C_3
REMARK    3  A    between atoms: C_2  and  N_4
REMARK    4  A    between atoms: N_4  and  C_5
REMARK    5  A    between atoms: C_9  and  C_10
REMARK    6  A    between atoms: C_16  and  N_17
REMARK    7  A    between atoms: C_20  and  O_21
REMARK    8  A    between atoms: O_21  and  C_22
REMARK                            x       y       z     vdW  Elec       q    Type
REMARK                         _______ _______ _______ _____ _____    ______ ____
ROOT
ATOM      1  C   UNL     1       2.227   5.946  20.306  0.00  0.00    +0.000 A 
ATOM      2  N   UNL     1       1.487   6.670  21.186  0.00  0.00    +0.000 NA
ATOM      3  C   UNL     1       1.203   7.944  20.871  0.00  0.00    +0.000 A 
ATOM      4  C   UNL     1       0.385   8.688  21.705  0.00  0.00    +0.000 A 
ATOM      5  C   UNL     1       0.058   9.986  21.345  0.00  0.00    +0.000 A 
ATOM      6  N   UNL     1       0.520  10.580  20.225  0.00  0.00    +0.000 NA
ATOM      7  C   UNL     1       1.326   9.829  19.438  0.00  0.00    +0.000 A 
ATOM      8  C   UNL     1       1.689   8.520  19.689  0.00  0.00    +0.000 A 
ATOM      9  N   UNL     1       2.453   7.831  18.825  0.00  0.00    +0.000 NA
ATOM     10  C   UNL     1       2.746   6.540  19.112  0.00  0.00    +0.000 A 
ENDROOT
BRANCH  10  11
ATOM     11  N   UNL     1       3.523   5.899  18.160  0.00  0.00    +0.000 N 
ATOM     12  C   UNL     1       3.050   4.769  17.381  0.00  0.00    +0.000 C 
ATOM     13  C   UNL     1       4.195   3.792  17.176  0.00  0.00    +0.000 C 
ATOM     14  C   UNL     1       5.383   4.470  16.487  0.00  0.00    +0.000 C 
ATOM     15  C   UNL     1       5.842   5.642  17.363  0.00  0.00    +0.000 C 
ATOM     16  C   UNL     1       4.701   6.617  17.662  0.00  0.00    +0.000 C 
BRANCH  14  17
ATOM     17  O   UNL     1       5.032   4.991  15.193  0.00  0.00    +0.000 OA
BRANCH  17  18
ATOM     18  C   UNL     1       5.806   4.625  14.124  0.00  0.00    +0.000 A 
ATOM     19  C   UNL     1       7.104   5.085  13.887  0.00  0.00    +0.000 A 
ATOM     20  C   UNL     1       7.827   4.627  12.786  0.00  0.00    +0.000 A 
ATOM     21  C   UNL     1       7.248   3.719  11.910  0.00  0.00    +0.000 A 
ATOM     22  F   UNL     1       7.944   3.302  10.846  0.00  0.00    +0.000 F 
ATOM     23  C   UNL     1       5.964   3.242  12.125  0.00  0.00    +0.000 A 
ATOM     24  C   UNL     1       5.256   3.690  13.237  0.00  0.00    +0.000 A 
ATOM     25  F   UNL     1       4.017   3.215  13.439  0.00  0.00    +0.000 F 
ENDBRANCH  17  18
ENDBRANCH  14  17
ENDBRANCH  10  11
BRANCH   1  26
ATOM     26  N   UNL     1       2.445   4.576  20.593  0.00  0.00    +0.000 N 
ATOM     27  H   UNL     1       2.965   4.198  19.807  0.00  0.00    +0.000 HD
BRANCH  26  29
ATOM     28  C   UNL     1       0.824   3.090  19.503  0.00  0.00    +0.000 C 
ATOM     29  C   UNL     1       1.248   3.755  20.817  0.00  0.00    +0.000 C 
ATOM     30  C   UNL     1       1.600   2.665  21.836  0.00  0.00    +0.000 C 
ENDBRANCH  26  29
ENDBRANCH   1  26
BRANCH   5  31
ATOM     31  C   UNL     1      -0.847  10.767  22.146  0.00  0.00    +0.000 C 
ATOM     32  N   UNL     1      -1.604  11.375  22.775  0.00  0.00    +0.000 NA
ENDBRANCH   5  31
TORSDOF 6
ENDMDL
MODEL 6
REMARK VINA RESULT:      -7.0      4.858      9.874
REMARK  Name = 
REMARK  8 active torsions:
REMARK  status: ('A' for Active; 'I' for Inactive)
REMARK    1  A    between atoms: C_1  and  C_2
REMARK    2  A    between atoms: C_2  and  C_3
REMARK    3  A    between atoms: C_2  and  N_4
REMARK    4  A    between atoms: N_4  and  C_5
REMARK    5  A    between atoms: C_9  and  C_10
REMARK    6  A    between atoms: C_16  and  N_17
REMARK    7  A    between atoms: C_20  and  O_21
REMARK    8  A    between atoms: O_21  and  C_22
REMARK                            x       y       z     vdW  Elec       q    Type
REMARK                         _______ _______ _______ _____ _____    ______ ____
ROOT
ATOM      1  C   UNL     1       2.584   5.783  19.294  0.00  0.00    +0.000 A 
ATOM      2  N   UNL     1       3.350   4.995  18.494  0.00  0.00    +0.000 NA
ATOM      3  C   UNL     1       3.998   5.576  17.472  0.00  0.00    +0.000 A 
ATOM      4  C   UNL     1       4.850   4.819  16.684  0.00  0.00    +0.000 A 
ATOM      5  C   UNL     1       5.552   5.440  15.663  0.00  0.00    +0.000 A 
ATOM      6  N   UNL     1       5.429   6.752  15.373  0.00  0.00    +0.000 NA
ATOM      7  C   UNL     1       4.580   7.460  16.156  0.00  0.00    +0.000 A 
ATOM      8  C   UNL     1       3.857   6.947  17.215  0.00  0.00    +0.000 A 
ATOM      9  N   UNL     1       3.076   7.735  17.971  0.00  0.00    +0.000 NA
ATOM     10  C   UNL     1       2.418   7.178  19.017  0.00  0.00    +0.000 A 
ENDROOT
BRANCH  10  11
ATOM     11  N   UNL     1       1.650   8.064  19.755  0.00  0.00    +0.000 N 
ATOM     12  C   UNL     1       1.510   7.981  21.197  0.00  0.00    +0.000 C 
ATOM     13  C   UNL     1       0.090   8.360  21.581  0.00  0.00    +0.000 C 
ATOM     14  C   UNL     1      -0.261   9.764  21.080  0.00  0.00    +0.000 C 
ATOM     15  C   UNL     1      -0.106   9.782  19.554  0.00  0.00    +0.000 C 
ATOM     16  C   UNL     1       1.289   9.333  19.113  0.00  0.00    +0.000 C 
BRANCH  14  17
ATOM     17  O   UNL     1       0.610  10.768  21.629  0.00  0.00    +0.000 OA
BRANCH  17  18
ATOM     18  C   UNL     1       0.087  12.011  21.866  0.00  0.00    +0.000 A 
ATOM     19  C   UNL     1       0.473  13.177  21.201  0.00  0.00    +0.000 A 
ATOM     20  C   UNL     1      -0.144  14.394  21.487  0.00  0.00    +0.000 A 
ATOM     21  C   UNL     1      -1.139  14.451  22.454  0.00  0.00    +0.000 A 
ATOM     22  F   UNL     1      -1.710  15.628  22.736  0.00  0.00    +0.000 F 
ATOM     23  C   UNL     1      -1.546  13.307  23.125  0.00  0.00    +0.000 A 
ATOM     24  C   UNL     1      -0.938  12.093  22.819  0.00  0.00    +0.000 A 
ATOM     25  F   UNL     1      -1.346  10.993  23.469  0.00  0.00    +0.000 F 
ENDBRANCH  17  18
ENDBRANCH  14  17
ENDBRANCH  10  11
BRANCH   1  26
ATOM     26  N   UNL     1       1.979   5.188  20.427  0.00  0.00    +0.000 N 
ATOM     27  H   UNL     1       2.489   5.530  21.237  0.00  0.00    +0.000 HD
BRANCH  26  29
ATOM     28  C   UNL     1       2.128   3.232  21.903  0.00  0.00    +0.000 C 
ATOM     29  C   UNL     1       1.953   3.719  20.461  0.00  0.00    +0.000 C 
ATOM     30  C   UNL     1       0.589   3.254  19.939  0.00  0.00    +0.000 C 
ENDBRANCH  26  29
ENDBRANCH   1  26
BRANCH   5  31
ATOM     31  C   UNL     1       6.501   4.704  14.869  0.00  0.00    +0.000 C 
ATOM     32  N   UNL     1       7.263   4.141  14.205  0.00  0.00    +0.000 NA
ENDBRANCH   5  31
TORSDOF 6
ENDMDL
MODEL 7
REMARK VINA RESULT:      -7.0      4.348      9.564
REMARK  Name = 
REMARK  8 active torsions:
REMARK  status: ('A' for Active; 'I' for Inactive)
REMARK    1  A    between atoms: C_1  and  C_2
REMARK    2  A    between atoms: C_2  and  C_3
REMARK    3  A    between atoms: C_2  and  N_4
REMARK    4  A    between atoms: N_4  and  C_5
REMARK    5  A    between atoms: C_9  and  C_10
REMARK    6  A    between atoms: C_16  and  N_17
REMARK    7  A    between atoms: C_20  and  O_21
REMARK    8  A    between atoms: O_21  and  C_22
REMARK                            x       y       z     vdW  Elec       q    Type
REMARK                         _______ _______ _______ _____ _____    ______ ____
ROOT
ATOM      1  C   UNL     1       2.505   5.774  19.251  0.00  0.00    +0.000 A 
ATOM      2  N   UNL     1       3.236   4.971  18.434  0.00  0.00    +0.000 NA
ATOM      3  C   UNL     1       3.915   5.545  17.429  0.00  0.00    +0.000 A 
ATOM      4  C   UNL     1       4.735   4.767  16.627  0.00  0.00    +0.000 A 
ATOM      5  C   UNL     1       5.470   5.379  15.623  0.00  0.00    +0.000 A 
ATOM      6  N   UNL     1       5.410   6.701  15.364  0.00  0.00    +0.000 NA
ATOM      7  C   UNL     1       4.591   7.430  16.160  0.00  0.00    +0.000 A 
ATOM      8  C   UNL     1       3.840   6.926  17.204  0.00  0.00    +0.000 A 
ATOM      9  N   UNL     1       3.093   7.732  17.976  0.00  0.00    +0.000 NA
ATOM     10  C   UNL     1       2.405   7.181  19.006  0.00  0.00    +0.000 A 
ENDROOT
BRANCH  10  11
ATOM     11  N   UNL     1       1.675   8.084  19.762  0.00  0.00    +0.000 N 
ATOM     12  C   UNL     1       1.603   8.030  21.211  0.00  0.00    +0.000 C 
ATOM     13  C   UNL     1       0.204   8.422  21.654  0.00  0.00    +0.000 C 
ATOM     14  C   UNL     1      -0.166   9.818  21.143  0.00  0.00    +0.000 C 
ATOM     15  C   UNL     1      -0.082   9.806  19.611  0.00  0.00    +0.000 C 
ATOM     16  C   UNL     1       1.288   9.342  19.113  0.00  0.00    +0.000 C 
BRANCH  14  17
ATOM     17  O   UNL     1       0.734  10.828  21.630  0.00  0.00    +0.000 OA
BRANCH  17  18
ATOM     18  C   UNL     1       0.287  12.122  21.666  0.00  0.00    +0.000 A 
ATOM     19  C   UNL     1      -0.789  12.571  22.437  0.00  0.00    +0.000 A 
ATOM     20  C   UNL     1      -1.148  13.918  22.435  0.00  0.00    +0.000 A 
ATOM     21  C   UNL     1      -0.442  14.819  21.648  0.00  0.00    +0.000 A 
ATOM     22  F   UNL     1      -0.809  16.105  21.638  0.00  0.00    +0.000 F 
ATOM     23  C   UNL     1       0.634  14.401  20.879  0.00  0.00    +0.000 A 
ATOM     24  C   UNL     1       0.998  13.057  20.902  0.00  0.00    +0.000 A 
ATOM     25  F   UNL     1       2.045  12.667  20.160  0.00  0.00    +0.000 F 
ENDBRANCH  17  18
ENDBRANCH  14  17
ENDBRANCH  10  11
BRANCH   1  26
ATOM     26  N   UNL     1       1.867   5.181  20.367  0.00  0.00    +0.000 N 
ATOM     27  H   UNL     1       2.307   5.577  21.192  0.00  0.00    +0.000 HD
BRANCH  26  29
ATOM     28  C   UNL     1       2.071   3.286  21.914  0.00  0.00    +0.000 C 
ATOM     29  C   UNL     1       1.921   3.716  20.450  0.00  0.00    +0.000 C 
ATOM     30  C   UNL     1       0.604   3.157  19.899  0.00  0.00    +0.000 C 
ENDBRANCH  26  29
ENDBRANCH   1  26
BRANCH   5  31
ATOM     31  C   UNL     1       6.387   4.619  14.815  0.00  0.00    +0.000 C 
ATOM     32  N   UNL     1       7.114   4.028  14.135  0.00  0.00    +0.000 NA
ENDBRANCH   5  31
TORSDOF 6
ENDMDL
MODEL 8
REMARK VINA RESULT:      -7.0      0.971      1.078
REMARK  Name = 
REMARK  8 active torsions:
REMARK  status: ('A' for Active; 'I' for Inactive)
REMARK    1  A    between atoms: C_1  and  C_2
REMARK    2  A    between atoms: C_2  and  C_3
REMARK    3  A    between atoms: C_2  and  N_4
REMARK    4  A    between atoms: N_4  and  C_5
REMARK    5  A    between atoms: C_9  and  C_10
REMARK    6  A    between atoms: C_16  and  N_17
REMARK    7  A    between atoms: C_20  and  O_21
REMARK    8  A    between atoms: O_21  and  C_22
REMARK                            x       y       z     vdW  Elec       q    Type
REMARK                         _______ _______ _______ _____ _____    ______ ____
ROOT
ATOM      1  C   UNL     1       1.610   5.682  20.241  0.00  0.00    +0.000 A 
ATOM      2  N   UNL     1       0.890   6.402  21.142  0.00  0.00    +0.000 NA
ATOM      3  C   UNL     1       0.897   7.739  21.029  0.00  0.00    +0.000 A 
ATOM      4  C   UNL     1       0.112   8.500  21.879  0.00  0.00    +0.000 A 
ATOM      5  C   UNL     1       0.089   9.877  21.721  0.00  0.00    +0.000 A 
ATOM      6  N   UNL     1       0.819  10.527  20.790  0.00  0.00    +0.000 NA
ATOM      7  C   UNL     1       1.583   9.753  19.983  0.00  0.00    +0.000 A 
ATOM      8  C   UNL     1       1.656   8.375  20.036  0.00  0.00    +0.000 A 
ATOM      9  N   UNL     1       2.404   7.683  19.161  0.00  0.00    +0.000 NA
ATOM     10  C   UNL     1       2.407   6.330  19.244  0.00  0.00    +0.000 A 
ENDROOT
BRANCH  10  11
ATOM     11  N   UNL     1       3.189   5.694  18.294  0.00  0.00    +0.000 N 
ATOM     12  C   UNL     1       2.654   4.749  17.331  0.00  0.00    +0.000 C 
ATOM     13  C   UNL     1       3.668   3.640  17.107  0.00  0.00    +0.000 C 
ATOM     14  C   UNL     1       5.009   4.206  16.628  0.00  0.00    +0.000 C 
ATOM     15  C   UNL     1       5.524   5.185  17.691  0.00  0.00    +0.000 C 
ATOM     16  C   UNL     1       4.503   6.280  18.007  0.00  0.00    +0.000 C 
BRANCH  14  17
ATOM     17  O   UNL     1       4.880   4.922  15.388  0.00  0.00    +0.000 OA
BRANCH  17  18
ATOM     18  C   UNL     1       5.534   4.426  14.291  0.00  0.00    +0.000 A 
ATOM     19  C   UNL     1       4.952   3.606  13.321  0.00  0.00    +0.000 A 
ATOM     20  C   UNL     1       5.691   3.180  12.218  0.00  0.00    +0.000 A 
ATOM     21  C   UNL     1       7.021   3.559  12.090  0.00  0.00    +0.000 A 
ATOM     22  F   UNL     1       7.726   3.126  11.039  0.00  0.00    +0.000 F 
ATOM     23  C   UNL     1       7.621   4.377  13.036  0.00  0.00    +0.000 A 
ATOM     24  C   UNL     1       6.870   4.815  14.123  0.00  0.00    +0.000 A 
ATOM     25  F   UNL     1       7.460   5.612  15.026  0.00  0.00    +0.000 F 
ENDBRANCH  17  18
ENDBRANCH  14  17
ENDBRANCH  10  11
BRANCH   1  26
ATOM     26  N   UNL     1       1.525   4.269  20.302  0.00  0.00    +0.000 N 
ATOM     27  H   UNL     1       0.550   4.049  20.484  0.00  0.00    +0.000 HD
BRANCH  26  29
ATOM     28  C   UNL     1       1.553   2.515  22.019  0.00  0.00    +0.000 C 
ATOM     29  C   UNL     1       2.363   3.605  21.308  0.00  0.00    +0.000 C 
ATOM     30  C   UNL     1       3.549   2.953  20.587  0.00  0.00    +0.000 C 
ENDBRANCH  26  29
ENDBRANCH   1  26
BRANCH   5  31
ATOM     31  C   UNL     1      -0.769  10.697  22.535  0.00  0.00    +0.000 C 
ATOM     32  N   UNL     1      -1.478  11.368  23.157  0.00  0.00    +0.000 NA
ENDBRANCH   5  31
TORSDOF 6
ENDMDL
MODEL 9
REMARK VINA RESULT:      -7.0      4.022      6.570
REMARK  Name = 
REMARK  8 active torsions:
REMARK  status: ('A' for Active; 'I' for Inactive)
REMARK    1  A    between atoms: C_1  and  C_2
REMARK    2  A    between atoms: C_2  and  C_3
REMARK    3  A    between atoms: C_2  and  N_4
REMARK    4  A    between atoms: N_4  and  C_5
REMARK    5  A    between atoms: C_9  and  C_10
REMARK    6  A    between atoms: C_16  and  N_17
REMARK    7  A    between atoms: C_20  and  O_21
REMARK    8  A    between atoms: O_21  and  C_22
REMARK                            x       y       z     vdW  Elec       q    Type
REMARK                         _______ _______ _______ _____ _____    ______ ____
ROOT
ATOM      1  C   UNL     1      -1.007  11.182  18.624  0.00  0.00    +0.000 A 
ATOM      2  N   UNL     1      -1.683  12.325  18.915  0.00  0.00    +0.000 NA
ATOM      3  C   UNL     1      -1.363  12.976  20.045  0.00  0.00    +0.000 A 
ATOM      4  C   UNL     1      -1.974  14.185  20.333  0.00  0.00    +0.000 A 
ATOM      5  C   UNL     1      -1.600  14.872  21.478  0.00  0.00    +0.000 A 
ATOM      6  N   UNL     1      -0.681  14.409  22.350  0.00  0.00    +0.000 NA
ATOM      7  C   UNL     1      -0.111  13.219  22.043  0.00  0.00    +0.000 A 
ATOM      8  C   UNL     1      -0.389  12.470  20.917  0.00  0.00    +0.000 A 
ATOM      9  N   UNL     1       0.263  11.323  20.666  0.00  0.00    +0.000 NA
ATOM     10  C   UNL     1      -0.032  10.650  19.527  0.00  0.00    +0.000 A 
ENDROOT
BRANCH  10  11
ATOM     11  N   UNL     1       0.698   9.489  19.336  0.00  0.00    +0.000 N 
ATOM     12  C   UNL     1       0.654   8.365  20.253  0.00  0.00    +0.000 C 
ATOM     13  C   UNL     1       2.038   7.747  20.351  0.00  0.00    +0.000 C 
ATOM     14  C   UNL     1       2.544   7.306  18.974  0.00  0.00    +0.000 C 
ATOM     15  C   UNL     1       2.579   8.536  18.059  0.00  0.00    +0.000 C 
ATOM     16  C   UNL     1       1.223   9.240  17.988  0.00  0.00    +0.000 C 
BRANCH  14  17
ATOM     17  O   UNL     1       1.682   6.326  18.370  0.00  0.00    +0.000 OA
BRANCH  17  18
ATOM     18  C   UNL     1       2.112   5.026  18.340  0.00  0.00    +0.000 A 
ATOM     19  C   UNL     1       3.029   4.512  17.420  0.00  0.00    +0.000 A 
ATOM     20  C   UNL     1       3.434   3.180  17.492  0.00  0.00    +0.000 A 
ATOM     21  C   UNL     1       2.909   2.352  18.475  0.00  0.00    +0.000 A 
ATOM     22  F   UNL     1       3.288   1.070  18.522  0.00  0.00    +0.000 F 
ATOM     23  C   UNL     1       2.001   2.838  19.405  0.00  0.00    +0.000 A 
ATOM     24  C   UNL     1       1.618   4.174  19.338  0.00  0.00    +0.000 A 
ATOM     25  F   UNL     1       0.746   4.635  20.247  0.00  0.00    +0.000 F 
ENDBRANCH  17  18
ENDBRANCH  14  17
ENDBRANCH  10  11
BRANCH   1  26
ATOM     26  N   UNL     1      -1.278  10.549  17.386  0.00  0.00    +0.000 N 
ATOM     27  H   UNL     1      -0.717  11.032  16.690  0.00  0.00    +0.000 HD
BRANCH  26  29
ATOM     28  C   UNL     1      -2.756  10.160  15.466  0.00  0.00    +0.000 C 
ATOM     29  C   UNL     1      -2.680  10.537  16.950  0.00  0.00    +0.000 C 
ATOM     30  C   UNL     1      -3.426   9.479  17.771  0.00  0.00    +0.000 C 
ENDBRANCH  26  29
ENDBRANCH   1  26
BRANCH   5  31
ATOM     31  C   UNL     1      -2.158  16.165  21.775  0.00  0.00    +0.000 C 
ATOM     32  N   UNL     1      -2.641  17.191  22.004  0.00  0.00    +0.000 NA
ENDBRANCH   5  31
TORSDOF 6
ENDMDL
