MODEL 1
REMARK VINA RESULT:      -7.9      0.000      0.000
REMARK  Name = 
REMARK  4 active torsions:
REMARK  status: ('A' for Active; 'I' for Inactive)
REMARK    1  A    between atoms: C_1  and  C_2
REMARK    2  A    between atoms: C_2  and  C_4
REMARK    3  A    between atoms: C_14  and  C_15
REMARK    4  A    between atoms: C_15  and  C_16
REMARK                            x       y       z     vdW  Elec       q    Type
REMARK                         _______ _______ _______ _____ _____    ______ ____
ROOT
ATOM      1  C   UNL     1       5.903   4.898  15.419  0.00  0.00    +0.000 A 
ATOM      2  C   UNL     1       5.772   3.824  16.304  0.00  0.00    +0.000 A 
ATOM      3  C   UNL     1       4.965   3.951  17.429  0.00  0.00    +0.000 A 
ATOM      4  C   UNL     1       4.294   5.155  17.659  0.00  0.00    +0.000 A 
ATOM      5  C   UNL     1       4.408   6.245  16.810  0.00  0.00    +0.000 A 
ATOM      6  C   UNL     1       5.226   6.106  15.679  0.00  0.00    +0.000 A 
ATOM      7  O   UNL     1       3.788   7.460  16.961  0.00  0.00    +0.000 OA
ATOM      8  C   UNL     1       2.950   7.730  18.014  0.00  0.00    +0.000 A 
ATOM      9  C   UNL     1       2.388   9.012  18.037  0.00  0.00    +0.000 A 
ATOM     10  C   UNL     1       1.509   9.404  19.069  0.00  0.00    +0.000 A 
ATOM     11  C   UNL     1       1.183   8.514  20.100  0.00  0.00    +0.000 A 
ATOM     12  C   UNL     1       1.746   7.237  20.075  0.00  0.00    +0.000 A 
ATOM     13  C   UNL     1       2.611   6.868  19.039  0.00  0.00    +0.000 A 
ATOM     14  S   UNL     1       3.272   5.264  19.061  0.00  0.00    +0.000 S 
ATOM     15  O   UNL     1       2.171   4.344  18.846  0.00  0.00    +0.000 OA
ATOM     16  O   UNL     1       4.139   5.170  20.218  0.00  0.00    +0.000 OA
ENDROOT
BRANCH   1  18
ATOM     17  C   UNL     1       6.318   3.814  13.111  0.00  0.00    +0.000 C 
ATOM     18  C   UNL     1       6.746   4.778  14.190  0.00  0.00    +0.000 C 
ATOM     19  O   UNL     1       7.757   5.467  14.075  0.00  0.00    +0.000 OA
ENDBRANCH   1  18
BRANCH  11  20
ATOM     20  C   UNL     1       0.266   8.826  21.242  0.00  0.00    +0.000 C 
ATOM     21  C   UNL     1       0.379  10.112  22.015  0.00  0.00    +0.000 C 
ATOM     22  O   UNL     1      -0.599   8.007  21.550  0.00  0.00    +0.000 OA
ENDBRANCH  11  20
TORSDOF 2
ENDMDL
MODEL 2
REMARK VINA RESULT:      -7.4      2.844      5.294
REMARK  Name = 
REMARK  4 active torsions:
REMARK  status: ('A' for Active; 'I' for Inactive)
REMARK    1  A    between atoms: C_1  and  C_2
REMARK    2  A    between atoms: C_2  and  C_4
REMARK    3  A    between atoms: C_14  and  C_15
REMARK    4  A    between atoms: C_15  and  C_16
REMARK                            x       y       z     vdW  Elec       q    Type
REMARK                         _______ _______ _______ _____ _____    ______ ____
ROOT
ATOM      1  C   UNL     1       3.085   6.644  18.638  0.00  0.00    +0.000 A 
ATOM      2  C   UNL     1       2.972   7.552  17.582  0.00  0.00    +0.000 A 
ATOM      3  C   UNL     1       2.216   8.708  17.742  0.00  0.00    +0.000 A 
ATOM      4  C   UNL     1       1.577   8.945  18.962  0.00  0.00    +0.000 A 
ATOM      5  C   UNL     1       1.657   8.063  20.028  0.00  0.00    +0.000 A 
ATOM      6  C   UNL     1       2.421   6.900  19.855  0.00  0.00    +0.000 A 
ATOM      7  O   UNL     1       1.062   8.217  21.255  0.00  0.00    +0.000 OA
ATOM      8  C   UNL     1       0.297   9.313  21.567  0.00  0.00    +0.000 A 
ATOM      9  C   UNL     1      -0.246   9.336  22.858  0.00  0.00    +0.000 A 
ATOM     10  C   UNL     1      -1.047  10.411  23.293  0.00  0.00    +0.000 A 
ATOM     11  C   UNL     1      -1.322  11.484  22.436  0.00  0.00    +0.000 A 
ATOM     12  C   UNL     1      -0.780  11.460  21.149  0.00  0.00    +0.000 A 
ATOM     13  C   UNL     1       0.016  10.384  20.740  0.00  0.00    +0.000 A 
ATOM     14  S   UNL     1       0.665  10.415  19.131  0.00  0.00    +0.000 S 
ATOM     15  O   UNL     1       1.619  11.506  19.076  0.00  0.00    +0.000 OA
ATOM     16  O   UNL     1      -0.452  10.322  18.214  0.00  0.00    +0.000 OA
ENDROOT
BRANCH   1  18
ATOM     17  C   UNL     1       3.492   4.366  17.490  0.00  0.00    +0.000 C 
ATOM     18  C   UNL     1       3.912   5.407  18.499  0.00  0.00    +0.000 C 
ATOM     19  O   UNL     1       4.916   5.263  19.193  0.00  0.00    +0.000 OA
ENDBRANCH   1  18
BRANCH  11  20
ATOM     20  C   UNL     1      -2.160  12.673  22.793  0.00  0.00    +0.000 C 
ATOM     21  C   UNL     1      -1.548  13.930  23.349  0.00  0.00    +0.000 C 
ATOM     22  O   UNL     1      -3.378  12.613  22.625  0.00  0.00    +0.000 OA
ENDBRANCH  11  20
TORSDOF 2
ENDMDL
MODEL 3
REMARK VINA RESULT:      -7.0      3.202      8.994
REMARK  Name = 
REMARK  4 active torsions:
REMARK  status: ('A' for Active; 'I' for Inactive)
REMARK    1  A    between atoms: C_1  and  C_2
REMARK    2  A    between atoms: C_2  and  C_4
REMARK    3  A    between atoms: C_14  and  C_15
REMARK    4  A    between atoms: C_15  and  C_16
REMARK                            x       y       z     vdW  Elec       q    Type
REMARK                         _______ _______ _______ _____ _____    ______ ____
ROOT
ATOM      1  C   UNL     1      -1.950  13.073  21.921  0.00  0.00    +0.000 A 
ATOM      2  C   UNL     1      -1.926  12.251  23.052  0.00  0.00    +0.000 A 
ATOM      3  C   UNL     1      -1.230  11.049  23.017  0.00  0.00    +0.000 A 
ATOM      4  C   UNL     1      -0.561  10.677  21.848  0.00  0.00    +0.000 A 
ATOM      5  C   UNL     1      -0.569  11.461  20.705  0.00  0.00    +0.000 A 
ATOM      6  C   UNL     1      -1.276  12.671  20.750  0.00  0.00    +0.000 A 
ATOM      7  O   UNL     1       0.057  11.173  19.518  0.00  0.00    +0.000 OA
ATOM      8  C   UNL     1       0.794  10.028  19.337  0.00  0.00    +0.000 A 
ATOM      9  C   UNL     1       1.378   9.868  18.074  0.00  0.00    +0.000 A 
ATOM     10  C   UNL     1       2.159   8.734  17.771  0.00  0.00    +0.000 A 
ATOM     11  C   UNL     1       2.365   7.737  18.732  0.00  0.00    +0.000 A 
ATOM     12  C   UNL     1       1.782   7.898  19.990  0.00  0.00    +0.000 A 
ATOM     13  C   UNL     1       1.014   9.034  20.271  0.00  0.00    +0.000 A 
ATOM     14  S   UNL     1       0.322   9.180  21.855  0.00  0.00    +0.000 S 
ATOM     15  O   UNL     1       1.419   9.348  22.788  0.00  0.00    +0.000 OA
ATOM     16  O   UNL     1      -0.655   8.120  21.998  0.00  0.00    +0.000 OA
ENDROOT
BRANCH   1  18
ATOM     17  C   UNL     1      -2.384  15.384  20.851  0.00  0.00    +0.000 C 
ATOM     18  C   UNL     1      -2.671  14.382  21.942  0.00  0.00    +0.000 C 
ATOM     19  O   UNL     1      -3.485  14.615  22.832  0.00  0.00    +0.000 OA
ENDBRANCH   1  18
BRANCH  11  20
ATOM     20  C   UNL     1       3.173   6.494  18.517  0.00  0.00    +0.000 C 
ATOM     21  C   UNL     1       4.280   6.440  17.500  0.00  0.00    +0.000 C 
ATOM     22  O   UNL     1       2.921   5.497  19.193  0.00  0.00    +0.000 OA
ENDBRANCH  11  20
TORSDOF 2
ENDMDL
MODEL 4
REMARK VINA RESULT:      -7.0      2.849      4.720
REMARK  Name = 
REMARK  4 active torsions:
REMARK  status: ('A' for Active; 'I' for Inactive)
REMARK    1  A    between atoms: C_1  and  C_2
REMARK    2  A    between atoms: C_2  and  C_4
REMARK    3  A    between atoms: C_14  and  C_15
REMARK    4  A    between atoms: C_15  and  C_16
REMARK                            x       y       z     vdW  Elec       q    Type
REMARK                         _______ _______ _______ _____ _____    ______ ____
ROOT
ATOM      1  C   UNL     1       3.637   5.900  18.696  0.00  0.00    +0.000 A 
ATOM      2  C   UNL     1       3.581   6.701  17.552  0.00  0.00    +0.000 A 
ATOM      3  C   UNL     1       2.826   7.869  17.563  0.00  0.00    +0.000 A 
ATOM      4  C   UNL     1       2.133   8.226  18.722  0.00  0.00    +0.000 A 
ATOM      5  C   UNL     1       2.157   7.452  19.872  0.00  0.00    +0.000 A 
ATOM      6  C   UNL     1       2.919   6.276  19.849  0.00  0.00    +0.000 A 
ATOM      7  O   UNL     1       1.506   7.727  21.049  0.00  0.00    +0.000 OA
ATOM      8  C   UNL     1       0.735   8.851  21.216  0.00  0.00    +0.000 A 
ATOM      9  C   UNL     1       0.133   9.001  22.471  0.00  0.00    +0.000 A 
ATOM     10  C   UNL     1      -0.679  10.116  22.761  0.00  0.00    +0.000 A 
ATOM     11  C   UNL     1      -0.905  11.101  21.792  0.00  0.00    +0.000 A 
ATOM     12  C   UNL     1      -0.305  10.949  20.541  0.00  0.00    +0.000 A 
ATOM     13  C   UNL     1       0.502   9.836  20.276  0.00  0.00    +0.000 A 
ATOM     14  S   UNL     1       1.225   9.708  18.705  0.00  0.00    +0.000 S 
ATOM     15  O   UNL     1       2.190  10.786  18.588  0.00  0.00    +0.000 OA
ATOM     16  O   UNL     1       0.152   9.530  17.749  0.00  0.00    +0.000 OA
ENDROOT
BRANCH   1  18
ATOM     17  C   UNL     1       4.052   3.501  17.831  0.00  0.00    +0.000 C 
ATOM     18  C   UNL     1       4.460   4.652  18.716  0.00  0.00    +0.000 C 
ATOM     19  O   UNL     1       5.452   4.589  19.439  0.00  0.00    +0.000 OA
ENDBRANCH   1  18
BRANCH  11  20
ATOM     20  C   UNL     1      -1.750  12.321  21.992  0.00  0.00    +0.000 C 
ATOM     21  C   UNL     1      -2.571  12.516  23.237  0.00  0.00    +0.000 C 
ATOM     22  O   UNL     1      -1.767  13.182  21.112  0.00  0.00    +0.000 OA
ENDBRANCH  11  20
TORSDOF 2
ENDMDL
MODEL 5
REMARK VINA RESULT:      -7.0      3.155      6.000
REMARK  Name = 
REMARK  4 active torsions:
REMARK  status: ('A' for Active; 'I' for Inactive)
REMARK    1  A    between atoms: C_1  and  C_2
REMARK    2  A    between atoms: C_2  and  C_4
REMARK    3  A    between atoms: C_14  and  C_15
REMARK    4  A    between atoms: C_15  and  C_16
REMARK                            x       y       z     vdW  Elec       q    Type
REMARK                         _______ _______ _______ _____ _____    ______ ____
ROOT
ATOM      1  C   UNL     1       2.643   7.243  18.915  0.00  0.00    +0.000 A 
ATOM      2  C   UNL     1       2.491   8.036  17.774  0.00  0.00    +0.000 A 
ATOM      3  C   UNL     1       1.698   9.177  17.827  0.00  0.00    +0.000 A 
ATOM      4  C   UNL     1       1.063   9.516  19.025  0.00  0.00    +0.000 A 
ATOM      5  C   UNL     1       1.183   8.749  20.173  0.00  0.00    +0.000 A 
ATOM      6  C   UNL     1       1.983   7.600  20.108  0.00  0.00    +0.000 A 
ATOM      7  O   UNL     1       0.595   9.007  21.387  0.00  0.00    +0.000 OA
ATOM      8  C   UNL     1      -0.203  10.104  21.597  0.00  0.00    +0.000 A 
ATOM      9  C   UNL     1      -0.734  10.239  22.885  0.00  0.00    +0.000 A 
ATOM     10  C   UNL     1      -1.566  11.327  23.221  0.00  0.00    +0.000 A 
ATOM     11  C   UNL     1      -1.884  12.299  22.264  0.00  0.00    +0.000 A 
ATOM     12  C   UNL     1      -1.354  12.162  20.979  0.00  0.00    +0.000 A 
ATOM     13  C   UNL     1      -0.527  11.076  20.670  0.00  0.00    +0.000 A 
ATOM     14  S   UNL     1       0.105  10.966  19.058  0.00  0.00    +0.000 S 
ATOM     15  O   UNL     1       1.022  12.075  18.881  0.00  0.00    +0.000 OA
ATOM     16  O   UNL     1      -1.017  10.745  18.169  0.00  0.00    +0.000 OA
ENDROOT
BRANCH   1  18
ATOM     17  C   UNL     1       4.331   5.747  17.656  0.00  0.00    +0.000 C 
ATOM     18  C   UNL     1       3.509   6.025  18.890  0.00  0.00    +0.000 C 
ATOM     19  O   UNL     1       3.546   5.283  19.869  0.00  0.00    +0.000 OA
ENDBRANCH   1  18
BRANCH  11  20
ATOM     20  C   UNL     1      -2.757  13.490  22.511  0.00  0.00    +0.000 C 
ATOM     21  C   UNL     1      -2.605  14.337  23.744  0.00  0.00    +0.000 C 
ATOM     22  O   UNL     1      -3.618  13.778  21.679  0.00  0.00    +0.000 OA
ENDBRANCH  11  20
TORSDOF 2
ENDMDL
MODEL 6
REMARK VINA RESULT:      -7.0      1.000      1.114
REMARK  Name = 
REMARK  4 active torsions:
REMARK  status: ('A' for Active; 'I' for Inactive)
REMARK    1  A    between atoms: C_1  and  C_2
REMARK    2  A    between atoms: C_2  and  C_4
REMARK    3  A    between atoms: C_14  and  C_15
REMARK    4  A    between atoms: C_15  and  C_16
REMARK                            x       y       z     vdW  Elec       q    Type
REMARK                         _______ _______ _______ _____ _____    ______ ____
ROOT
ATOM      1  C   UNL     1       5.956   4.649  15.006  0.00  0.00    +0.000 A 
ATOM      2  C   UNL     1       6.022   3.626  15.957  0.00  0.00    +0.000 A 
ATOM      3  C   UNL     1       5.366   3.771  17.174  0.00  0.00    +0.000 A 
ATOM      4  C   UNL     1       4.646   4.941  17.430  0.00  0.00    +0.000 A 
ATOM      5  C   UNL     1       4.566   5.981  16.516  0.00  0.00    +0.000 A 
ATOM      6  C   UNL     1       5.233   5.825  15.293  0.00  0.00    +0.000 A 
ATOM      7  O   UNL     1       3.886   7.161  16.687  0.00  0.00    +0.000 OA
ATOM      8  C   UNL     1       3.179   7.442  17.830  0.00  0.00    +0.000 A 
ATOM      9  C   UNL     1       2.533   8.684  17.862  0.00  0.00    +0.000 A 
ATOM     10  C   UNL     1       1.775   9.082  18.982  0.00  0.00    +0.000 A 
ATOM     11  C   UNL     1       1.655   8.239  20.094  0.00  0.00    +0.000 A 
ATOM     12  C   UNL     1       2.300   7.001  20.060  0.00  0.00    +0.000 A 
ATOM     13  C   UNL     1       3.044   6.625  18.936  0.00  0.00    +0.000 A 
ATOM     14  S   UNL     1       3.816   5.071  18.952  0.00  0.00    +0.000 S 
ATOM     15  O   UNL     1       2.766   4.071  18.939  0.00  0.00    +0.000 OA
ATOM     16  O   UNL     1       4.834   5.106  19.981  0.00  0.00    +0.000 OA
ENDROOT
BRANCH   1  18
ATOM     17  C   UNL     1       7.807   5.400  13.369  0.00  0.00    +0.000 C 
ATOM     18  C   UNL     1       6.633   4.507  13.681  0.00  0.00    +0.000 C 
ATOM     19  O   UNL     1       6.232   3.665  12.880  0.00  0.00    +0.000 OA
ENDBRANCH   1  18
BRANCH  11  20
ATOM     20  C   UNL     1       0.879   8.562  21.333  0.00  0.00    +0.000 C 
ATOM     21  C   UNL     1      -0.603   8.321  21.420  0.00  0.00    +0.000 C 
ATOM     22  O   UNL     1       1.475   9.035  22.301  0.00  0.00    +0.000 OA
ENDBRANCH  11  20
TORSDOF 2
ENDMDL
MODEL 7
REMARK VINA RESULT:      -6.9      3.108      7.479
REMARK  Name = 
REMARK  4 active torsions:
REMARK  status: ('A' for Active; 'I' for Inactive)
REMARK    1  A    between atoms: C_1  and  C_2
REMARK    2  A    between atoms: C_2  and  C_4
REMARK    3  A    between atoms: C_14  and  C_15
REMARK    4  A    between atoms: C_15  and  C_16
REMARK                            x       y       z     vdW  Elec       q    Type
REMARK                         _______ _______ _______ _____ _____    ______ ____
ROOT
ATOM      1  C   UNL     1       2.468   3.729  19.567  0.00  0.00    +0.000 A 
ATOM      2  C   UNL     1       3.053   4.854  20.155  0.00  0.00    +0.000 A 
ATOM      3  C   UNL     1       4.051   5.546  19.478  0.00  0.00    +0.000 A 
ATOM      4  C   UNL     1       4.456   5.106  18.216  0.00  0.00    +0.000 A 
ATOM      5  C   UNL     1       3.906   3.990  17.605  0.00  0.00    +0.000 A 
ATOM      6  C   UNL     1       2.902   3.297  18.297  0.00  0.00    +0.000 A 
ATOM      7  O   UNL     1       4.244   3.489  16.373  0.00  0.00    +0.000 OA
ATOM      8  C   UNL     1       5.202   4.073  15.581  0.00  0.00    +0.000 A 
ATOM      9  C   UNL     1       5.441   3.454  14.349  0.00  0.00    +0.000 A 
ATOM     10  C   UNL     1       6.399   3.965  13.450  0.00  0.00    +0.000 A 
ATOM     11  C   UNL     1       7.140   5.108  13.776  0.00  0.00    +0.000 A 
ATOM     12  C   UNL     1       6.900   5.724  15.006  0.00  0.00    +0.000 A 
ATOM     13  C   UNL     1       5.941   5.202  15.880  0.00  0.00    +0.000 A 
ATOM     14  S   UNL     1       5.685   6.017  17.390  0.00  0.00    +0.000 S 
ATOM     15  O   UNL     1       5.109   7.313  17.086  0.00  0.00    +0.000 OA
ATOM     16  O   UNL     1       6.900   5.877  18.167  0.00  0.00    +0.000 OA
ENDROOT
BRANCH   1  18
ATOM     17  C   UNL     1       1.522   2.695  21.737  0.00  0.00    +0.000 C 
ATOM     18  C   UNL     1       1.377   2.981  20.263  0.00  0.00    +0.000 C 
ATOM     19  O   UNL     1       0.383   2.625  19.633  0.00  0.00    +0.000 OA
ENDBRANCH   1  18
BRANCH  11  20
ATOM     20  C   UNL     1       8.181   5.732  12.899  0.00  0.00    +0.000 C 
ATOM     21  C   UNL     1       7.901   6.072  11.461  0.00  0.00    +0.000 C 
ATOM     22  O   UNL     1       9.292   5.971  13.374  0.00  0.00    +0.000 OA
ENDBRANCH  11  20
TORSDOF 2
ENDMDL
MODEL 8
REMARK VINA RESULT:      -6.8      3.629      4.225
REMARK  Name = 
REMARK  4 active torsions:
REMARK  status: ('A' for Active; 'I' for Inactive)
REMARK    1  A    between atoms: C_1  and  C_2
REMARK    2  A    between atoms: C_2  and  C_4
REMARK    3  A    between atoms: C_14  and  C_15
REMARK    4  A    between atoms: C_15  and  C_16
REMARK                            x       y       z     vdW  Elec       q    Type
REMARK                         _______ _______ _______ _____ _____    ______ ____
ROOT
ATOM      1  C   UNL     1       6.630   4.445  13.968  0.00  0.00    +0.000 A 
ATOM      2  C   UNL     1       7.344   5.339  14.771  0.00  0.00    +0.000 A 
ATOM      3  C   UNL     1       6.986   5.509  16.104  0.00  0.00    +0.000 A 
ATOM      4  C   UNL     1       5.913   4.781  16.623  0.00  0.00    +0.000 A 
ATOM      5  C   UNL     1       5.175   3.893  15.856  0.00  0.00    +0.000 A 
ATOM      6  C   UNL     1       5.543   3.731  14.513  0.00  0.00    +0.000 A 
ATOM      7  O   UNL     1       4.109   3.141  16.283  0.00  0.00    +0.000 OA
ATOM      8  C   UNL     1       3.648   3.191  17.576  0.00  0.00    +0.000 A 
ATOM      9  C   UNL     1       2.554   2.368  17.869  0.00  0.00    +0.000 A 
ATOM     10  C   UNL     1       1.995   2.332  19.163  0.00  0.00    +0.000 A 
ATOM     11  C   UNL     1       2.524   3.127  20.187  0.00  0.00    +0.000 A 
ATOM     12  C   UNL     1       3.614   3.948  19.892  0.00  0.00    +0.000 A 
ATOM     13  C   UNL     1       4.156   3.964  18.602  0.00  0.00    +0.000 A 
ATOM     14  S   UNL     1       5.515   5.000  18.301  0.00  0.00    +0.000 S 
ATOM     15  O   UNL     1       6.630   4.476  19.065  0.00  0.00    +0.000 OA
ATOM     16  O   UNL     1       5.056   6.366  18.446  0.00  0.00    +0.000 OA
ENDROOT
BRANCH   1  18
ATOM     17  C   UNL     1       6.520   2.984  11.841  0.00  0.00    +0.000 C 
ATOM     18  C   UNL     1       7.011   4.227  12.540  0.00  0.00    +0.000 C 
ATOM     19  O   UNL     1       7.703   5.062  11.960  0.00  0.00    +0.000 OA
ENDBRANCH   1  18
BRANCH  11  20
ATOM     20  C   UNL     1       2.008   3.169  21.592  0.00  0.00    +0.000 C 
ATOM     21  C   UNL     1       1.063   2.122  22.116  0.00  0.00    +0.000 C 
ATOM     22  O   UNL     1       2.370   4.084  22.332  0.00  0.00    +0.000 OA
ENDBRANCH  11  20
TORSDOF 2
ENDMDL
MODEL 9
REMARK VINA RESULT:      -6.7      3.547      8.197
REMARK  Name = 
REMARK  4 active torsions:
REMARK  status: ('A' for Active; 'I' for Inactive)
REMARK    1  A    between atoms: C_1  and  C_2
REMARK    2  A    between atoms: C_2  and  C_4
REMARK    3  A    between atoms: C_14  and  C_15
REMARK    4  A    between atoms: C_15  and  C_16
REMARK                            x       y       z     vdW  Elec       q    Type
REMARK                         _______ _______ _______ _____ _____    ______ ____
ROOT
ATOM      1  C   UNL     1      -0.529  13.390  20.344  0.00  0.00    +0.000 A 
ATOM      2  C   UNL     1      -0.835  12.986  21.647  0.00  0.00    +0.000 A 
ATOM      3  C   UNL     1      -0.494  11.707  22.072  0.00  0.00    +0.000 A 
ATOM      4  C   UNL     1       0.153  10.840  21.187  0.00  0.00    +0.000 A 
ATOM      5  C   UNL     1       0.463  11.201  19.885  0.00  0.00    +0.000 A 
ATOM      6  C   UNL     1       0.113  12.493  19.466  0.00  0.00    +0.000 A 
ATOM      7  O   UNL     1       1.093  10.415  18.953  0.00  0.00    +0.000 OA
ATOM      8  C   UNL     1       1.503   9.134  19.230  0.00  0.00    +0.000 A 
ATOM      9  C   UNL     1       2.133   8.452  18.182  0.00  0.00    +0.000 A 
ATOM     10  C   UNL     1       2.599   7.131  18.349  0.00  0.00    +0.000 A 
ATOM     11  C   UNL     1       2.435   6.470  19.573  0.00  0.00    +0.000 A 
ATOM     12  C   UNL     1       1.806   7.152  20.615  0.00  0.00    +0.000 A 
ATOM     13  C   UNL     1       1.356   8.464  20.429  0.00  0.00    +0.000 A 
ATOM     14  S   UNL     1       0.588   9.260  21.766  0.00  0.00    +0.000 S 
ATOM     15  O   UNL     1       1.599   9.455  22.787  0.00  0.00    +0.000 OA
ATOM     16  O   UNL     1      -0.650   8.557  22.033  0.00  0.00    +0.000 OA
ENDROOT
BRANCH   1  18
ATOM     17  C   UNL     1      -0.067  15.356  18.734  0.00  0.00    +0.000 C 
ATOM     18  C   UNL     1      -0.863  14.768  19.872  0.00  0.00    +0.000 C 
ATOM     19  O   UNL     1      -1.780  15.390  20.406  0.00  0.00    +0.000 OA
ENDBRANCH   1  18
BRANCH  11  20
ATOM     20  C   UNL     1       2.889   5.071  19.857  0.00  0.00    +0.000 C 
ATOM     21  C   UNL     1       2.069   4.133  20.699  0.00  0.00    +0.000 C 
ATOM     22  O   UNL     1       3.960   4.687  19.387  0.00  0.00    +0.000 OA
ENDBRANCH  11  20
TORSDOF 2
ENDMDL
