MODEL 1
REMARK VINA RESULT:      -7.5      0.000      0.000
REMARK  Name = 
REMARK  12 active torsions:
REMARK  status: ('A' for Active; 'I' for Inactive)
REMARK    1  A    between atoms: C_1  and  C_2
REMARK    2  A    between atoms: C_2  and  C_3
REMARK    3  A    between atoms: C_2  and  C_4
REMARK    4  A    between atoms: C_2  and  O_5
REMARK    5  A    between atoms: O_5  and  C_6
REMARK    6  A    between atoms: N_8  and  N_9
REMARK    7  A    between atoms: N_9  and  C_10
REMARK    8  A    between atoms: C_10  and  C_11
REMARK    9  A    between atoms: C_14  and  C_16
REMARK   10  A    between atoms: C_17  and  N_18
REMARK   11  A    between atoms: N_18  and  C_19
REMARK   12  A    between atoms: C_19  and  C_20
REMARK                            x       y       z     vdW  Elec       q    Type
REMARK                         _______ _______ _______ _____ _____    ______ ____
ROOT
ATOM      1  N   UNL     1       6.501   4.998  17.556  0.00  0.00    +0.000 N 
ATOM      2  C   UNL     1       6.944   5.667  18.711  0.00  0.00    +0.000 C 
ATOM      3  O   UNL     1       6.570   5.379  19.845  0.00  0.00    +0.000 OA
ENDROOT
BRANCH   1   6
ATOM      4  C   UNL     1       4.268   3.970  17.583  0.00  0.00    +0.000 C 
ATOM      5  O   UNL     1       3.704   4.922  17.063  0.00  0.00    +0.000 OA
ATOM      6  N   UNL     1       5.635   3.867  17.757  0.00  0.00    +0.000 N 
ATOM      7  H   UNL     1       5.966   3.123  18.357  0.00  0.00    +0.000 HD
BRANCH   4   8
ATOM      8  O   UNL     1       3.662   2.838  18.041  0.00  0.00    +0.000 OA
BRANCH   8  10
ATOM      9  C   UNL     1       2.743   4.114  19.963  0.00  0.00    +0.000 C 
ATOM     10  C   UNL     1       3.160   2.746  19.408  0.00  0.00    +0.000 C 
ATOM     11  C   UNL     1       4.176   2.050  20.320  0.00  0.00    +0.000 C 
ATOM     12  C   UNL     1       1.894   1.866  19.353  0.00  0.00    +0.000 C 
ENDBRANCH   8  10
ENDBRANCH   4   8
ENDBRANCH   1   6
BRANCH   2  13
ATOM     13  C   UNL     1       7.912   6.785  18.484  0.00  0.00    +0.000 C 
ATOM     14  C   UNL     1       7.551   8.018  18.102  0.00  0.00    +0.000 C 
BRANCH  14  15
ATOM     15  N   UNL     1       8.439   9.049  17.874  0.00  0.00    +0.000 N 
ATOM     16  H   UNL     1       8.567   9.332  16.909  0.00  0.00    +0.000 HD
BRANCH  15  17
ATOM     17  C   UNL     1       9.291   9.721  18.842  0.00  0.00    +0.000 C 
BRANCH  17  18
ATOM     18  C   UNL     1       9.355  11.235  18.527  0.00  0.00    +0.000 C 
ATOM     19  C   UNL     1       9.261  12.107  19.790  0.00  0.00    +0.000 C 
ATOM     20  C   UNL     1      10.511  12.019  20.663  0.00  0.00    +0.000 C 
ATOM     21  C   UNL     1      11.783  12.333  19.880  0.00  0.00    +0.000 C 
ATOM     22  C   UNL     1      11.896  11.543  18.579  0.00  0.00    +0.000 C 
ATOM     23  C   UNL     1      10.622  11.613  17.740  0.00  0.00    +0.000 C 
ENDBRANCH  17  18
ENDBRANCH  15  17
ENDBRANCH  14  15
ENDBRANCH   2  13
BRANCH   1  24
ATOM     24  C   UNL     1       7.305   4.864  16.328  0.00  0.00    +0.000 C 
BRANCH  24  25
ATOM     25  C   UNL     1       6.563   5.161  15.022  0.00  0.00    +0.000 C 
ATOM     26  N   UNL     1       5.634   6.160  15.054  0.00  0.00    +0.000 N 
ATOM     27  O   UNL     1       6.722   4.489  14.008  0.00  0.00    +0.000 OA
ATOM     28  H   UNL     1       5.483   6.734  15.873  0.00  0.00    +0.000 HD
ATOM     29  H   UNL     1       5.125   6.374  14.203  0.00  0.00    +0.000 HD
ENDBRANCH  24  25
ENDBRANCH   1  24
TORSDOF 9
ENDMDL
MODEL 2
REMARK VINA RESULT:      -7.3      1.036      1.089
REMARK  Name = 
REMARK  12 active torsions:
REMARK  status: ('A' for Active; 'I' for Inactive)
REMARK    1  A    between atoms: C_1  and  C_2
REMARK    2  A    between atoms: C_2  and  C_3
REMARK    3  A    between atoms: C_2  and  C_4
REMARK    4  A    between atoms: C_2  and  O_5
REMARK    5  A    between atoms: O_5  and  C_6
REMARK    6  A    between atoms: N_8  and  N_9
REMARK    7  A    between atoms: N_9  and  C_10
REMARK    8  A    between atoms: C_10  and  C_11
REMARK    9  A    between atoms: C_14  and  C_16
REMARK   10  A    between atoms: C_17  and  N_18
REMARK   11  A    between atoms: N_18  and  C_19
REMARK   12  A    between atoms: C_19  and  C_20
REMARK                            x       y       z     vdW  Elec       q    Type
REMARK                         _______ _______ _______ _____ _____    ______ ____
ROOT
ATOM      1  N   UNL     1       5.423   5.718  17.229  0.00  0.00    +0.000 N 
ATOM      2  C   UNL     1       6.424   5.770  18.214  0.00  0.00    +0.000 C 
ATOM      3  O   UNL     1       6.419   5.069  19.223  0.00  0.00    +0.000 OA
ENDROOT
BRANCH   1   6
ATOM      4  C   UNL     1       3.131   5.054  17.822  0.00  0.00    +0.000 C 
ATOM      5  O   UNL     1       2.701   6.197  17.890  0.00  0.00    +0.000 OA
ATOM      6  N   UNL     1       4.403   4.718  17.398  0.00  0.00    +0.000 N 
ATOM      7  H   UNL     1       4.701   3.765  17.556  0.00  0.00    +0.000 HD
BRANCH   4   8
ATOM      8  O   UNL     1       2.430   3.921  18.110  0.00  0.00    +0.000 OA
BRANCH   8  10
ATOM      9  C   UNL     1       2.131   4.600  20.480  0.00  0.00    +0.000 C 
ATOM     10  C   UNL     1       2.287   3.445  19.482  0.00  0.00    +0.000 C 
ATOM     11  C   UNL     1       3.445   2.516  19.865  0.00  0.00    +0.000 C 
ATOM     12  C   UNL     1       0.985   2.618  19.527  0.00  0.00    +0.000 C 
ENDBRANCH   8  10
ENDBRANCH   4   8
ENDBRANCH   1   6
BRANCH   2  13
ATOM     13  C   UNL     1       7.522   6.758  17.974  0.00  0.00    +0.000 C 
ATOM     14  C   UNL     1       7.380   8.083  18.126  0.00  0.00    +0.000 C 
BRANCH  14  15
ATOM     15  N   UNL     1       8.382   9.001  17.889  0.00  0.00    +0.000 N 
ATOM     16  H   UNL     1       8.605   9.187  16.919  0.00  0.00    +0.000 HD
BRANCH  15  17
ATOM     17  C   UNL     1       9.228   9.668  18.866  0.00  0.00    +0.000 C 
BRANCH  17  18
ATOM     18  C   UNL     1       9.294  11.183  18.560  0.00  0.00    +0.000 C 
ATOM     19  C   UNL     1       9.207  12.048  19.828  0.00  0.00    +0.000 C 
ATOM     20  C   UNL     1      10.459  11.953  20.695  0.00  0.00    +0.000 C 
ATOM     21  C   UNL     1      11.729  12.269  19.909  0.00  0.00    +0.000 C 
ATOM     22  C   UNL     1      11.836  11.486  18.603  0.00  0.00    +0.000 C 
ATOM     23  C   UNL     1      10.558  11.564  17.770  0.00  0.00    +0.000 C 
ENDBRANCH  17  18
ENDBRANCH  15  17
ENDBRANCH  14  15
ENDBRANCH   2  13
BRANCH   1  24
ATOM     24  C   UNL     1       5.654   6.033  15.808  0.00  0.00    +0.000 C 
BRANCH  24  25
ATOM     25  C   UNL     1       6.438   4.979  15.021  0.00  0.00    +0.000 C 
ATOM     26  N   UNL     1       7.639   5.365  14.500  0.00  0.00    +0.000 N 
ATOM     27  O   UNL     1       5.986   3.862  14.787  0.00  0.00    +0.000 OA
ATOM     28  H   UNL     1       8.040   6.277  14.680  0.00  0.00    +0.000 HD
ATOM     29  H   UNL     1       8.176   4.687  13.971  0.00  0.00    +0.000 HD
ENDBRANCH  24  25
ENDBRANCH   1  24
TORSDOF 9
ENDMDL
MODEL 3
REMARK VINA RESULT:      -7.2      1.383      1.895
REMARK  Name = 
REMARK  12 active torsions:
REMARK  status: ('A' for Active; 'I' for Inactive)
REMARK    1  A    between atoms: C_1  and  C_2
REMARK    2  A    between atoms: C_2  and  C_3
REMARK    3  A    between atoms: C_2  and  C_4
REMARK    4  A    between atoms: C_2  and  O_5
REMARK    5  A    between atoms: O_5  and  C_6
REMARK    6  A    between atoms: N_8  and  N_9
REMARK    7  A    between atoms: N_9  and  C_10
REMARK    8  A    between atoms: C_10  and  C_11
REMARK    9  A    between atoms: C_14  and  C_16
REMARK   10  A    between atoms: C_17  and  N_18
REMARK   11  A    between atoms: N_18  and  C_19
REMARK   12  A    between atoms: C_19  and  C_20
REMARK                            x       y       z     vdW  Elec       q    Type
REMARK                         _______ _______ _______ _____ _____    ______ ____
ROOT
ATOM      1  N   UNL     1       6.167   6.077  17.690  0.00  0.00    +0.000 N 
ATOM      2  C   UNL     1       7.355   6.455  18.340  0.00  0.00    +0.000 C 
ATOM      3  O   UNL     1       7.839   5.833  19.282  0.00  0.00    +0.000 OA
ENDROOT
BRANCH   1   6
ATOM      4  C   UNL     1       4.439   4.840  18.925  0.00  0.00    +0.000 C 
ATOM      5  O   UNL     1       3.755   5.824  19.170  0.00  0.00    +0.000 OA
ATOM      6  N   UNL     1       5.561   4.845  18.119  0.00  0.00    +0.000 N 
ATOM      7  H   UNL     1       6.142   4.018  18.137  0.00  0.00    +0.000 HD
BRANCH   4   8
ATOM      8  O   UNL     1       4.196   3.572  19.364  0.00  0.00    +0.000 OA
BRANCH   8  10
ATOM      9  C   UNL     1       2.633   3.307  17.451  0.00  0.00    +0.000 C 
ATOM     10  C   UNL     1       3.107   2.773  18.809  0.00  0.00    +0.000 C 
ATOM     11  C   UNL     1       1.950   2.653  19.807  0.00  0.00    +0.000 C 
ATOM     12  C   UNL     1       3.676   1.358  18.574  0.00  0.00    +0.000 C 
ENDBRANCH   8  10
ENDBRANCH   4   8
ENDBRANCH   1   6
BRANCH   2  13
ATOM     13  C   UNL     1       8.015   7.693  17.820  0.00  0.00    +0.000 C 
ATOM     14  C   UNL     1       8.288   8.767  18.575  0.00  0.00    +0.000 C 
BRANCH  14  15
ATOM     15  N   UNL     1       8.880   9.918  18.099  0.00  0.00    +0.000 N 
ATOM     16  H   UNL     1       9.086   9.944  17.108  0.00  0.00    +0.000 HD
BRANCH  15  17
ATOM     17  C   UNL     1       9.334  11.069  18.864  0.00  0.00    +0.000 C 
BRANCH  17  18
ATOM     18  C   UNL     1      10.864  11.235  18.710  0.00  0.00    +0.000 C 
ATOM     19  C   UNL     1      11.251  12.026  17.450  0.00  0.00    +0.000 C 
ATOM     20  C   UNL     1      10.886  13.505  17.546  0.00  0.00    +0.000 C 
ATOM     21  C   UNL     1      11.466  14.161  18.798  0.00  0.00    +0.000 C 
ATOM     22  C   UNL     1      11.170  13.380  20.075  0.00  0.00    +0.000 C 
ATOM     23  C   UNL     1      11.506  11.895  19.943  0.00  0.00    +0.000 C 
ENDBRANCH  17  18
ENDBRANCH  15  17
ENDBRANCH  14  15
ENDBRANCH   2  13
BRANCH   1  24
ATOM     24  C   UNL     1       5.878   6.369  16.274  0.00  0.00    +0.000 C 
BRANCH  24  25
ATOM     25  C   UNL     1       6.232   5.253  15.289  0.00  0.00    +0.000 C 
ATOM     26  N   UNL     1       7.458   5.321  14.693  0.00  0.00    +0.000 N 
ATOM     27  O   UNL     1       5.434   4.375  14.974  0.00  0.00    +0.000 OA
ATOM     28  H   UNL     1       8.140   6.029  14.935  0.00  0.00    +0.000 HD
ATOM     29  H   UNL     1       7.715   4.596  14.032  0.00  0.00    +0.000 HD
ENDBRANCH  24  25
ENDBRANCH   1  24
TORSDOF 9
ENDMDL
MODEL 4
REMARK VINA RESULT:      -7.2      1.365      1.675
REMARK  Name = 
REMARK  12 active torsions:
REMARK  status: ('A' for Active; 'I' for Inactive)
REMARK    1  A    between atoms: C_1  and  C_2
REMARK    2  A    between atoms: C_2  and  C_3
REMARK    3  A    between atoms: C_2  and  C_4
REMARK    4  A    between atoms: C_2  and  O_5
REMARK    5  A    between atoms: O_5  and  C_6
REMARK    6  A    between atoms: N_8  and  N_9
REMARK    7  A    between atoms: N_9  and  C_10
REMARK    8  A    between atoms: C_10  and  C_11
REMARK    9  A    between atoms: C_14  and  C_16
REMARK   10  A    between atoms: C_17  and  N_18
REMARK   11  A    between atoms: N_18  and  C_19
REMARK   12  A    between atoms: C_19  and  C_20
REMARK                            x       y       z     vdW  Elec       q    Type
REMARK                         _______ _______ _______ _____ _____    ______ ____
ROOT
ATOM      1  N   UNL     1       5.925   5.991  17.628  0.00  0.00    +0.000 N 
ATOM      2  C   UNL     1       7.098   6.398  18.286  0.00  0.00    +0.000 C 
ATOM      3  O   UNL     1       7.529   5.853  19.300  0.00  0.00    +0.000 OA
ENDROOT
BRANCH   1   6
ATOM      4  C   UNL     1       4.207   4.914  19.018  0.00  0.00    +0.000 C 
ATOM      5  O   UNL     1       3.607   5.950  19.271  0.00  0.00    +0.000 OA
ATOM      6  N   UNL     1       5.270   4.818  18.140  0.00  0.00    +0.000 N 
ATOM      7  H   UNL     1       5.795   3.954  18.151  0.00  0.00    +0.000 HD
BRANCH   4   8
ATOM      8  O   UNL     1       3.913   3.681  19.519  0.00  0.00    +0.000 OA
BRANCH   8  10
ATOM      9  C   UNL     1       1.813   2.429  19.959  0.00  0.00    +0.000 C 
ATOM     10  C   UNL     1       2.866   2.853  18.927  0.00  0.00    +0.000 C 
ATOM     11  C   UNL     1       3.467   1.645  18.199  0.00  0.00    +0.000 C 
ATOM     12  C   UNL     1       2.154   3.730  17.876  0.00  0.00    +0.000 C 
ENDBRANCH   8  10
ENDBRANCH   4   8
ENDBRANCH   1   6
BRANCH   2  13
ATOM     13  C   UNL     1       7.809   7.568  17.684  0.00  0.00    +0.000 C 
ATOM     14  C   UNL     1       8.197   8.646  18.382  0.00  0.00    +0.000 C 
BRANCH  14  15
ATOM     15  N   UNL     1       8.838   9.736  17.830  0.00  0.00    +0.000 N 
ATOM     16  H   UNL     1       9.141   9.643  16.868  0.00  0.00    +0.000 HD
BRANCH  15  17
ATOM     17  C   UNL     1       9.218  10.974  18.490  0.00  0.00    +0.000 C 
BRANCH  17  18
ATOM     18  C   UNL     1      10.462  11.582  17.798  0.00  0.00    +0.000 C 
ATOM     19  C   UNL     1      10.288  13.074  17.470  0.00  0.00    +0.000 C 
ATOM     20  C   UNL     1      10.288  13.956  18.716  0.00  0.00    +0.000 C 
ATOM     21  C   UNL     1      11.525  13.731  19.581  0.00  0.00    +0.000 C 
ATOM     22  C   UNL     1      11.786  12.258  19.882  0.00  0.00    +0.000 C 
ATOM     23  C   UNL     1      11.743  11.389  18.627  0.00  0.00    +0.000 C 
ENDBRANCH  17  18
ENDBRANCH  15  17
ENDBRANCH  14  15
ENDBRANCH   2  13
BRANCH   1  24
ATOM     24  C   UNL     1       5.697   6.160  16.181  0.00  0.00    +0.000 C 
BRANCH  24  25
ATOM     25  C   UNL     1       6.292   5.067  15.291  0.00  0.00    +0.000 C 
ATOM     26  N   UNL     1       7.443   5.372  14.623  0.00  0.00    +0.000 N 
ATOM     27  O   UNL     1       5.732   3.990  15.107  0.00  0.00    +0.000 OA
ATOM     28  H   UNL     1       7.930   6.249  14.758  0.00  0.00    +0.000 HD
ATOM     29  H   UNL     1       7.856   4.667  14.023  0.00  0.00    +0.000 HD
ENDBRANCH  24  25
ENDBRANCH   1  24
TORSDOF 9
ENDMDL
MODEL 5
REMARK VINA RESULT:      -6.9      1.198      1.873
REMARK  Name = 
REMARK  12 active torsions:
REMARK  status: ('A' for Active; 'I' for Inactive)
REMARK    1  A    between atoms: C_1  and  C_2
REMARK    2  A    between atoms: C_2  and  C_3
REMARK    3  A    between atoms: C_2  and  C_4
REMARK    4  A    between atoms: C_2  and  O_5
REMARK    5  A    between atoms: O_5  and  C_6
REMARK    6  A    between atoms: N_8  and  N_9
REMARK    7  A    between atoms: N_9  and  C_10
REMARK    8  A    between atoms: C_10  and  C_11
REMARK    9  A    between atoms: C_14  and  C_16
REMARK   10  A    between atoms: C_17  and  N_18
REMARK   11  A    between atoms: N_18  and  C_19
REMARK   12  A    between atoms: C_19  and  C_20
REMARK                            x       y       z     vdW  Elec       q    Type
REMARK                         _______ _______ _______ _____ _____    ______ ____
ROOT
ATOM      1  N   UNL     1       5.509   5.668  17.385  0.00  0.00    +0.000 N 
ATOM      2  C   UNL     1       6.518   5.773  18.358  0.00  0.00    +0.000 C 
ATOM      3  O   UNL     1       6.531   5.112  19.394  0.00  0.00    +0.000 OA
ENDROOT
BRANCH   1   6
ATOM      4  C   UNL     1       3.204   5.001  17.918  0.00  0.00    +0.000 C 
ATOM      5  O   UNL     1       2.743   6.131  17.841  0.00  0.00    +0.000 OA
ATOM      6  N   UNL     1       4.505   4.661  17.602  0.00  0.00    +0.000 N 
ATOM      7  H   UNL     1       4.817   3.739  17.875  0.00  0.00    +0.000 HD
BRANCH   4   8
ATOM      8  O   UNL     1       2.514   3.883  18.283  0.00  0.00    +0.000 OA
BRANCH   8  10
ATOM      9  C   UNL     1       3.582   2.523  20.067  0.00  0.00    +0.000 C 
ATOM     10  C   UNL     1       2.435   3.465  19.680  0.00  0.00    +0.000 C 
ATOM     11  C   UNL     1       1.065   2.850  19.991  0.00  0.00    +0.000 C 
ATOM     12  C   UNL     1       2.582   4.743  20.530  0.00  0.00    +0.000 C 
ENDBRANCH   8  10
ENDBRANCH   4   8
ENDBRANCH   1   6
BRANCH   2  13
ATOM     13  C   UNL     1       7.599   6.766  18.070  0.00  0.00    +0.000 C 
ATOM     14  C   UNL     1       7.383   8.081  17.916  0.00  0.00    +0.000 C 
BRANCH  14  15
ATOM     15  N   UNL     1       8.371   9.000  17.633  0.00  0.00    +0.000 N 
ATOM     16  H   UNL     1       9.160   8.664  17.093  0.00  0.00    +0.000 HD
BRANCH  15  17
ATOM     17  C   UNL     1       8.469  10.375  18.096  0.00  0.00    +0.000 C 
BRANCH  17  18
ATOM     18  C   UNL     1       9.878  10.638  18.679  0.00  0.00    +0.000 C 
ATOM     19  C   UNL     1      10.723  11.566  17.791  0.00  0.00    +0.000 C 
ATOM     20  C   UNL     1      10.220  13.007  17.797  0.00  0.00    +0.000 C 
ATOM     21  C   UNL     1      10.100  13.570  19.212  0.00  0.00    +0.000 C 
ATOM     22  C   UNL     1       9.326  12.654  20.157  0.00  0.00    +0.000 C 
ATOM     23  C   UNL     1       9.821  11.210  20.105  0.00  0.00    +0.000 C 
ENDBRANCH  17  18
ENDBRANCH  15  17
ENDBRANCH  14  15
ENDBRANCH   2  13
BRANCH   1  24
ATOM     24  C   UNL     1       5.724   5.930  15.950  0.00  0.00    +0.000 C 
BRANCH  24  25
ATOM     25  C   UNL     1       6.540   4.872  15.204  0.00  0.00    +0.000 C 
ATOM     26  N   UNL     1       7.590   5.317  14.455  0.00  0.00    +0.000 N 
ATOM     27  O   UNL     1       6.230   3.685  15.200  0.00  0.00    +0.000 OA
ATOM     28  H   UNL     1       7.873   6.289  14.442  0.00  0.00    +0.000 HD
ATOM     29  H   UNL     1       8.144   4.637  13.947  0.00  0.00    +0.000 HD
ENDBRANCH  24  25
ENDBRANCH   1  24
TORSDOF 9
ENDMDL
MODEL 6
REMARK VINA RESULT:      -6.9      1.272      1.954
REMARK  Name = 
REMARK  12 active torsions:
REMARK  status: ('A' for Active; 'I' for Inactive)
REMARK    1  A    between atoms: C_1  and  C_2
REMARK    2  A    between atoms: C_2  and  C_3
REMARK    3  A    between atoms: C_2  and  C_4
REMARK    4  A    between atoms: C_2  and  O_5
REMARK    5  A    between atoms: O_5  and  C_6
REMARK    6  A    between atoms: N_8  and  N_9
REMARK    7  A    between atoms: N_9  and  C_10
REMARK    8  A    between atoms: C_10  and  C_11
REMARK    9  A    between atoms: C_14  and  C_16
REMARK   10  A    between atoms: C_17  and  N_18
REMARK   11  A    between atoms: N_18  and  C_19
REMARK   12  A    between atoms: C_19  and  C_20
REMARK                            x       y       z     vdW  Elec       q    Type
REMARK                         _______ _______ _______ _____ _____    ______ ____
ROOT
ATOM      1  N   UNL     1       5.424   5.342  16.735  0.00  0.00    +0.000 N 
ATOM      2  C   UNL     1       6.408   5.350  17.740  0.00  0.00    +0.000 C 
ATOM      3  O   UNL     1       6.408   4.574  18.693  0.00  0.00    +0.000 OA
ENDROOT
BRANCH   1   6
ATOM      4  C   UNL     1       3.219   4.513  17.436  0.00  0.00    +0.000 C 
ATOM      5  O   UNL     1       2.797   5.607  17.785  0.00  0.00    +0.000 OA
ATOM      6  N   UNL     1       4.433   4.303  16.811  0.00  0.00    +0.000 N 
ATOM      7  H   UNL     1       4.749   3.345  16.735  0.00  0.00    +0.000 HD
BRANCH   4   8
ATOM      8  O   UNL     1       2.557   3.327  17.564  0.00  0.00    +0.000 OA
BRANCH   8  10
ATOM      9  C   UNL     1       3.628   1.340  18.601  0.00  0.00    +0.000 C 
ATOM     10  C   UNL     1       2.668   2.524  18.777  0.00  0.00    +0.000 C 
ATOM     11  C   UNL     1       1.288   2.068  19.261  0.00  0.00    +0.000 C 
ATOM     12  C   UNL     1       3.267   3.445  19.860  0.00  0.00    +0.000 C 
ENDBRANCH   8  10
ENDBRANCH   4   8
ENDBRANCH   1   6
BRANCH   2  13
ATOM     13  C   UNL     1       7.478   6.384  17.593  0.00  0.00    +0.000 C 
ATOM     14  C   UNL     1       7.296   7.688  17.849  0.00  0.00    +0.000 C 
BRANCH  14  15
ATOM     15  N   UNL     1       8.274   8.650  17.700  0.00  0.00    +0.000 N 
ATOM     16  H   UNL     1       9.124   8.362  17.232  0.00  0.00    +0.000 HD
BRANCH  15  17
ATOM     17  C   UNL     1       8.272  10.009  18.218  0.00  0.00    +0.000 C 
BRANCH  17  18
ATOM     18  C   UNL     1       9.681  10.375  18.742  0.00  0.00    +0.000 C 
ATOM     19  C   UNL     1      10.433  11.332  17.802  0.00  0.00    +0.000 C 
ATOM     20  C   UNL     1       9.839  12.738  17.791  0.00  0.00    +0.000 C 
ATOM     21  C   UNL     1       9.733  13.329  19.194  0.00  0.00    +0.000 C 
ATOM     22  C   UNL     1       9.054  12.392  20.189  0.00  0.00    +0.000 C 
ATOM     23  C   UNL     1       9.638  10.981  20.155  0.00  0.00    +0.000 C 
ENDBRANCH  17  18
ENDBRANCH  15  17
ENDBRANCH  14  15
ENDBRANCH   2  13
BRANCH   1  24
ATOM     24  C   UNL     1       5.668   5.769  15.346  0.00  0.00    +0.000 C 
BRANCH  24  25
ATOM     25  C   UNL     1       6.693   4.936  14.573  0.00  0.00    +0.000 C 
ATOM     26  N   UNL     1       6.338   3.656  14.259  0.00  0.00    +0.000 N 
ATOM     27  O   UNL     1       7.818   5.353  14.312  0.00  0.00    +0.000 OA
ATOM     28  H   UNL     1       5.417   3.286  14.456  0.00  0.00    +0.000 HD
ATOM     29  H   UNL     1       7.002   3.082  13.751  0.00  0.00    +0.000 HD
ENDBRANCH  24  25
ENDBRANCH   1  24
TORSDOF 9
ENDMDL
MODEL 7
REMARK VINA RESULT:      -6.9      1.386      1.753
REMARK  Name = 
REMARK  12 active torsions:
REMARK  status: ('A' for Active; 'I' for Inactive)
REMARK    1  A    between atoms: C_1  and  C_2
REMARK    2  A    between atoms: C_2  and  C_3
REMARK    3  A    between atoms: C_2  and  C_4
REMARK    4  A    between atoms: C_2  and  O_5
REMARK    5  A    between atoms: O_5  and  C_6
REMARK    6  A    between atoms: N_8  and  N_9
REMARK    7  A    between atoms: N_9  and  C_10
REMARK    8  A    between atoms: C_10  and  C_11
REMARK    9  A    between atoms: C_14  and  C_16
REMARK   10  A    between atoms: C_17  and  N_18
REMARK   11  A    between atoms: N_18  and  C_19
REMARK   12  A    between atoms: C_19  and  C_20
REMARK                            x       y       z     vdW  Elec       q    Type
REMARK                         _______ _______ _______ _____ _____    ______ ____
ROOT
ATOM      1  N   UNL     1       5.958   5.978  17.798  0.00  0.00    +0.000 N 
ATOM      2  C   UNL     1       7.175   6.268  18.440  0.00  0.00    +0.000 C 
ATOM      3  O   UNL     1       7.577   5.666  19.432  0.00  0.00    +0.000 OA
ENDROOT
BRANCH   1   6
ATOM      4  C   UNL     1       4.091   5.031  19.086  0.00  0.00    +0.000 C 
ATOM      5  O   UNL     1       3.517   6.099  19.248  0.00  0.00    +0.000 OA
ATOM      6  N   UNL     1       5.215   4.855  18.301  0.00  0.00    +0.000 N 
ATOM      7  H   UNL     1       5.699   3.972  18.388  0.00  0.00    +0.000 HD
BRANCH   4   8
ATOM      8  O   UNL     1       3.704   3.832  19.608  0.00  0.00    +0.000 OA
BRANCH   8  10
ATOM      9  C   UNL     1       3.485   1.699  18.354  0.00  0.00    +0.000 C 
ATOM     10  C   UNL     1       2.784   2.954  18.891  0.00  0.00    +0.000 C 
ATOM     11  C   UNL     1       2.053   3.715  17.780  0.00  0.00    +0.000 C 
ATOM     12  C   UNL     1       1.730   2.490  19.917  0.00  0.00    +0.000 C 
ENDBRANCH   8  10
ENDBRANCH   4   8
ENDBRANCH   1   6
BRANCH   2  13
ATOM     13  C   UNL     1       7.973   7.385  17.846  0.00  0.00    +0.000 C 
ATOM     14  C   UNL     1       8.125   8.585  18.427  0.00  0.00    +0.000 C 
BRANCH  14  15
ATOM     15  N   UNL     1       8.845   9.625  17.877  0.00  0.00    +0.000 N 
ATOM     16  H   UNL     1       9.492   9.386  17.135  0.00  0.00    +0.000 HD
BRANCH  15  17
ATOM     17  C   UNL     1       8.861  11.017  18.297  0.00  0.00    +0.000 C 
BRANCH  17  18
ATOM     18  C   UNL     1      10.198  11.678  17.884  0.00  0.00    +0.000 C 
ATOM     19  C   UNL     1      10.093  13.208  17.775  0.00  0.00    +0.000 C 
ATOM     20  C   UNL     1       9.931  13.888  19.132  0.00  0.00    +0.000 C 
ATOM     21  C   UNL     1      11.032  13.488  20.112  0.00  0.00    +0.000 C 
ATOM     22  C   UNL     1      11.226  11.978  20.210  0.00  0.00    +0.000 C 
ATOM     23  C   UNL     1      11.347  11.314  18.840  0.00  0.00    +0.000 C 
ENDBRANCH  17  18
ENDBRANCH  15  17
ENDBRANCH  14  15
ENDBRANCH   2  13
BRANCH   1  24
ATOM     24  C   UNL     1       5.717   6.198  16.361  0.00  0.00    +0.000 C 
BRANCH  24  25
ATOM     25  C   UNL     1       6.306   5.137  15.427  0.00  0.00    +0.000 C 
ATOM     26  N   UNL     1       5.424   4.289  14.822  0.00  0.00    +0.000 N 
ATOM     27  O   UNL     1       7.515   4.987  15.281  0.00  0.00    +0.000 OA
ATOM     28  H   UNL     1       4.422   4.391  14.918  0.00  0.00    +0.000 HD
ATOM     29  H   UNL     1       5.789   3.574  14.202  0.00  0.00    +0.000 HD
ENDBRANCH  24  25
ENDBRANCH   1  24
TORSDOF 9
ENDMDL
MODEL 8
REMARK VINA RESULT:      -6.8      1.178      1.679
REMARK  Name = 
REMARK  12 active torsions:
REMARK  status: ('A' for Active; 'I' for Inactive)
REMARK    1  A    between atoms: C_1  and  C_2
REMARK    2  A    between atoms: C_2  and  C_3
REMARK    3  A    between atoms: C_2  and  C_4
REMARK    4  A    between atoms: C_2  and  O_5
REMARK    5  A    between atoms: O_5  and  C_6
REMARK    6  A    between atoms: N_8  and  N_9
REMARK    7  A    between atoms: N_9  and  C_10
REMARK    8  A    between atoms: C_10  and  C_11
REMARK    9  A    between atoms: C_14  and  C_16
REMARK   10  A    between atoms: C_17  and  N_18
REMARK   11  A    between atoms: N_18  and  C_19
REMARK   12  A    between atoms: C_19  and  C_20
REMARK                            x       y       z     vdW  Elec       q    Type
REMARK                         _______ _______ _______ _____ _____    ______ ____
ROOT
ATOM      1  N   UNL     1       5.232   5.731  16.881  0.00  0.00    +0.000 N 
ATOM      2  C   UNL     1       6.172   6.168  17.831  0.00  0.00    +0.000 C 
ATOM      3  O   UNL     1       6.287   5.670  18.948  0.00  0.00    +0.000 OA
ENDROOT
BRANCH   1   6
ATOM      4  C   UNL     1       3.163   4.719  17.739  0.00  0.00    +0.000 C 
ATOM      5  O   UNL     1       2.522   5.761  17.736  0.00  0.00    +0.000 OA
ATOM      6  N   UNL     1       4.442   4.582  17.236  0.00  0.00    +0.000 N 
ATOM      7  H   UNL     1       4.932   3.725  17.456  0.00  0.00    +0.000 HD
BRANCH   4   8
ATOM      8  O   UNL     1       2.719   3.513  18.195  0.00  0.00    +0.000 OA
BRANCH   8  10
ATOM      9  C   UNL     1       2.610   4.420  20.505  0.00  0.00    +0.000 C 
ATOM     10  C   UNL     1       2.757   3.179  19.616  0.00  0.00    +0.000 C 
ATOM     11  C   UNL     1       4.020   2.381  19.958  0.00  0.00    +0.000 C 
ATOM     12  C   UNL     1       1.539   2.272  19.886  0.00  0.00    +0.000 C 
ENDBRANCH   8  10
ENDBRANCH   4   8
ENDBRANCH   1   6
BRANCH   2  13
ATOM     13  C   UNL     1       7.042   7.308  17.408  0.00  0.00    +0.000 C 
ATOM     14  C   UNL     1       7.909   7.928  18.222  0.00  0.00    +0.000 C 
BRANCH  14  15
ATOM     15  N   UNL     1       8.702   8.992  17.843  0.00  0.00    +0.000 N 
ATOM     16  H   UNL     1       9.455   8.788  17.198  0.00  0.00    +0.000 HD
BRANCH  15  17
ATOM     17  C   UNL     1       8.648  10.361  18.332  0.00  0.00    +0.000 C 
BRANCH  17  18
ATOM     18  C   UNL     1      10.057  10.816  18.782  0.00  0.00    +0.000 C 
ATOM     19  C   UNL     1      10.744  11.726  17.751  0.00  0.00    +0.000 C 
ATOM     20  C   UNL     1      10.096  13.105  17.656  0.00  0.00    +0.000 C 
ATOM     21  C   UNL     1      10.008  13.795  19.016  0.00  0.00    +0.000 C 
ATOM     22  C   UNL     1       9.395  12.910  20.098  0.00  0.00    +0.000 C 
ATOM     23  C   UNL     1      10.031  11.523  20.148  0.00  0.00    +0.000 C 
ENDBRANCH  17  18
ENDBRANCH  15  17
ENDBRANCH  14  15
ENDBRANCH   2  13
BRANCH   1  24
ATOM     24  C   UNL     1       5.431   5.832  15.424  0.00  0.00    +0.000 C 
BRANCH  24  25
ATOM     25  C   UNL     1       6.424   4.834  14.826  0.00  0.00    +0.000 C 
ATOM     26  N   UNL     1       7.585   5.344  14.320  0.00  0.00    +0.000 N 
ATOM     27  O   UNL     1       6.172   3.637  14.721  0.00  0.00    +0.000 OA
ATOM     28  H   UNL     1       7.824   6.325  14.396  0.00  0.00    +0.000 HD
ATOM     29  H   UNL     1       8.258   4.704  13.914  0.00  0.00    +0.000 HD
ENDBRANCH  24  25
ENDBRANCH   1  24
TORSDOF 9
ENDMDL
MODEL 9
REMARK VINA RESULT:      -6.8      1.108      1.370
REMARK  Name = 
REMARK  12 active torsions:
REMARK  status: ('A' for Active; 'I' for Inactive)
REMARK    1  A    between atoms: C_1  and  C_2
REMARK    2  A    between atoms: C_2  and  C_3
REMARK    3  A    between atoms: C_2  and  C_4
REMARK    4  A    between atoms: C_2  and  O_5
REMARK    5  A    between atoms: O_5  and  C_6
REMARK    6  A    between atoms: N_8  and  N_9
REMARK    7  A    between atoms: N_9  and  C_10
REMARK    8  A    between atoms: C_10  and  C_11
REMARK    9  A    between atoms: C_14  and  C_16
REMARK   10  A    between atoms: C_17  and  N_18
REMARK   11  A    between atoms: N_18  and  C_19
REMARK   12  A    between atoms: C_19  and  C_20
REMARK                            x       y       z     vdW  Elec       q    Type
REMARK                         _______ _______ _______ _____ _____    ______ ____
ROOT
ATOM      1  N   UNL     1       5.560   5.454  16.530  0.00  0.00    +0.000 N 
ATOM      2  C   UNL     1       6.438   5.892  17.536  0.00  0.00    +0.000 C 
ATOM      3  O   UNL     1       6.647   5.266  18.573  0.00  0.00    +0.000 OA
ENDROOT
BRANCH   1   6
ATOM      4  C   UNL     1       3.689   4.025  17.237  0.00  0.00    +0.000 C 
ATOM      5  O   UNL     1       2.900   4.946  17.389  0.00  0.00    +0.000 OA
ATOM      6  N   UNL     1       4.961   4.159  16.714  0.00  0.00    +0.000 N 
ATOM      7  H   UNL     1       5.580   3.364  16.805  0.00  0.00    +0.000 HD
BRANCH   4   8
ATOM      8  O   UNL     1       3.444   2.712  17.512  0.00  0.00    +0.000 OA
BRANCH   8  10
ATOM      9  C   UNL     1       4.068   3.196  19.867  0.00  0.00    +0.000 C 
ATOM     10  C   UNL     1       3.408   2.219  18.886  0.00  0.00    +0.000 C 
ATOM     11  C   UNL     1       4.019   0.817  18.982  0.00  0.00    +0.000 C 
ATOM     12  C   UNL     1       1.918   2.112  19.275  0.00  0.00    +0.000 C 
ENDBRANCH   8  10
ENDBRANCH   4   8
ENDBRANCH   1   6
BRANCH   2  13
ATOM     13  C   UNL     1       7.116   7.201  17.283  0.00  0.00    +0.000 C 
ATOM     14  C   UNL     1       7.854   7.849  18.197  0.00  0.00    +0.000 C 
BRANCH  14  15
ATOM     15  N   UNL     1       8.467   9.065  17.976  0.00  0.00    +0.000 N 
ATOM     16  H   UNL     1       8.563   9.355  17.010  0.00  0.00    +0.000 HD
BRANCH  15  17
ATOM     17  C   UNL     1       9.082   9.944  18.958  0.00  0.00    +0.000 C 
BRANCH  17  18
ATOM     18  C   UNL     1       9.849  11.080  18.242  0.00  0.00    +0.000 C 
ATOM     19  C   UNL     1       9.055  12.396  18.199  0.00  0.00    +0.000 C 
ATOM     20  C   UNL     1       8.930  13.056  19.570  0.00  0.00    +0.000 C 
ATOM     21  C   UNL     1      10.289  13.264  20.235  0.00  0.00    +0.000 C 
ATOM     22  C   UNL     1      11.150  12.004  20.245  0.00  0.00    +0.000 C 
ATOM     23  C   UNL     1      11.229  11.339  18.872  0.00  0.00    +0.000 C 
ENDBRANCH  17  18
ENDBRANCH  15  17
ENDBRANCH  14  15
ENDBRANCH   2  13
BRANCH   1  24
ATOM     24  C   UNL     1       5.717   5.789  15.103  0.00  0.00    +0.000 C 
BRANCH  24  25
ATOM     25  C   UNL     1       6.669   4.885  14.317  0.00  0.00    +0.000 C 
ATOM     26  N   UNL     1       7.844   5.441  13.899  0.00  0.00    +0.000 N 
ATOM     27  O   UNL     1       6.373   3.738  13.995  0.00  0.00    +0.000 OA
ATOM     28  H   UNL     1       8.118   6.382  14.152  0.00  0.00    +0.000 HD
ATOM     29  H   UNL     1       8.491   4.864  13.372  0.00  0.00    +0.000 HD
ENDBRANCH  24  25
ENDBRANCH   1  24
TORSDOF 9
ENDMDL
