MODEL 1
REMARK VINA RESULT:      -7.4      0.000      0.000
REMARK  Name = 
REMARK  8 active torsions:
REMARK  status: ('A' for Active; 'I' for Inactive)
REMARK    1  A    between atoms: C_1  and  O_2
REMARK    2  A    between atoms: O_2  and  C_3
REMARK    3  A    between atoms: C_9  and  C_10
REMARK    4  A    between atoms: C_10  and  C_11
REMARK    5  A    between atoms: C_10  and  N_14
REMARK    6  A    between atoms: C_11  and  O_13
REMARK    7  A    between atoms: C_17  and  O_18
REMARK    8  A    between atoms: O_18  and  C_19
REMARK                            x       y       z     vdW  Elec       q    Type
REMARK                         _______ _______ _______ _____ _____    ______ ____
ROOT
ATOM      1  C   UNL     1       4.608   3.538  19.095  0.00  0.00    +0.000 C 
ENDROOT
BRANCH   1   8
ATOM      2  C   UNL     1       6.691   4.634  17.898  0.00  0.00    +0.000 A 
ATOM      3  C   UNL     1       7.332   4.958  16.694  0.00  0.00    +0.000 A 
ATOM      4  C   UNL     1       6.737   4.657  15.476  0.00  0.00    +0.000 A 
ATOM      5  F   UNL     1       7.368   4.978  14.337  0.00  0.00    +0.000 F 
ATOM      6  C   UNL     1       5.514   4.017  15.420  0.00  0.00    +0.000 A 
ATOM      7  C   UNL     1       4.875   3.679  16.610  0.00  0.00    +0.000 A 
ATOM      8  C   UNL     1       5.434   3.989  17.877  0.00  0.00    +0.000 A 
BRANCH   2  10
ATOM      9  C   UNL     1       7.991   6.102  19.256  0.00  0.00    +0.000 C 
ATOM     10  O   UNL     1       7.271   4.872  19.119  0.00  0.00    +0.000 OA
ENDBRANCH   2  10
ENDBRANCH   1   8
BRANCH   1  11
ATOM     11  N   UNL     1       3.218   4.099  19.093  0.00  0.00    +0.000 NA
ATOM     12  C   UNL     1       2.659   4.286  20.433  0.00  0.00    +0.000 C 
ATOM     13  C   UNL     1       1.234   4.817  20.377  0.00  0.00    +0.000 C 
ATOM     14  C   UNL     1       1.172   6.158  19.643  0.00  0.00    +0.000 C 
ATOM     15  C   UNL     1       1.732   5.930  18.236  0.00  0.00    +0.000 C 
ATOM     16  C   UNL     1       3.142   5.327  18.281  0.00  0.00    +0.000 C 
BRANCH  14  17
ATOM     17  O   UNL     1       1.990   7.162  20.264  0.00  0.00    +0.000 OA
BRANCH  17  18
ATOM     18  C   UNL     1       1.427   8.353  20.622  0.00  0.00    +0.000 A 
ATOM     19  C   UNL     1       1.204   9.439  19.774  0.00  0.00    +0.000 A 
ATOM     20  C   UNL     1       0.557  10.587  20.243  0.00  0.00    +0.000 A 
ATOM     21  C   UNL     1       0.158  10.667  21.574  0.00  0.00    +0.000 A 
ATOM     22  C   UNL     1       0.399   9.593  22.421  0.00  0.00    +0.000 A 
ATOM     23  F   UNL     1       0.029   9.675  23.705  0.00  0.00    +0.000 F 
ATOM     24  C   UNL     1       1.014   8.435  21.958  0.00  0.00    +0.000 A 
ENDBRANCH  17  18
ENDBRANCH  14  17
ENDBRANCH   1  11
BRANCH   1  25
ATOM     25  C   UNL     1       4.712   2.072  19.560  0.00  0.00    +0.000 C 
ATOM     26  O   UNL     1       5.222   1.757  20.633  0.00  0.00    +0.000 OA
BRANCH  25  27
ATOM     27  O   UNL     1       4.154   1.123  18.782  0.00  0.00    +0.000 OA
ATOM     28  H   UNL     1       3.183   1.087  18.926  0.00  0.00    +0.000 HD
ENDBRANCH  25  27
ENDBRANCH   1  25
TORSDOF 7
ENDMDL
MODEL 2
REMARK VINA RESULT:      -7.3      3.618      8.368
REMARK  Name = 
REMARK  8 active torsions:
REMARK  status: ('A' for Active; 'I' for Inactive)
REMARK    1  A    between atoms: C_1  and  O_2
REMARK    2  A    between atoms: O_2  and  C_3
REMARK    3  A    between atoms: C_9  and  C_10
REMARK    4  A    between atoms: C_10  and  C_11
REMARK    5  A    between atoms: C_10  and  N_14
REMARK    6  A    between atoms: C_11  and  O_13
REMARK    7  A    between atoms: C_17  and  O_18
REMARK    8  A    between atoms: O_18  and  C_19
REMARK                            x       y       z     vdW  Elec       q    Type
REMARK                         _______ _______ _______ _____ _____    ______ ____
ROOT
ATOM      1  C   UNL     1       0.341   9.422  20.169  0.00  0.00    +0.000 C 
ENDROOT
BRANCH   1   8
ATOM      2  C   UNL     1      -0.917  11.301  18.807  0.00  0.00    +0.000 A 
ATOM      3  C   UNL     1      -0.962  12.642  18.400  0.00  0.00    +0.000 A 
ATOM      4  C   UNL     1       0.040  13.527  18.777  0.00  0.00    +0.000 A 
ATOM      5  F   UNL     1      -0.024  14.804  18.375  0.00  0.00    +0.000 F 
ATOM      6  C   UNL     1       1.091  13.115  19.573  0.00  0.00    +0.000 A 
ATOM      7  C   UNL     1       1.138  11.788  19.994  0.00  0.00    +0.000 A 
ATOM      8  C   UNL     1       0.150  10.844  19.612  0.00  0.00    +0.000 A 
BRANCH   2  10
ATOM      9  C   UNL     1      -1.937   9.924  17.148  0.00  0.00    +0.000 C 
ATOM     10  O   UNL     1      -1.914  10.412  18.494  0.00  0.00    +0.000 OA
ENDBRANCH   2  10
ENDBRANCH   1   8
BRANCH   1  11
ATOM     11  N   UNL     1       1.577   8.755  19.645  0.00  0.00    +0.000 NA
ATOM     12  C   UNL     1       1.863   7.467  20.279  0.00  0.00    +0.000 C 
ATOM     13  C   UNL     1       3.146   6.850  19.742  0.00  0.00    +0.000 C 
ATOM     14  C   UNL     1       3.065   6.629  18.230  0.00  0.00    +0.000 C 
ATOM     15  C   UNL     1       2.797   7.994  17.588  0.00  0.00    +0.000 C 
ATOM     16  C   UNL     1       1.543   8.656  18.174  0.00  0.00    +0.000 C 
BRANCH  14  17
ATOM     17  O   UNL     1       1.976   5.768  17.859  0.00  0.00    +0.000 OA
BRANCH  17  18
ATOM     18  C   UNL     1       1.943   4.491  18.340  0.00  0.00    +0.000 A 
ATOM     19  C   UNL     1       1.060   4.005  19.305  0.00  0.00    +0.000 A 
ATOM     20  C   UNL     1       1.078   2.655  19.671  0.00  0.00    +0.000 A 
ATOM     21  C   UNL     1       2.004   1.790  19.096  0.00  0.00    +0.000 A 
ATOM     22  C   UNL     1       2.895   2.281  18.150  0.00  0.00    +0.000 A 
ATOM     23  F   UNL     1       3.796   1.453  17.607  0.00  0.00    +0.000 F 
ATOM     24  C   UNL     1       2.865   3.613  17.756  0.00  0.00    +0.000 A 
ENDBRANCH  17  18
ENDBRANCH  14  17
ENDBRANCH   1  11
BRANCH   1  25
ATOM     25  C   UNL     1       0.054   9.164  21.661  0.00  0.00    +0.000 C 
ATOM     26  O   UNL     1      -0.783   8.348  22.039  0.00  0.00    +0.000 OA
BRANCH  25  27
ATOM     27  O   UNL     1       0.807   9.816  22.570  0.00  0.00    +0.000 OA
ATOM     28  H   UNL     1       1.583  10.235  22.137  0.00  0.00    +0.000 HD
ENDBRANCH  25  27
ENDBRANCH   1  25
TORSDOF 7
ENDMDL
MODEL 3
REMARK VINA RESULT:      -7.3      3.970      8.249
REMARK  Name = 
REMARK  8 active torsions:
REMARK  status: ('A' for Active; 'I' for Inactive)
REMARK    1  A    between atoms: C_1  and  O_2
REMARK    2  A    between atoms: O_2  and  C_3
REMARK    3  A    between atoms: C_9  and  C_10
REMARK    4  A    between atoms: C_10  and  C_11
REMARK    5  A    between atoms: C_10  and  N_14
REMARK    6  A    between atoms: C_11  and  O_13
REMARK    7  A    between atoms: C_17  and  O_18
REMARK    8  A    between atoms: O_18  and  C_19
REMARK                            x       y       z     vdW  Elec       q    Type
REMARK                         _______ _______ _______ _____ _____    ______ ____
ROOT
ATOM      1  C   UNL     1       0.410   9.445  20.285  0.00  0.00    +0.000 C 
ENDROOT
BRANCH   1   8
ATOM      2  C   UNL     1      -0.967  11.106  18.763  0.00  0.00    +0.000 A 
ATOM      3  C   UNL     1      -1.125  12.410  18.271  0.00  0.00    +0.000 A 
ATOM      4  C   UNL     1      -0.229  13.410  18.626  0.00  0.00    +0.000 A 
ATOM      5  F   UNL     1      -0.400  14.649  18.142  0.00  0.00    +0.000 F 
ATOM      6  C   UNL     1       0.823  13.152  19.483  0.00  0.00    +0.000 A 
ATOM      7  C   UNL     1       0.981  11.863  19.988  0.00  0.00    +0.000 A 
ATOM      8  C   UNL     1       0.105  10.806  19.632  0.00  0.00    +0.000 A 
BRANCH   2  10
ATOM      9  C   UNL     1      -2.605  10.246  17.257  0.00  0.00    +0.000 C 
ATOM     10  O   UNL     1      -1.859  10.105  18.472  0.00  0.00    +0.000 OA
ENDBRANCH   2  10
ENDBRANCH   1   8
BRANCH   1  11
ATOM     11  N   UNL     1       1.609   8.772  19.688  0.00  0.00    +0.000 NA
ATOM     12  C   UNL     1       1.905   7.466  20.281  0.00  0.00    +0.000 C 
ATOM     13  C   UNL     1       3.151   6.842  19.672  0.00  0.00    +0.000 C 
ATOM     14  C   UNL     1       2.995   6.655  18.161  0.00  0.00    +0.000 C 
ATOM     15  C   UNL     1       2.719   8.037  17.561  0.00  0.00    +0.000 C 
ATOM     16  C   UNL     1       1.504   8.704  18.219  0.00  0.00    +0.000 C 
BRANCH  14  17
ATOM     17  O   UNL     1       1.877   5.818  17.824  0.00  0.00    +0.000 OA
BRANCH  17  18
ATOM     18  C   UNL     1       1.927   4.488  18.124  0.00  0.00    +0.000 A 
ATOM     19  C   UNL     1       2.514   3.495  17.338  0.00  0.00    +0.000 A 
ATOM     20  C   UNL     1       2.560   2.170  17.783  0.00  0.00    +0.000 A 
ATOM     21  C   UNL     1       1.989   1.825  19.005  0.00  0.00    +0.000 A 
ATOM     22  C   UNL     1       1.388   2.811  19.776  0.00  0.00    +0.000 A 
ATOM     23  F   UNL     1       0.826   2.477  20.944  0.00  0.00    +0.000 F 
ATOM     24  C   UNL     1       1.363   4.136  19.358  0.00  0.00    +0.000 A 
ENDBRANCH  17  18
ENDBRANCH  14  17
ENDBRANCH   1  11
BRANCH   1  25
ATOM     25  C   UNL     1       0.291   9.312  21.815  0.00  0.00    +0.000 C 
ATOM     26  O   UNL     1      -0.649   8.734  22.355  0.00  0.00    +0.000 OA
BRANCH  25  27
ATOM     27  O   UNL     1       1.301   9.792  22.570  0.00  0.00    +0.000 OA
ATOM     28  H   UNL     1       2.117   9.886  22.032  0.00  0.00    +0.000 HD
ENDBRANCH  25  27
ENDBRANCH   1  25
TORSDOF 7
ENDMDL
MODEL 4
REMARK VINA RESULT:      -7.2      1.461      1.809
REMARK  Name = 
REMARK  8 active torsions:
REMARK  status: ('A' for Active; 'I' for Inactive)
REMARK    1  A    between atoms: C_1  and  O_2
REMARK    2  A    between atoms: O_2  and  C_3
REMARK    3  A    between atoms: C_9  and  C_10
REMARK    4  A    between atoms: C_10  and  C_11
REMARK    5  A    between atoms: C_10  and  N_14
REMARK    6  A    between atoms: C_11  and  O_13
REMARK    7  A    between atoms: C_17  and  O_18
REMARK    8  A    between atoms: O_18  and  C_19
REMARK                            x       y       z     vdW  Elec       q    Type
REMARK                         _______ _______ _______ _____ _____    ______ ____
ROOT
ATOM      1  C   UNL     1       5.427   5.442  18.110  0.00  0.00    +0.000 C 
ENDROOT
BRANCH   1   8
ATOM      2  C   UNL     1       7.019   5.665  16.016  0.00  0.00    +0.000 A 
ATOM      3  C   UNL     1       7.303   5.285  14.697  0.00  0.00    +0.000 A 
ATOM      4  C   UNL     1       6.460   4.417  14.016  0.00  0.00    +0.000 A 
ATOM      5  F   UNL     1       6.751   4.070  12.754  0.00  0.00    +0.000 F 
ATOM      6  C   UNL     1       5.335   3.894  14.625  0.00  0.00    +0.000 A 
ATOM      7  C   UNL     1       5.052   4.254  15.940  0.00  0.00    +0.000 A 
ATOM      8  C   UNL     1       5.872   5.156  16.665  0.00  0.00    +0.000 A 
BRANCH   2  10
ATOM      9  C   UNL     1       7.321   7.744  17.145  0.00  0.00    +0.000 C 
ATOM     10  O   UNL     1       7.856   6.481  16.735  0.00  0.00    +0.000 OA
ENDBRANCH   2  10
ENDBRANCH   1   8
BRANCH   1  11
ATOM     11  N   UNL     1       3.948   5.656  18.231  0.00  0.00    +0.000 NA
ATOM     12  C   UNL     1       3.418   5.358  19.563  0.00  0.00    +0.000 C 
ATOM     13  C   UNL     1       1.911   5.550  19.622  0.00  0.00    +0.000 C 
ATOM     14  C   UNL     1       1.520   6.986  19.264  0.00  0.00    +0.000 C 
ATOM     15  C   UNL     1       2.057   7.262  17.857  0.00  0.00    +0.000 C 
ATOM     16  C   UNL     1       3.567   7.003  17.768  0.00  0.00    +0.000 C 
BRANCH  14  17
ATOM     17  O   UNL     1       2.121   7.953  20.141  0.00  0.00    +0.000 OA
BRANCH  17  18
ATOM     18  C   UNL     1       1.334   8.904  20.722  0.00  0.00    +0.000 A 
ATOM     19  C   UNL     1       0.769  10.004  20.074  0.00  0.00    +0.000 A 
ATOM     20  C   UNL     1      -0.077  10.879  20.763  0.00  0.00    +0.000 A 
ATOM     21  C   UNL     1      -0.336  10.677  22.115  0.00  0.00    +0.000 A 
ATOM     22  C   UNL     1       0.243   9.594  22.763  0.00  0.00    +0.000 A 
ATOM     23  F   UNL     1       0.005   9.407  24.067  0.00  0.00    +0.000 F 
ATOM     24  C   UNL     1       1.060   8.700  22.081  0.00  0.00    +0.000 A 
ENDBRANCH  17  18
ENDBRANCH  14  17
ENDBRANCH   1  11
BRANCH   1  25
ATOM     25  C   UNL     1       6.055   4.625  19.256  0.00  0.00    +0.000 C 
ATOM     26  O   UNL     1       6.882   5.104  20.029  0.00  0.00    +0.000 OA
BRANCH  25  27
ATOM     27  O   UNL     1       5.618   3.363  19.444  0.00  0.00    +0.000 OA
ATOM     28  H   UNL     1       6.169   2.905  20.116  0.00  0.00    +0.000 HD
ENDBRANCH  25  27
ENDBRANCH   1  25
TORSDOF 7
ENDMDL
MODEL 5
REMARK VINA RESULT:      -7.2      2.252      7.878
REMARK  Name = 
REMARK  8 active torsions:
REMARK  status: ('A' for Active; 'I' for Inactive)
REMARK    1  A    between atoms: C_1  and  O_2
REMARK    2  A    between atoms: O_2  and  C_3
REMARK    3  A    between atoms: C_9  and  C_10
REMARK    4  A    between atoms: C_10  and  C_11
REMARK    5  A    between atoms: C_10  and  N_14
REMARK    6  A    between atoms: C_11  and  O_13
REMARK    7  A    between atoms: C_17  and  O_18
REMARK    8  A    between atoms: O_18  and  C_19
REMARK                            x       y       z     vdW  Elec       q    Type
REMARK                         _______ _______ _______ _____ _____    ______ ____
ROOT
ATOM      1  C   UNL     1       3.865   4.304  18.597  0.00  0.00    +0.000 C 
ENDROOT
BRANCH   1   8
ATOM      2  C   UNL     1       1.761   4.575  20.167  0.00  0.00    +0.000 A 
ATOM      3  C   UNL     1       0.904   5.440  20.864  0.00  0.00    +0.000 A 
ATOM      4  C   UNL     1       1.084   6.815  20.797  0.00  0.00    +0.000 A 
ATOM      5  F   UNL     1       0.252   7.622  21.470  0.00  0.00    +0.000 F 
ATOM      6  C   UNL     1       2.117   7.362  20.061  0.00  0.00    +0.000 A 
ATOM      7  C   UNL     1       2.982   6.512  19.376  0.00  0.00    +0.000 A 
ATOM      8  C   UNL     1       2.820   5.103  19.396  0.00  0.00    +0.000 A 
BRANCH   2  10
ATOM      9  C   UNL     1       1.528   2.657  21.566  0.00  0.00    +0.000 C 
ATOM     10  O   UNL     1       1.642   3.210  20.251  0.00  0.00    +0.000 OA
ENDBRANCH   2  10
ENDBRANCH   1   8
BRANCH   1  11
ATOM     11  N   UNL     1       4.953   5.170  18.038  0.00  0.00    +0.000 NA
ATOM     12  C   UNL     1       6.302   4.673  18.318  0.00  0.00    +0.000 C 
ATOM     13  C   UNL     1       7.369   5.605  17.766  0.00  0.00    +0.000 C 
ATOM     14  C   UNL     1       7.229   5.774  16.252  0.00  0.00    +0.000 C 
ATOM     15  C   UNL     1       5.825   6.324  15.987  0.00  0.00    +0.000 C 
ATOM     16  C   UNL     1       4.742   5.426  16.601  0.00  0.00    +0.000 C 
BRANCH  14  17
ATOM     17  O   UNL     1       7.332   4.525  15.549  0.00  0.00    +0.000 OA
BRANCH  17  18
ATOM     18  C   UNL     1       7.187   4.510  14.192  0.00  0.00    +0.000 A 
ATOM     19  C   UNL     1       7.895   5.302  13.287  0.00  0.00    +0.000 A 
ATOM     20  C   UNL     1       7.706   5.150  11.909  0.00  0.00    +0.000 A 
ATOM     21  C   UNL     1       6.781   4.226  11.431  0.00  0.00    +0.000 A 
ATOM     22  C   UNL     1       6.063   3.454  12.335  0.00  0.00    +0.000 A 
ATOM     23  F   UNL     1       5.163   2.576  11.876  0.00  0.00    +0.000 F 
ATOM     24  C   UNL     1       6.266   3.575  13.704  0.00  0.00    +0.000 A 
ENDBRANCH  17  18
ENDBRANCH  14  17
ENDBRANCH   1  11
BRANCH   1  25
ATOM     25  C   UNL     1       4.341   2.945  19.147  0.00  0.00    +0.000 C 
ATOM     26  O   UNL     1       4.942   2.842  20.215  0.00  0.00    +0.000 OA
BRANCH  25  27
ATOM     27  O   UNL     1       4.016   1.835  18.455  0.00  0.00    +0.000 OA
ATOM     28  H   UNL     1       3.326   2.037  17.786  0.00  0.00    +0.000 HD
ENDBRANCH  25  27
ENDBRANCH   1  25
TORSDOF 7
ENDMDL
MODEL 6
REMARK VINA RESULT:      -7.1      1.020      1.371
REMARK  Name = 
REMARK  8 active torsions:
REMARK  status: ('A' for Active; 'I' for Inactive)
REMARK    1  A    between atoms: C_1  and  O_2
REMARK    2  A    between atoms: O_2  and  C_3
REMARK    3  A    between atoms: C_9  and  C_10
REMARK    4  A    between atoms: C_10  and  C_11
REMARK    5  A    between atoms: C_10  and  N_14
REMARK    6  A    between atoms: C_11  and  O_13
REMARK    7  A    between atoms: C_17  and  O_18
REMARK    8  A    between atoms: O_18  and  C_19
REMARK                            x       y       z     vdW  Elec       q    Type
REMARK                         _______ _______ _______ _____ _____    ______ ____
ROOT
ATOM      1  C   UNL     1       4.612   3.472  19.177  0.00  0.00    +0.000 C 
ENDROOT
BRANCH   1   8
ATOM      2  C   UNL     1       6.621   4.742  18.030  0.00  0.00    +0.000 A 
ATOM      3  C   UNL     1       7.288   5.081  16.844  0.00  0.00    +0.000 A 
ATOM      4  C   UNL     1       6.801   4.657  15.615  0.00  0.00    +0.000 A 
ATOM      5  F   UNL     1       7.454   4.994  14.494  0.00  0.00    +0.000 F 
ATOM      6  C   UNL     1       5.662   3.878  15.532  0.00  0.00    +0.000 A 
ATOM      7  C   UNL     1       5.000   3.524  16.705  0.00  0.00    +0.000 A 
ATOM      8  C   UNL     1       5.448   3.957  17.979  0.00  0.00    +0.000 A 
BRANCH   2  10
ATOM      9  C   UNL     1       8.124   6.106  19.284  0.00  0.00    +0.000 C 
ATOM     10  O   UNL     1       7.102   5.104  19.263  0.00  0.00    +0.000 OA
ENDBRANCH   2  10
ENDBRANCH   1   8
BRANCH   1  11
ATOM     11  N   UNL     1       3.220   4.029  19.176  0.00  0.00    +0.000 NA
ATOM     12  C   UNL     1       2.671   4.238  20.517  0.00  0.00    +0.000 C 
ATOM     13  C   UNL     1       1.245   4.766  20.463  0.00  0.00    +0.000 C 
ATOM     14  C   UNL     1       1.174   6.094  19.706  0.00  0.00    +0.000 C 
ATOM     15  C   UNL     1       1.723   5.842  18.299  0.00  0.00    +0.000 C 
ATOM     16  C   UNL     1       3.135   5.244  18.344  0.00  0.00    +0.000 C 
BRANCH  14  17
ATOM     17  O   UNL     1       1.995   7.110  20.304  0.00  0.00    +0.000 OA
BRANCH  17  18
ATOM     18  C   UNL     1       1.431   8.304  20.650  0.00  0.00    +0.000 A 
ATOM     19  C   UNL     1       1.041   8.680  21.936  0.00  0.00    +0.000 A 
ATOM     20  C   UNL     1       0.534   9.961  22.181  0.00  0.00    +0.000 A 
ATOM     21  C   UNL     1       0.383  10.861  21.131  0.00  0.00    +0.000 A 
ATOM     22  C   UNL     1       0.752  10.478  19.848  0.00  0.00    +0.000 A 
ATOM     23  F   UNL     1       0.594  11.339  18.836  0.00  0.00    +0.000 F 
ATOM     24  C   UNL     1       1.287   9.219  19.599  0.00  0.00    +0.000 A 
ENDBRANCH  17  18
ENDBRANCH  14  17
ENDBRANCH   1  11
BRANCH   1  25
ATOM     25  C   UNL     1       4.714   1.994  19.603  0.00  0.00    +0.000 C 
ATOM     26  O   UNL     1       5.225   1.650  20.666  0.00  0.00    +0.000 OA
BRANCH  25  27
ATOM     27  O   UNL     1       4.152   1.066  18.802  0.00  0.00    +0.000 OA
ATOM     28  H   UNL     1       3.358   1.433  18.356  0.00  0.00    +0.000 HD
ENDBRANCH  25  27
ENDBRANCH   1  25
TORSDOF 7
ENDMDL
MODEL 7
REMARK VINA RESULT:      -7.0      3.123      6.551
REMARK  Name = 
REMARK  8 active torsions:
REMARK  status: ('A' for Active; 'I' for Inactive)
REMARK    1  A    between atoms: C_1  and  O_2
REMARK    2  A    between atoms: O_2  and  C_3
REMARK    3  A    between atoms: C_9  and  C_10
REMARK    4  A    between atoms: C_10  and  C_11
REMARK    5  A    between atoms: C_10  and  N_14
REMARK    6  A    between atoms: C_11  and  O_13
REMARK    7  A    between atoms: C_17  and  O_18
REMARK    8  A    between atoms: O_18  and  C_19
REMARK                            x       y       z     vdW  Elec       q    Type
REMARK                         _______ _______ _______ _____ _____    ______ ____
ROOT
ATOM      1  C   UNL     1       3.729   4.814  17.520  0.00  0.00    +0.000 C 
ENDROOT
BRANCH   1   8
ATOM      2  C   UNL     1       2.508   5.393  19.788  0.00  0.00    +0.000 A 
ATOM      3  C   UNL     1       1.891   6.365  20.588  0.00  0.00    +0.000 A 
ATOM      4  C   UNL     1       1.755   7.670  20.133  0.00  0.00    +0.000 A 
ATOM      5  F   UNL     1       1.161   8.582  20.915  0.00  0.00    +0.000 F 
ATOM      6  C   UNL     1       2.239   8.046  18.895  0.00  0.00    +0.000 A 
ATOM      7  C   UNL     1       2.866   7.091  18.097  0.00  0.00    +0.000 A 
ATOM      8  C   UNL     1       3.004   5.741  18.512  0.00  0.00    +0.000 A 
BRANCH   2  10
ATOM      9  C   UNL     1       2.193   3.788  21.524  0.00  0.00    +0.000 C 
ATOM     10  O   UNL     1       2.703   4.107  20.225  0.00  0.00    +0.000 OA
ENDBRANCH   2  10
ENDBRANCH   1   8
BRANCH   1  11
ATOM     11  N   UNL     1       5.214   5.019  17.515  0.00  0.00    +0.000 NA
ATOM     12  C   UNL     1       5.713   5.670  16.302  0.00  0.00    +0.000 C 
ATOM     13  C   UNL     1       7.227   5.818  16.327  0.00  0.00    +0.000 C 
ATOM     14  C   UNL     1       7.683   6.643  17.532  0.00  0.00    +0.000 C 
ATOM     15  C   UNL     1       7.177   5.927  18.788  0.00  0.00    +0.000 C 
ATOM     16  C   UNL     1       5.659   5.709  18.740  0.00  0.00    +0.000 C 
BRANCH  14  17
ATOM     17  O   UNL     1       7.113   7.962  17.542  0.00  0.00    +0.000 OA
BRANCH  17  18
ATOM     18  C   UNL     1       7.867   9.011  17.979  0.00  0.00    +0.000 A 
ATOM     19  C   UNL     1       8.860   8.950  18.958  0.00  0.00    +0.000 A 
ATOM     20  C   UNL     1       9.616  10.084  19.278  0.00  0.00    +0.000 A 
ATOM     21  C   UNL     1       9.358  11.294  18.641  0.00  0.00    +0.000 A 
ATOM     22  C   UNL     1       8.356  11.357  17.682  0.00  0.00    +0.000 A 
ATOM     23  F   UNL     1       8.098  12.525  17.080  0.00  0.00    +0.000 F 
ATOM     24  C   UNL     1       7.621  10.230  17.335  0.00  0.00    +0.000 A 
ENDBRANCH  17  18
ENDBRANCH  14  17
ENDBRANCH   1  11
BRANCH   1  25
ATOM     25  C   UNL     1       3.281   3.343  17.415  0.00  0.00    +0.000 C 
ATOM     26  O   UNL     1       2.207   3.017  16.916  0.00  0.00    +0.000 OA
BRANCH  25  27
ATOM     27  O   UNL     1       4.143   2.391  17.825  0.00  0.00    +0.000 OA
ATOM     28  H   UNL     1       4.725   2.112  17.085  0.00  0.00    +0.000 HD
ENDBRANCH  25  27
ENDBRANCH   1  25
TORSDOF 7
ENDMDL
MODEL 8
REMARK VINA RESULT:      -6.9      1.696      2.203
REMARK  Name = 
REMARK  8 active torsions:
REMARK  status: ('A' for Active; 'I' for Inactive)
REMARK    1  A    between atoms: C_1  and  O_2
REMARK    2  A    between atoms: O_2  and  C_3
REMARK    3  A    between atoms: C_9  and  C_10
REMARK    4  A    between atoms: C_10  and  C_11
REMARK    5  A    between atoms: C_10  and  N_14
REMARK    6  A    between atoms: C_11  and  O_13
REMARK    7  A    between atoms: C_17  and  O_18
REMARK    8  A    between atoms: O_18  and  C_19
REMARK                            x       y       z     vdW  Elec       q    Type
REMARK                         _______ _______ _______ _____ _____    ______ ____
ROOT
ATOM      1  C   UNL     1       5.414   5.506  18.135  0.00  0.00    +0.000 C 
ENDROOT
BRANCH   1   8
ATOM      2  C   UNL     1       7.012   5.705  16.043  0.00  0.00    +0.000 A 
ATOM      3  C   UNL     1       7.296   5.315  14.726  0.00  0.00    +0.000 A 
ATOM      4  C   UNL     1       6.449   4.448  14.049  0.00  0.00    +0.000 A 
ATOM      5  F   UNL     1       6.740   4.091  12.790  0.00  0.00    +0.000 F 
ATOM      6  C   UNL     1       5.320   3.935  14.659  0.00  0.00    +0.000 A 
ATOM      7  C   UNL     1       5.035   4.305  15.971  0.00  0.00    +0.000 A 
ATOM      8  C   UNL     1       5.860   5.208  16.692  0.00  0.00    +0.000 A 
BRANCH   2  10
ATOM      9  C   UNL     1       7.301   7.760  17.219  0.00  0.00    +0.000 C 
ATOM     10  O   UNL     1       7.852   6.521  16.758  0.00  0.00    +0.000 OA
ENDBRANCH   2  10
ENDBRANCH   1   8
BRANCH   1  11
ATOM     11  N   UNL     1       3.934   5.717  18.252  0.00  0.00    +0.000 NA
ATOM     12  C   UNL     1       3.405   5.438  19.588  0.00  0.00    +0.000 C 
ATOM     13  C   UNL     1       1.897   5.628  19.646  0.00  0.00    +0.000 C 
ATOM     14  C   UNL     1       1.504   7.057  19.267  0.00  0.00    +0.000 C 
ATOM     15  C   UNL     1       2.040   7.314  17.856  0.00  0.00    +0.000 C 
ATOM     16  C   UNL     1       3.550   7.057  17.770  0.00  0.00    +0.000 C 
BRANCH  14  17
ATOM     17  O   UNL     1       2.102   8.037  20.130  0.00  0.00    +0.000 OA
BRANCH  17  18
ATOM     18  C   UNL     1       1.297   8.873  20.849  0.00  0.00    +0.000 A 
ATOM     19  C   UNL     1       0.894   8.680  22.171  0.00  0.00    +0.000 A 
ATOM     20  C   UNL     1       0.118   9.642  22.827  0.00  0.00    +0.000 A 
ATOM     21  C   UNL     1      -0.286  10.789  22.150  0.00  0.00    +0.000 A 
ATOM     22  C   UNL     1       0.099  10.969  20.828  0.00  0.00    +0.000 A 
ATOM     23  F   UNL     1      -0.301  12.065  20.172  0.00  0.00    +0.000 F 
ATOM     24  C   UNL     1       0.896  10.034  20.177  0.00  0.00    +0.000 A 
ENDBRANCH  17  18
ENDBRANCH  14  17
ENDBRANCH   1  11
BRANCH   1  25
ATOM     25  C   UNL     1       6.043   4.699  19.288  0.00  0.00    +0.000 C 
ATOM     26  O   UNL     1       6.862   5.188  20.061  0.00  0.00    +0.000 OA
BRANCH  25  27
ATOM     27  O   UNL     1       5.613   3.436  19.482  0.00  0.00    +0.000 OA
ATOM     28  H   UNL     1       6.083   3.026  20.241  0.00  0.00    +0.000 HD
ENDBRANCH  25  27
ENDBRANCH   1  25
TORSDOF 7
ENDMDL
MODEL 9
REMARK VINA RESULT:      -6.9      3.561      5.652
REMARK  Name = 
REMARK  8 active torsions:
REMARK  status: ('A' for Active; 'I' for Inactive)
REMARK    1  A    between atoms: C_1  and  O_2
REMARK    2  A    between atoms: O_2  and  C_3
REMARK    3  A    between atoms: C_9  and  C_10
REMARK    4  A    between atoms: C_10  and  C_11
REMARK    5  A    between atoms: C_10  and  N_14
REMARK    6  A    between atoms: C_11  and  O_13
REMARK    7  A    between atoms: C_17  and  O_18
REMARK    8  A    between atoms: O_18  and  C_19
REMARK                            x       y       z     vdW  Elec       q    Type
REMARK                         _______ _______ _______ _____ _____    ______ ____
ROOT
ATOM      1  C   UNL     1       3.047   6.246  18.244  0.00  0.00    +0.000 C 
ENDROOT
BRANCH   1   8
ATOM      2  C   UNL     1       1.735   4.008  18.734  0.00  0.00    +0.000 A 
ATOM      3  C   UNL     1       1.251   3.101  19.688  0.00  0.00    +0.000 A 
ATOM      4  C   UNL     1       1.440   3.337  21.044  0.00  0.00    +0.000 A 
ATOM      5  F   UNL     1       0.968   2.457  21.937  0.00  0.00    +0.000 F 
ATOM      6  C   UNL     1       2.123   4.455  21.483  0.00  0.00    +0.000 A 
ATOM      7  C   UNL     1       2.620   5.355  20.544  0.00  0.00    +0.000 A 
ATOM      8  C   UNL     1       2.427   5.167  19.151  0.00  0.00    +0.000 A 
BRANCH   2  10
ATOM      9  C   UNL     1       2.611   2.960  16.779  0.00  0.00    +0.000 C 
ATOM     10  O   UNL     1       1.609   3.783  17.386  0.00  0.00    +0.000 OA
ENDBRANCH   2  10
ENDBRANCH   1   8
BRANCH   1  11
ATOM     11  N   UNL     1       2.685   7.637  18.668  0.00  0.00    +0.000 NA
ATOM     12  C   UNL     1       2.551   8.575  17.552  0.00  0.00    +0.000 C 
ATOM     13  C   UNL     1       2.223   9.980  18.035  0.00  0.00    +0.000 C 
ATOM     14  C   UNL     1       0.918  10.000  18.833  0.00  0.00    +0.000 C 
ATOM     15  C   UNL     1       1.093   9.038  20.011  0.00  0.00    +0.000 C 
ATOM     16  C   UNL     1       1.494   7.634  19.538  0.00  0.00    +0.000 C 
BRANCH  14  17
ATOM     17  O   UNL     1      -0.202   9.528  18.067  0.00  0.00    +0.000 OA
BRANCH  17  18
ATOM     18  C   UNL     1      -1.365  10.241  18.076  0.00  0.00    +0.000 A 
ATOM     19  C   UNL     1      -1.748  11.166  19.049  0.00  0.00    +0.000 A 
ATOM     20  C   UNL     1      -2.939  11.888  18.916  0.00  0.00    +0.000 A 
ATOM     21  C   UNL     1      -3.770  11.663  17.823  0.00  0.00    +0.000 A 
ATOM     22  C   UNL     1      -3.397  10.728  16.866  0.00  0.00    +0.000 A 
ATOM     23  F   UNL     1      -4.204  10.502  15.823  0.00  0.00    +0.000 F 
ATOM     24  C   UNL     1      -2.201  10.028  16.973  0.00  0.00    +0.000 A 
ENDBRANCH  17  18
ENDBRANCH  14  17
ENDBRANCH   1  11
BRANCH   1  25
ATOM     25  C   UNL     1       4.506   6.074  17.776  0.00  0.00    +0.000 C 
ATOM     26  O   UNL     1       4.880   6.407  16.654  0.00  0.00    +0.000 OA
BRANCH  25  27
ATOM     27  O   UNL     1       5.403   5.607  18.668  0.00  0.00    +0.000 OA
ATOM     28  H   UNL     1       6.313   5.669  18.303  0.00  0.00    +0.000 HD
ENDBRANCH  25  27
ENDBRANCH   1  25
TORSDOF 7
ENDMDL
