MODEL 1
REMARK VINA RESULT:      -7.7      0.000      0.000
REMARK  Name = 
REMARK  6 active torsions:
REMARK  status: ('A' for Active; 'I' for Inactive)
REMARK    1  A    between atoms: C_1  and  C_2
REMARK    2  A    between atoms: C_3  and  C_4
REMARK    3  A    between atoms: C_4  and  C_5
REMARK    4  A    between atoms: C_5  and  O_7
REMARK    5  A    between atoms: N_14  and  C_15
REMARK    6  A    between atoms: C_15  and  C_16
REMARK                            x       y       z     vdW  Elec       q    Type
REMARK                         _______ _______ _______ _____ _____    ______ ____
ROOT
ATOM      1  C   UNL     1       3.760   3.126  16.563  0.00  0.00    +0.000 C 
ATOM      2  C   UNL     1       4.855   4.008  17.062  0.00  0.00    +0.000 A 
ATOM      3  C   UNL     1       5.649   4.939  16.390  0.00  0.00    +0.000 A 
ATOM      4  C   UNL     1       6.512   5.532  17.365  0.00  0.00    +0.000 A 
ATOM      5  C   UNL     1       7.501   6.531  17.340  0.00  0.00    +0.000 A 
ATOM      6  C   UNL     1       8.147   6.840  18.537  0.00  0.00    +0.000 A 
ATOM      7  C   UNL     1       7.799   6.142  19.684  0.00  0.00    +0.000 A 
ATOM      8  N   UNL     1       6.862   5.172  19.762  0.00  0.00    +0.000 NA
ATOM      9  C   UNL     1       6.246   4.926  18.587  0.00  0.00    +0.000 A 
ATOM     10  N   UNL     1       5.218   4.029  18.400  0.00  0.00    +0.000 N 
ENDROOT
BRANCH   3  11
ATOM     11  C   UNL     1       5.600   5.321  14.937  0.00  0.00    +0.000 C 
BRANCH  11  12
ATOM     12  C   UNL     1       6.730   4.770  14.089  0.00  0.00    +0.000 C 
ATOM     13  O   UNL     1       7.761   5.398  13.864  0.00  0.00    +0.000 OA
BRANCH  12  14
ATOM     14  O   UNL     1       6.497   3.570  13.518  0.00  0.00    +0.000 OA
ATOM     15  H   UNL     1       5.553   3.327  13.493  0.00  0.00    +0.000 HD
ENDBRANCH  12  14
ENDBRANCH  11  12
ENDBRANCH   3  11
BRANCH  10  16
ATOM     16  C   UNL     1       4.698   3.160  19.456  0.00  0.00    +0.000 C 
BRANCH  16  17
ATOM     17  C   UNL     1       3.301   3.508  19.918  0.00  0.00    +0.000 A 
ATOM     18  C   UNL     1       2.958   4.835  20.230  0.00  0.00    +0.000 A 
ATOM     19  C   UNL     1       1.639   5.183  20.529  0.00  0.00    +0.000 A 
ATOM     20  C   UNL     1       0.642   4.210  20.521  0.00  0.00    +0.000 A 
ATOM     21  C   UNL     1       0.969   2.886  20.240  0.00  0.00    +0.000 A 
ATOM     22  C   UNL     1       2.289   2.537  19.943  0.00  0.00    +0.000 A 
ENDBRANCH  16  17
ENDBRANCH  10  16
TORSDOF 5
ENDMDL
MODEL 2
REMARK VINA RESULT:      -7.4      3.422      6.292
REMARK  Name = 
REMARK  6 active torsions:
REMARK  status: ('A' for Active; 'I' for Inactive)
REMARK    1  A    between atoms: C_1  and  C_2
REMARK    2  A    between atoms: C_3  and  C_4
REMARK    3  A    between atoms: C_4  and  C_5
REMARK    4  A    between atoms: C_5  and  O_7
REMARK    5  A    between atoms: N_14  and  C_15
REMARK    6  A    between atoms: C_15  and  C_16
REMARK                            x       y       z     vdW  Elec       q    Type
REMARK                         _______ _______ _______ _____ _____    ______ ____
ROOT
ATOM      1  C   UNL     1       3.734   2.479  17.688  0.00  0.00    +0.000 C 
ATOM      2  C   UNL     1       3.128   3.640  18.401  0.00  0.00    +0.000 A 
ATOM      3  C   UNL     1       2.195   3.683  19.438  0.00  0.00    +0.000 A 
ATOM      4  C   UNL     1       2.001   5.062  19.768  0.00  0.00    +0.000 A 
ATOM      5  C   UNL     1       1.233   5.757  20.719  0.00  0.00    +0.000 A 
ATOM      6  C   UNL     1       1.310   7.149  20.728  0.00  0.00    +0.000 A 
ATOM      7  C   UNL     1       2.121   7.781  19.796  0.00  0.00    +0.000 A 
ATOM      8  N   UNL     1       2.875   7.162  18.861  0.00  0.00    +0.000 NA
ATOM      9  C   UNL     1       2.789   5.816  18.907  0.00  0.00    +0.000 A 
ATOM     10  N   UNL     1       3.493   4.946  18.106  0.00  0.00    +0.000 N 
ENDROOT
BRANCH   3  11
ATOM     11  C   UNL     1       1.541   2.528  20.144  0.00  0.00    +0.000 C 
BRANCH  11  12
ATOM     12  C   UNL     1       1.851   2.422  21.625  0.00  0.00    +0.000 C 
ATOM     13  O   UNL     1       0.984   2.476  22.492  0.00  0.00    +0.000 OA
BRANCH  12  14
ATOM     14  O   UNL     1       3.161   2.351  21.942  0.00  0.00    +0.000 OA
ATOM     15  H   UNL     1       3.646   3.181  21.781  0.00  0.00    +0.000 HD
ENDBRANCH  12  14
ENDBRANCH  11  12
ENDBRANCH   3  11
BRANCH  10  16
ATOM     16  C   UNL     1       4.390   5.376  17.033  0.00  0.00    +0.000 C 
BRANCH  16  17
ATOM     17  C   UNL     1       5.742   5.861  17.508  0.00  0.00    +0.000 A 
ATOM     18  C   UNL     1       6.316   7.024  16.969  0.00  0.00    +0.000 A 
ATOM     19  C   UNL     1       7.499   7.549  17.496  0.00  0.00    +0.000 A 
ATOM     20  C   UNL     1       8.125   6.919  18.569  0.00  0.00    +0.000 A 
ATOM     21  C   UNL     1       7.583   5.751  19.098  0.00  0.00    +0.000 A 
ATOM     22  C   UNL     1       6.401   5.224  18.570  0.00  0.00    +0.000 A 
ENDBRANCH  16  17
ENDBRANCH  10  16
TORSDOF 5
ENDMDL
MODEL 3
REMARK VINA RESULT:      -7.4      0.173      1.065
REMARK  Name = 
REMARK  6 active torsions:
REMARK  status: ('A' for Active; 'I' for Inactive)
REMARK    1  A    between atoms: C_1  and  C_2
REMARK    2  A    between atoms: C_3  and  C_4
REMARK    3  A    between atoms: C_4  and  C_5
REMARK    4  A    between atoms: C_5  and  O_7
REMARK    5  A    between atoms: N_14  and  C_15
REMARK    6  A    between atoms: C_15  and  C_16
REMARK                            x       y       z     vdW  Elec       q    Type
REMARK                         _______ _______ _______ _____ _____    ______ ____
ROOT
ATOM      1  C   UNL     1       3.826   3.214  16.435  0.00  0.00    +0.000 C 
ATOM      2  C   UNL     1       4.912   4.093  16.957  0.00  0.00    +0.000 A 
ATOM      3  C   UNL     1       5.712   5.032  16.305  0.00  0.00    +0.000 A 
ATOM      4  C   UNL     1       6.562   5.617  17.298  0.00  0.00    +0.000 A 
ATOM      5  C   UNL     1       7.549   6.618  17.296  0.00  0.00    +0.000 A 
ATOM      6  C   UNL     1       8.179   6.915  18.504  0.00  0.00    +0.000 A 
ATOM      7  C   UNL     1       7.819   6.204  19.639  0.00  0.00    +0.000 A 
ATOM      8  N   UNL     1       6.883   5.231  19.695  0.00  0.00    +0.000 NA
ATOM      9  C   UNL     1       6.282   4.997  18.510  0.00  0.00    +0.000 A 
ATOM     10  N   UNL     1       5.258   4.100  18.300  0.00  0.00    +0.000 N 
ENDROOT
BRANCH   3  11
ATOM     11  C   UNL     1       5.680   5.431  14.857  0.00  0.00    +0.000 C 
BRANCH  11  12
ATOM     12  C   UNL     1       6.733   4.771  13.985  0.00  0.00    +0.000 C 
ATOM     13  O   UNL     1       7.705   5.376  13.543  0.00  0.00    +0.000 OA
BRANCH  12  14
ATOM     14  O   UNL     1       6.488   3.488  13.649  0.00  0.00    +0.000 OA
ATOM     15  H   UNL     1       6.371   3.351  12.691  0.00  0.00    +0.000 HD
ENDBRANCH  12  14
ENDBRANCH  11  12
ENDBRANCH   3  11
BRANCH  10  16
ATOM     16  C   UNL     1       4.727   3.218  19.339  0.00  0.00    +0.000 C 
BRANCH  16  17
ATOM     17  C   UNL     1       3.287   3.491  19.712  0.00  0.00    +0.000 A 
ATOM     18  C   UNL     1       2.353   2.444  19.779  0.00  0.00    +0.000 A 
ATOM     19  C   UNL     1       1.057   2.669  20.250  0.00  0.00    +0.000 A 
ATOM     20  C   UNL     1       0.676   3.944  20.660  0.00  0.00    +0.000 A 
ATOM     21  C   UNL     1       1.582   4.999  20.576  0.00  0.00    +0.000 A 
ATOM     22  C   UNL     1       2.877   4.774  20.103  0.00  0.00    +0.000 A 
ENDBRANCH  16  17
ENDBRANCH  10  16
TORSDOF 5
ENDMDL
MODEL 4
REMARK VINA RESULT:      -7.3      3.467      6.412
REMARK  Name = 
REMARK  6 active torsions:
REMARK  status: ('A' for Active; 'I' for Inactive)
REMARK    1  A    between atoms: C_1  and  C_2
REMARK    2  A    between atoms: C_3  and  C_4
REMARK    3  A    between atoms: C_4  and  C_5
REMARK    4  A    between atoms: C_5  and  O_7
REMARK    5  A    between atoms: N_14  and  C_15
REMARK    6  A    between atoms: C_15  and  C_16
REMARK                            x       y       z     vdW  Elec       q    Type
REMARK                         _______ _______ _______ _____ _____    ______ ____
ROOT
ATOM      1  C   UNL     1       3.588   2.650  17.820  0.00  0.00    +0.000 C 
ATOM      2  C   UNL     1       2.992   3.821  18.527  0.00  0.00    +0.000 A 
ATOM      3  C   UNL     1       2.039   3.879  19.544  0.00  0.00    +0.000 A 
ATOM      4  C   UNL     1       1.868   5.261  19.877  0.00  0.00    +0.000 A 
ATOM      5  C   UNL     1       1.096   5.968  20.815  0.00  0.00    +0.000 A 
ATOM      6  C   UNL     1       1.204   7.358  20.834  0.00  0.00    +0.000 A 
ATOM      7  C   UNL     1       2.048   7.976  19.922  0.00  0.00    +0.000 A 
ATOM      8  N   UNL     1       2.807   7.345  18.999  0.00  0.00    +0.000 NA
ATOM      9  C   UNL     1       2.691   6.001  19.037  0.00  0.00    +0.000 A 
ATOM     10  N   UNL     1       3.392   5.120  18.246  0.00  0.00    +0.000 N 
ENDROOT
BRANCH   3  11
ATOM     11  C   UNL     1       1.345   2.736  20.230  0.00  0.00    +0.000 C 
BRANCH  11  12
ATOM     12  C   UNL     1       1.784   2.483  21.660  0.00  0.00    +0.000 C 
ATOM     13  O   UNL     1       0.993   2.410  22.595  0.00  0.00    +0.000 OA
BRANCH  12  14
ATOM     14  O   UNL     1       3.117   2.431  21.859  0.00  0.00    +0.000 OA
ATOM     15  H   UNL     1       3.437   1.551  22.131  0.00  0.00    +0.000 HD
ENDBRANCH  12  14
ENDBRANCH  11  12
ENDBRANCH   3  11
BRANCH  10  16
ATOM     16  C   UNL     1       4.321   5.535  17.195  0.00  0.00    +0.000 C 
BRANCH  16  17
ATOM     17  C   UNL     1       5.632   6.091  17.705  0.00  0.00    +0.000 A 
ATOM     18  C   UNL     1       6.325   5.451  18.747  0.00  0.00    +0.000 A 
ATOM     19  C   UNL     1       7.597   5.883  19.131  0.00  0.00    +0.000 A 
ATOM     20  C   UNL     1       8.194   6.961  18.481  0.00  0.00    +0.000 A 
ATOM     21  C   UNL     1       7.510   7.622  17.464  0.00  0.00    +0.000 A 
ATOM     22  C   UNL     1       6.236   7.192  17.080  0.00  0.00    +0.000 A 
ENDBRANCH  16  17
ENDBRANCH  10  16
TORSDOF 5
ENDMDL
MODEL 5
REMARK VINA RESULT:      -7.2      3.642      6.517
REMARK  Name = 
REMARK  6 active torsions:
REMARK  status: ('A' for Active; 'I' for Inactive)
REMARK    1  A    between atoms: C_1  and  C_2
REMARK    2  A    between atoms: C_3  and  C_4
REMARK    3  A    between atoms: C_4  and  C_5
REMARK    4  A    between atoms: C_5  and  O_7
REMARK    5  A    between atoms: N_14  and  C_15
REMARK    6  A    between atoms: C_15  and  C_16
REMARK                            x       y       z     vdW  Elec       q    Type
REMARK                         _______ _______ _______ _____ _____    ______ ____
ROOT
ATOM      1  C   UNL     1       2.553   7.768  18.043  0.00  0.00    +0.000 C 
ATOM      2  C   UNL     1       2.603   6.541  18.890  0.00  0.00    +0.000 A 
ATOM      3  C   UNL     1       1.917   6.216  20.060  0.00  0.00    +0.000 A 
ATOM      4  C   UNL     1       2.317   4.891  20.425  0.00  0.00    +0.000 A 
ATOM      5  C   UNL     1       1.978   4.000  21.458  0.00  0.00    +0.000 A 
ATOM      6  C   UNL     1       2.605   2.756  21.479  0.00  0.00    +0.000 A 
ATOM      7  C   UNL     1       3.541   2.462  20.498  0.00  0.00    +0.000 A 
ATOM      8  N   UNL     1       3.906   3.282  19.488  0.00  0.00    +0.000 NA
ATOM      9  C   UNL     1       3.254   4.463  19.493  0.00  0.00    +0.000 A 
ATOM     10  N   UNL     1       3.395   5.454  18.548  0.00  0.00    +0.000 N 
ENDROOT
BRANCH   3  11
ATOM     11  C   UNL     1       0.900   7.042  20.797  0.00  0.00    +0.000 C 
BRANCH  11  12
ATOM     12  C   UNL     1       1.316   8.474  21.078  0.00  0.00    +0.000 C 
ATOM     13  O   UNL     1       1.068   9.401  20.314  0.00  0.00    +0.000 OA
BRANCH  12  14
ATOM     14  O   UNL     1       2.061   8.655  22.189  0.00  0.00    +0.000 OA
ATOM     15  H   UNL     1       2.329   7.823  22.619  0.00  0.00    +0.000 HD
ENDBRANCH  12  14
ENDBRANCH  11  12
ENDBRANCH   3  11
BRANCH  10  16
ATOM     16  C   UNL     1       4.341   5.384  17.434  0.00  0.00    +0.000 C 
BRANCH  16  17
ATOM     17  C   UNL     1       5.716   5.928  17.749  0.00  0.00    +0.000 A 
ATOM     18  C   UNL     1       6.177   7.109  17.141  0.00  0.00    +0.000 A 
ATOM     19  C   UNL     1       7.390   7.687  17.527  0.00  0.00    +0.000 A 
ATOM     20  C   UNL     1       8.159   7.093  18.525  0.00  0.00    +0.000 A 
ATOM     21  C   UNL     1       7.729   5.909  19.119  0.00  0.00    +0.000 A 
ATOM     22  C   UNL     1       6.518   5.329  18.732  0.00  0.00    +0.000 A 
ENDBRANCH  16  17
ENDBRANCH  10  16
TORSDOF 5
ENDMDL
MODEL 6
REMARK VINA RESULT:      -7.0      3.340      6.503
REMARK  Name = 
REMARK  6 active torsions:
REMARK  status: ('A' for Active; 'I' for Inactive)
REMARK    1  A    between atoms: C_1  and  C_2
REMARK    2  A    between atoms: C_3  and  C_4
REMARK    3  A    between atoms: C_4  and  C_5
REMARK    4  A    between atoms: C_5  and  O_7
REMARK    5  A    between atoms: N_14  and  C_15
REMARK    6  A    between atoms: C_15  and  C_16
REMARK                            x       y       z     vdW  Elec       q    Type
REMARK                         _______ _______ _______ _____ _____    ______ ____
ROOT
ATOM      1  C   UNL     1       5.559   7.308  17.081  0.00  0.00    +0.000 C 
ATOM      2  C   UNL     1       4.596   6.209  17.381  0.00  0.00    +0.000 A 
ATOM      3  C   UNL     1       3.269   6.256  17.809  0.00  0.00    +0.000 A 
ATOM      4  C   UNL     1       2.810   4.903  17.896  0.00  0.00    +0.000 A 
ATOM      5  C   UNL     1       1.591   4.287  18.231  0.00  0.00    +0.000 A 
ATOM      6  C   UNL     1       1.535   2.894  18.202  0.00  0.00    +0.000 A 
ATOM      7  C   UNL     1       2.678   2.185  17.864  0.00  0.00    +0.000 A 
ATOM      8  N   UNL     1       3.873   2.726  17.539  0.00  0.00    +0.000 NA
ATOM      9  C   UNL     1       3.873   4.076  17.554  0.00  0.00    +0.000 A 
ATOM     10  N   UNL     1       4.939   4.876  17.211  0.00  0.00    +0.000 N 
ENDROOT
BRANCH   3  11
ATOM     11  C   UNL     1       2.425   7.471  18.079  0.00  0.00    +0.000 C 
BRANCH  11  12
ATOM     12  C   UNL     1       2.095   7.711  19.540  0.00  0.00    +0.000 C 
ATOM     13  O   UNL     1       1.445   8.678  19.925  0.00  0.00    +0.000 OA
BRANCH  12  14
ATOM     14  O   UNL     1       2.638   6.835  20.411  0.00  0.00    +0.000 OA
ATOM     15  H   UNL     1       3.337   7.223  20.969  0.00  0.00    +0.000 HD
ENDBRANCH  12  14
ENDBRANCH  11  12
ENDBRANCH   3  11
BRANCH  10  16
ATOM     16  C   UNL     1       6.257   4.357  16.845  0.00  0.00    +0.000 C 
BRANCH  16  17
ATOM     17  C   UNL     1       6.515   4.305  15.356  0.00  0.00    +0.000 A 
ATOM     18  C   UNL     1       5.671   3.569  14.507  0.00  0.00    +0.000 A 
ATOM     19  C   UNL     1       5.826   3.625  13.119  0.00  0.00    +0.000 A 
ATOM     20  C   UNL     1       6.827   4.417  12.560  0.00  0.00    +0.000 A 
ATOM     21  C   UNL     1       7.688   5.132  13.389  0.00  0.00    +0.000 A 
ATOM     22  C   UNL     1       7.535   5.075  14.776  0.00  0.00    +0.000 A 
ENDBRANCH  16  17
ENDBRANCH  10  16
TORSDOF 5
ENDMDL
MODEL 7
REMARK VINA RESULT:      -6.8      3.529      4.523
REMARK  Name = 
REMARK  6 active torsions:
REMARK  status: ('A' for Active; 'I' for Inactive)
REMARK    1  A    between atoms: C_1  and  C_2
REMARK    2  A    between atoms: C_3  and  C_4
REMARK    3  A    between atoms: C_4  and  C_5
REMARK    4  A    between atoms: C_5  and  O_7
REMARK    5  A    between atoms: N_14  and  C_15
REMARK    6  A    between atoms: C_15  and  C_16
REMARK                            x       y       z     vdW  Elec       q    Type
REMARK                         _______ _______ _______ _____ _____    ______ ____
ROOT
ATOM      1  C   UNL     1       1.549   4.693  17.770  0.00  0.00    +0.000 C 
ATOM      2  C   UNL     1       3.019   4.939  17.837  0.00  0.00    +0.000 A 
ATOM      3  C   UNL     1       4.072   4.073  18.134  0.00  0.00    +0.000 A 
ATOM      4  C   UNL     1       5.281   4.829  18.011  0.00  0.00    +0.000 A 
ATOM      5  C   UNL     1       6.651   4.541  18.145  0.00  0.00    +0.000 A 
ATOM      6  C   UNL     1       7.559   5.579  17.942  0.00  0.00    +0.000 A 
ATOM      7  C   UNL     1       7.074   6.842  17.635  0.00  0.00    +0.000 A 
ATOM      8  N   UNL     1       5.771   7.173  17.498  0.00  0.00    +0.000 NA
ATOM      9  C   UNL     1       4.931   6.132  17.677  0.00  0.00    +0.000 A 
ATOM     10  N   UNL     1       3.562   6.181  17.541  0.00  0.00    +0.000 N 
ENDROOT
BRANCH   3  11
ATOM     11  C   UNL     1       4.002   2.609  18.466  0.00  0.00    +0.000 C 
BRANCH  11  12
ATOM     12  C   UNL     1       4.136   2.277  19.940  0.00  0.00    +0.000 C 
ATOM     13  O   UNL     1       3.295   2.600  20.774  0.00  0.00    +0.000 OA
BRANCH  12  14
ATOM     14  O   UNL     1       5.289   1.674  20.299  0.00  0.00    +0.000 OA
ATOM     15  H   UNL     1       5.162   0.903  20.882  0.00  0.00    +0.000 HD
ENDBRANCH  12  14
ENDBRANCH  11  12
ENDBRANCH   3  11
BRANCH  10  16
ATOM     16  C   UNL     1       2.820   7.406  17.247  0.00  0.00    +0.000 C 
BRANCH  16  17
ATOM     17  C   UNL     1       2.223   8.079  18.463  0.00  0.00    +0.000 A 
ATOM     18  C   UNL     1       1.561   9.314  18.348  0.00  0.00    +0.000 A 
ATOM     19  C   UNL     1       0.894   9.874  19.440  0.00  0.00    +0.000 A 
ATOM     20  C   UNL     1       0.879   9.209  20.664  0.00  0.00    +0.000 A 
ATOM     21  C   UNL     1       1.552   7.998  20.802  0.00  0.00    +0.000 A 
ATOM     22  C   UNL     1       2.221   7.438  19.711  0.00  0.00    +0.000 A 
ENDBRANCH  16  17
ENDBRANCH  10  16
TORSDOF 5
ENDMDL
MODEL 8
REMARK VINA RESULT:      -6.8      3.417      6.530
REMARK  Name = 
REMARK  6 active torsions:
REMARK  status: ('A' for Active; 'I' for Inactive)
REMARK    1  A    between atoms: C_1  and  C_2
REMARK    2  A    between atoms: C_3  and  C_4
REMARK    3  A    between atoms: C_4  and  C_5
REMARK    4  A    between atoms: C_5  and  O_7
REMARK    5  A    between atoms: N_14  and  C_15
REMARK    6  A    between atoms: C_15  and  C_16
REMARK                            x       y       z     vdW  Elec       q    Type
REMARK                         _______ _______ _______ _____ _____    ______ ____
ROOT
ATOM      1  C   UNL     1       5.391   7.283  16.897  0.00  0.00    +0.000 C 
ATOM      2  C   UNL     1       4.459   6.173  17.250  0.00  0.00    +0.000 A 
ATOM      3  C   UNL     1       3.154   6.206  17.743  0.00  0.00    +0.000 A 
ATOM      4  C   UNL     1       2.718   4.847  17.860  0.00  0.00    +0.000 A 
ATOM      5  C   UNL     1       1.526   4.217  18.258  0.00  0.00    +0.000 A 
ATOM      6  C   UNL     1       1.487   2.824  18.239  0.00  0.00    +0.000 A 
ATOM      7  C   UNL     1       2.622   2.128  17.848  0.00  0.00    +0.000 A 
ATOM      8  N   UNL     1       3.791   2.682  17.461  0.00  0.00    +0.000 NA
ATOM      9  C   UNL     1       3.774   4.032  17.470  0.00  0.00    +0.000 A 
ATOM     10  N   UNL     1       4.811   4.844  17.070  0.00  0.00    +0.000 N 
ENDROOT
BRANCH   3  11
ATOM     11  C   UNL     1       2.309   7.410  18.049  0.00  0.00    +0.000 C 
BRANCH  11  12
ATOM     12  C   UNL     1       2.062   7.664  19.524  0.00  0.00    +0.000 C 
ATOM     13  O   UNL     1       2.235   6.807  20.385  0.00  0.00    +0.000 OA
BRANCH  12  14
ATOM     14  O   UNL     1       1.551   8.875  19.829  0.00  0.00    +0.000 OA
ATOM     15  H   UNL     1       1.208   8.936  20.739  0.00  0.00    +0.000 HD
ENDBRANCH  12  14
ENDBRANCH  11  12
ENDBRANCH   3  11
BRANCH  10  16
ATOM     16  C   UNL     1       6.116   4.341  16.642  0.00  0.00    +0.000 C 
BRANCH  16  17
ATOM     17  C   UNL     1       6.343   4.389  15.147  0.00  0.00    +0.000 A 
ATOM     18  C   UNL     1       7.423   5.110  14.609  0.00  0.00    +0.000 A 
ATOM     19  C   UNL     1       7.714   5.049  13.244  0.00  0.00    +0.000 A 
ATOM     20  C   UNL     1       6.931   4.268  12.397  0.00  0.00    +0.000 A 
ATOM     21  C   UNL     1       5.842   3.569  12.911  0.00  0.00    +0.000 A 
ATOM     22  C   UNL     1       5.548   3.630  14.276  0.00  0.00    +0.000 A 
ENDBRANCH  16  17
ENDBRANCH  10  16
TORSDOF 5
ENDMDL
MODEL 9
REMARK VINA RESULT:      -6.8      3.726      6.646
REMARK  Name = 
REMARK  6 active torsions:
REMARK  status: ('A' for Active; 'I' for Inactive)
REMARK    1  A    between atoms: C_1  and  C_2
REMARK    2  A    between atoms: C_3  and  C_4
REMARK    3  A    between atoms: C_4  and  C_5
REMARK    4  A    between atoms: C_5  and  O_7
REMARK    5  A    between atoms: N_14  and  C_15
REMARK    6  A    between atoms: C_15  and  C_16
REMARK                            x       y       z     vdW  Elec       q    Type
REMARK                         _______ _______ _______ _____ _____    ______ ____
ROOT
ATOM      1  C   UNL     1       2.571   7.800  18.170  0.00  0.00    +0.000 C 
ATOM      2  C   UNL     1       2.582   6.554  18.990  0.00  0.00    +0.000 A 
ATOM      3  C   UNL     1       1.841   6.204  20.119  0.00  0.00    +0.000 A 
ATOM      4  C   UNL     1       2.225   4.871  20.473  0.00  0.00    +0.000 A 
ATOM      5  C   UNL     1       1.838   3.956  21.468  0.00  0.00    +0.000 A 
ATOM      6  C   UNL     1       2.465   2.711  21.490  0.00  0.00    +0.000 A 
ATOM      7  C   UNL     1       3.447   2.440  20.548  0.00  0.00    +0.000 A 
ATOM      8  N   UNL     1       3.859   3.283  19.576  0.00  0.00    +0.000 NA
ATOM      9  C   UNL     1       3.206   4.463  19.576  0.00  0.00    +0.000 A 
ATOM     10  N   UNL     1       3.391   5.476  18.662  0.00  0.00    +0.000 N 
ENDROOT
BRANCH   3  11
ATOM     11  C   UNL     1       0.789   7.012  20.825  0.00  0.00    +0.000 C 
BRANCH  11  12
ATOM     12  C   UNL     1       1.188   8.439  21.153  0.00  0.00    +0.000 C 
ATOM     13  O   UNL     1       1.854   8.734  22.141  0.00  0.00    +0.000 OA
BRANCH  12  14
ATOM     14  O   UNL     1       0.688   9.386  20.332  0.00  0.00    +0.000 OA
ATOM     15  H   UNL     1      -0.144   9.124  19.895  0.00  0.00    +0.000 HD
ENDBRANCH  12  14
ENDBRANCH  11  12
ENDBRANCH   3  11
BRANCH  10  16
ATOM     16  C   UNL     1       4.388   5.431  17.593  0.00  0.00    +0.000 C 
BRANCH  16  17
ATOM     17  C   UNL     1       5.714   6.065  17.951  0.00  0.00    +0.000 A 
ATOM     18  C   UNL     1       6.536   5.500  18.940  0.00  0.00    +0.000 A 
ATOM     19  C   UNL     1       7.817   6.003  19.181  0.00  0.00    +0.000 A 
ATOM     20  C   UNL     1       8.295   7.080  18.437  0.00  0.00    +0.000 A 
ATOM     21  C   UNL     1       7.482   7.669  17.471  0.00  0.00    +0.000 A 
ATOM     22  C   UNL     1       6.200   7.167  17.231  0.00  0.00    +0.000 A 
ENDBRANCH  16  17
ENDBRANCH  10  16
TORSDOF 5
ENDMDL
