MODEL 1
REMARK VINA RESULT:      -8.5      0.000      0.000
REMARK  Name = 
REMARK  10 active torsions:
REMARK  status: ('A' for Active; 'I' for Inactive)
REMARK    1  A    between atoms: C_1  and  O_2
REMARK    2  A    between atoms: O_2  and  C_3
REMARK    3  A    between atoms: C_6  and  C_7
REMARK    4  A    between atoms: C_7  and  N_8
REMARK    5  A    between atoms: N_8  and  C_9
REMARK    6  A    between atoms: C_11  and  C_12
REMARK    7  A    between atoms: C_13  and  C_14
REMARK    8  A    between atoms: C_18  and  O_19
REMARK    9  A    between atoms: O_19  and  C_20
REMARK   10  A    between atoms: C_23  and  C_24
REMARK                            x       y       z     vdW  Elec       q    Type
REMARK                         _______ _______ _______ _____ _____    ______ ____
ROOT
ATOM      1  C   UNL     1       6.529   4.939  17.812  0.00  0.00    +0.000 A 
ATOM      2  O   UNL     1       6.987   5.874  18.704  0.00  0.00    +0.000 OA
ATOM      3  C   UNL     1       7.687   6.814  17.956  0.00  0.00    +0.000 A 
ATOM      4  N   UNL     1       7.666   6.524  16.663  0.00  0.00    +0.000 NA
ATOM      5  C   UNL     1       6.943   5.359  16.569  0.00  0.00    +0.000 A 
ENDROOT
BRANCH   1   6
ATOM      6  N   UNL     1       5.802   3.926  18.338  0.00  0.00    +0.000 N 
ATOM      7  H   UNL     1       6.283   3.049  18.516  0.00  0.00    +0.000 HD
BRANCH   6   8
ATOM      8  C   UNL     1       4.361   3.796  18.170  0.00  0.00    +0.000 C 
BRANCH   8  12
ATOM      9  C   UNL     1       2.158   7.277  19.548  0.00  0.00    +0.000 A 
ATOM     10  C   UNL     1       2.761   7.266  18.288  0.00  0.00    +0.000 A 
ATOM     11  C   UNL     1       3.470   6.146  17.842  0.00  0.00    +0.000 A 
ATOM     12  C   UNL     1       3.619   5.021  18.664  0.00  0.00    +0.000 A 
ATOM     13  C   UNL     1       3.021   5.042  19.934  0.00  0.00    +0.000 A 
ATOM     14  C   UNL     1       2.294   6.161  20.372  0.00  0.00    +0.000 A 
BRANCH   9  16
ATOM     15  C   UNL     1       0.957   8.514  21.179  0.00  0.00    +0.000 C 
ATOM     16  O   UNL     1       1.510   8.437  19.870  0.00  0.00    +0.000 OA
ENDBRANCH   9  16
ENDBRANCH   8  12
ENDBRANCH   6   8
ENDBRANCH   1   6
BRANCH   3  17
ATOM     17  C   UNL     1       8.345   7.961  18.500  0.00  0.00    +0.000 C 
ATOM     18  C   UNL     1       8.245   9.180  17.948  0.00  0.00    +0.000 C 
BRANCH  18  19
ATOM     19  C   UNL     1       8.891  10.407  18.458  0.00  0.00    +0.000 A 
ATOM     20  C   UNL     1       9.495  10.350  19.722  0.00  0.00    +0.000 A 
ATOM     21  C   UNL     1      10.054  11.490  20.302  0.00  0.00    +0.000 A 
ATOM     22  C   UNL     1      10.007  12.704  19.624  0.00  0.00    +0.000 A 
ATOM     23  C   UNL     1       9.412  12.789  18.364  0.00  0.00    +0.000 A 
ATOM     24  C   UNL     1       8.858  11.640  17.782  0.00  0.00    +0.000 A 
BRANCH  23  25
ATOM     25  O   UNL     1       9.428  14.048  17.826  0.00  0.00    +0.000 OA
ATOM     26  C   UNL     1       8.509  14.995  18.353  0.00  0.00    +0.000 C 
ENDBRANCH  23  25
ENDBRANCH  18  19
ENDBRANCH   3  17
BRANCH   5  27
ATOM     27  C   UNL     1       6.671   4.772  15.302  0.00  0.00    +0.000 C 
ATOM     28  N   UNL     1       6.454   4.265  14.280  0.00  0.00    +0.000 NA
ENDBRANCH   5  27
TORSDOF 8
ENDMDL
MODEL 2
REMARK VINA RESULT:      -8.2      1.264      1.709
REMARK  Name = 
REMARK  10 active torsions:
REMARK  status: ('A' for Active; 'I' for Inactive)
REMARK    1  A    between atoms: C_1  and  O_2
REMARK    2  A    between atoms: O_2  and  C_3
REMARK    3  A    between atoms: C_6  and  C_7
REMARK    4  A    between atoms: C_7  and  N_8
REMARK    5  A    between atoms: N_8  and  C_9
REMARK    6  A    between atoms: C_11  and  C_12
REMARK    7  A    between atoms: C_13  and  C_14
REMARK    8  A    between atoms: C_18  and  O_19
REMARK    9  A    between atoms: O_19  and  C_20
REMARK   10  A    between atoms: C_23  and  C_24
REMARK                            x       y       z     vdW  Elec       q    Type
REMARK                         _______ _______ _______ _____ _____    ______ ____
ROOT
ATOM      1  C   UNL     1       6.495   4.906  17.946  0.00  0.00    +0.000 A 
ATOM      2  O   UNL     1       6.985   5.822  18.841  0.00  0.00    +0.000 OA
ATOM      3  C   UNL     1       7.731   6.731  18.099  0.00  0.00    +0.000 A 
ATOM      4  N   UNL     1       7.708   6.440  16.806  0.00  0.00    +0.000 NA
ATOM      5  C   UNL     1       6.937   5.308  16.707  0.00  0.00    +0.000 A 
ENDROOT
BRANCH   1   6
ATOM      6  N   UNL     1       5.721   3.926  18.466  0.00  0.00    +0.000 N 
ATOM      7  H   UNL     1       6.168   3.035  18.666  0.00  0.00    +0.000 HD
BRANCH   6   8
ATOM      8  C   UNL     1       4.281   3.844  18.266  0.00  0.00    +0.000 C 
BRANCH   8  12
ATOM      9  C   UNL     1       2.222   7.575  19.105  0.00  0.00    +0.000 A 
ATOM     10  C   UNL     1       2.830   7.357  17.866  0.00  0.00    +0.000 A 
ATOM     11  C   UNL     1       3.492   6.157  17.593  0.00  0.00    +0.000 A 
ATOM     12  C   UNL     1       3.589   5.157  18.570  0.00  0.00    +0.000 A 
ATOM     13  C   UNL     1       2.986   5.386  19.817  0.00  0.00    +0.000 A 
ATOM     14  C   UNL     1       2.306   6.585  20.082  0.00  0.00    +0.000 A 
BRANCH   9  16
ATOM     15  C   UNL     1       1.639   9.651  18.112  0.00  0.00    +0.000 C 
ATOM     16  O   UNL     1       1.622   8.796  19.249  0.00  0.00    +0.000 OA
ENDBRANCH   9  16
ENDBRANCH   8  12
ENDBRANCH   6   8
ENDBRANCH   1   6
BRANCH   3  17
ATOM     17  C   UNL     1       8.433   7.848  18.648  0.00  0.00    +0.000 C 
ATOM     18  C   UNL     1       8.364   9.078  18.114  0.00  0.00    +0.000 C 
BRANCH  18  19
ATOM     19  C   UNL     1       9.056  10.277  18.630  0.00  0.00    +0.000 A 
ATOM     20  C   UNL     1       9.794  11.047  17.719  0.00  0.00    +0.000 A 
ATOM     21  C   UNL     1      10.538  12.147  18.147  0.00  0.00    +0.000 A 
ATOM     22  C   UNL     1      10.559  12.484  19.498  0.00  0.00    +0.000 A 
ATOM     23  C   UNL     1       9.832  11.735  20.425  0.00  0.00    +0.000 A 
ATOM     24  C   UNL     1       9.080  10.635  19.990  0.00  0.00    +0.000 A 
BRANCH  23  25
ATOM     25  O   UNL     1       9.959  12.176  21.715  0.00  0.00    +0.000 OA
ATOM     26  C   UNL     1       8.785  12.204  22.515  0.00  0.00    +0.000 C 
ENDBRANCH  23  25
ENDBRANCH  18  19
ENDBRANCH   3  17
BRANCH   5  27
ATOM     27  C   UNL     1       6.650   4.732  15.438  0.00  0.00    +0.000 C 
ATOM     28  N   UNL     1       6.399   4.240  14.416  0.00  0.00    +0.000 NA
ENDBRANCH   5  27
TORSDOF 8
ENDMDL
MODEL 3
REMARK VINA RESULT:      -8.2      1.174      1.824
REMARK  Name = 
REMARK  10 active torsions:
REMARK  status: ('A' for Active; 'I' for Inactive)
REMARK    1  A    between atoms: C_1  and  O_2
REMARK    2  A    between atoms: O_2  and  C_3
REMARK    3  A    between atoms: C_6  and  C_7
REMARK    4  A    between atoms: C_7  and  N_8
REMARK    5  A    between atoms: N_8  and  C_9
REMARK    6  A    between atoms: C_11  and  C_12
REMARK    7  A    between atoms: C_13  and  C_14
REMARK    8  A    between atoms: C_18  and  O_19
REMARK    9  A    between atoms: O_19  and  C_20
REMARK   10  A    between atoms: C_23  and  C_24
REMARK                            x       y       z     vdW  Elec       q    Type
REMARK                         _______ _______ _______ _____ _____    ______ ____
ROOT
ATOM      1  C   UNL     1       6.591   5.034  17.867  0.00  0.00    +0.000 A 
ATOM      2  O   UNL     1       7.061   5.912  18.811  0.00  0.00    +0.000 OA
ATOM      3  C   UNL     1       7.736   6.907  18.115  0.00  0.00    +0.000 A 
ATOM      4  N   UNL     1       7.689   6.706  16.806  0.00  0.00    +0.000 NA
ATOM      5  C   UNL     1       6.975   5.543  16.648  0.00  0.00    +0.000 A 
ENDROOT
BRANCH   1   6
ATOM      6  N   UNL     1       5.885   3.980  18.338  0.00  0.00    +0.000 N 
ATOM      7  H   UNL     1       6.390   3.113  18.496  0.00  0.00    +0.000 HD
BRANCH   6   8
ATOM      8  C   UNL     1       4.453   3.812  18.130  0.00  0.00    +0.000 C 
BRANCH   8  12
ATOM      9  C   UNL     1       2.281   7.357  19.386  0.00  0.00    +0.000 A 
ATOM     10  C   UNL     1       2.438   6.272  20.252  0.00  0.00    +0.000 A 
ATOM     11  C   UNL     1       3.138   5.130  19.850  0.00  0.00    +0.000 A 
ATOM     12  C   UNL     1       3.669   5.036  18.556  0.00  0.00    +0.000 A 
ATOM     13  C   UNL     1       3.498   6.125  17.687  0.00  0.00    +0.000 A 
ATOM     14  C   UNL     1       2.810   7.277  18.100  0.00  0.00    +0.000 A 
BRANCH   9  16
ATOM     15  C   UNL     1       1.108   8.270  21.237  0.00  0.00    +0.000 C 
ATOM     16  O   UNL     1       1.562   8.403  19.895  0.00  0.00    +0.000 OA
ENDBRANCH   9  16
ENDBRANCH   8  12
ENDBRANCH   6   8
ENDBRANCH   1   6
BRANCH   3  17
ATOM     17  C   UNL     1       8.395   8.021  18.722  0.00  0.00    +0.000 C 
ATOM     18  C   UNL     1       8.553   9.197  18.095  0.00  0.00    +0.000 C 
BRANCH  18  19
ATOM     19  C   UNL     1       9.217  10.388  18.661  0.00  0.00    +0.000 A 
ATOM     20  C   UNL     1      10.062  11.127  17.820  0.00  0.00    +0.000 A 
ATOM     21  C   UNL     1      10.784  12.217  18.306  0.00  0.00    +0.000 A 
ATOM     22  C   UNL     1      10.676  12.576  19.646  0.00  0.00    +0.000 A 
ATOM     23  C   UNL     1       9.842  11.858  20.506  0.00  0.00    +0.000 A 
ATOM     24  C   UNL     1       9.112  10.768  20.012  0.00  0.00    +0.000 A 
BRANCH  23  25
ATOM     25  O   UNL     1       9.848  12.317  21.796  0.00  0.00    +0.000 OA
ATOM     26  C   UNL     1       8.640  12.202  22.536  0.00  0.00    +0.000 C 
ENDBRANCH  23  25
ENDBRANCH  18  19
ENDBRANCH   3  17
BRANCH   5  27
ATOM     27  C   UNL     1       6.680   5.041  15.350  0.00  0.00    +0.000 C 
ATOM     28  N   UNL     1       6.438   4.660  14.279  0.00  0.00    +0.000 NA
ENDBRANCH   5  27
TORSDOF 8
ENDMDL
MODEL 4
REMARK VINA RESULT:      -8.0      1.652      2.083
REMARK  Name = 
REMARK  10 active torsions:
REMARK  status: ('A' for Active; 'I' for Inactive)
REMARK    1  A    between atoms: C_1  and  O_2
REMARK    2  A    between atoms: O_2  and  C_3
REMARK    3  A    between atoms: C_6  and  C_7
REMARK    4  A    between atoms: C_7  and  N_8
REMARK    5  A    between atoms: N_8  and  C_9
REMARK    6  A    between atoms: C_11  and  C_12
REMARK    7  A    between atoms: C_13  and  C_14
REMARK    8  A    between atoms: C_18  and  O_19
REMARK    9  A    between atoms: O_19  and  C_20
REMARK   10  A    between atoms: C_23  and  C_24
REMARK                            x       y       z     vdW  Elec       q    Type
REMARK                         _______ _______ _______ _____ _____    ______ ____
ROOT
ATOM      1  C   UNL     1       5.435   6.571  16.998  0.00  0.00    +0.000 A 
ATOM      2  O   UNL     1       6.049   7.620  17.633  0.00  0.00    +0.000 OA
ATOM      3  C   UNL     1       7.416   7.432  17.464  0.00  0.00    +0.000 A 
ATOM      4  N   UNL     1       7.674   6.347  16.747  0.00  0.00    +0.000 NA
ATOM      5  C   UNL     1       6.445   5.811  16.453  0.00  0.00    +0.000 A 
ENDROOT
BRANCH   1   6
ATOM      6  N   UNL     1       4.083   6.567  17.034  0.00  0.00    +0.000 N 
ATOM      7  H   UNL     1       3.596   7.128  16.341  0.00  0.00    +0.000 HD
BRANCH   6   8
ATOM      8  C   UNL     1       3.310   6.293  18.238  0.00  0.00    +0.000 C 
BRANCH   8  12
ATOM      9  C   UNL     1       0.917   9.700  19.476  0.00  0.00    +0.000 A 
ATOM     10  C   UNL     1       1.433   9.623  18.180  0.00  0.00    +0.000 A 
ATOM     11  C   UNL     1       2.202   8.527  17.779  0.00  0.00    +0.000 A 
ATOM     12  C   UNL     1       2.501   7.495  18.680  0.00  0.00    +0.000 A 
ATOM     13  C   UNL     1       1.990   7.584  19.984  0.00  0.00    +0.000 A 
ATOM     14  C   UNL     1       1.203   8.677  20.379  0.00  0.00    +0.000 A 
BRANCH   9  16
ATOM     15  C   UNL     1      -0.554  10.832  20.955  0.00  0.00    +0.000 C 
ATOM     16  O   UNL     1       0.197  10.830  19.746  0.00  0.00    +0.000 OA
ENDBRANCH   9  16
ENDBRANCH   8  12
ENDBRANCH   6   8
ENDBRANCH   1   6
BRANCH   3  17
ATOM     17  C   UNL     1       8.428   8.297  17.985  0.00  0.00    +0.000 C 
ATOM     18  C   UNL     1       8.240   9.617  18.137  0.00  0.00    +0.000 C 
BRANCH  18  19
ATOM     19  C   UNL     1       9.236  10.569  18.671  0.00  0.00    +0.000 A 
ATOM     20  C   UNL     1       9.353  10.677  20.065  0.00  0.00    +0.000 A 
ATOM     21  C   UNL     1      10.214  11.610  20.642  0.00  0.00    +0.000 A 
ATOM     22  C   UNL     1      10.963  12.455  19.829  0.00  0.00    +0.000 A 
ATOM     23  C   UNL     1      10.866  12.369  18.439  0.00  0.00    +0.000 A 
ATOM     24  C   UNL     1      10.006  11.425  17.863  0.00  0.00    +0.000 A 
BRANCH  23  25
ATOM     25  O   UNL     1      11.650  13.271  17.771  0.00  0.00    +0.000 OA
ATOM     26  C   UNL     1      12.333  14.246  18.548  0.00  0.00    +0.000 C 
ENDBRANCH  23  25
ENDBRANCH  18  19
ENDBRANCH   3  17
BRANCH   5  27
ATOM     27  C   UNL     1       6.333   4.649  15.640  0.00  0.00    +0.000 C 
ATOM     28  N   UNL     1       6.231   3.717  14.954  0.00  0.00    +0.000 NA
ENDBRANCH   5  27
TORSDOF 8
ENDMDL
MODEL 5
REMARK VINA RESULT:      -8.0      1.269      1.479
REMARK  Name = 
REMARK  10 active torsions:
REMARK  status: ('A' for Active; 'I' for Inactive)
REMARK    1  A    between atoms: C_1  and  O_2
REMARK    2  A    between atoms: O_2  and  C_3
REMARK    3  A    between atoms: C_6  and  C_7
REMARK    4  A    between atoms: C_7  and  N_8
REMARK    5  A    between atoms: N_8  and  C_9
REMARK    6  A    between atoms: C_11  and  C_12
REMARK    7  A    between atoms: C_13  and  C_14
REMARK    8  A    between atoms: C_18  and  O_19
REMARK    9  A    between atoms: O_19  and  C_20
REMARK   10  A    between atoms: C_23  and  C_24
REMARK                            x       y       z     vdW  Elec       q    Type
REMARK                         _______ _______ _______ _____ _____    ______ ____
ROOT
ATOM      1  C   UNL     1       5.485   5.939  16.934  0.00  0.00    +0.000 A 
ATOM      2  O   UNL     1       5.938   6.903  17.798  0.00  0.00    +0.000 OA
ATOM      3  C   UNL     1       7.245   7.183  17.418  0.00  0.00    +0.000 A 
ATOM      4  N   UNL     1       7.611   6.468  16.363  0.00  0.00    +0.000 NA
ATOM      5  C   UNL     1       6.517   5.695  16.058  0.00  0.00    +0.000 A 
ENDROOT
BRANCH   1   6
ATOM      6  N   UNL     1       4.211   5.525  17.125  0.00  0.00    +0.000 N 
ATOM      7  H   UNL     1       3.560   5.647  16.355  0.00  0.00    +0.000 HD
BRANCH   6   8
ATOM      8  C   UNL     1       3.581   5.432  18.435  0.00  0.00    +0.000 C 
BRANCH   8  12
ATOM      9  C   UNL     1       1.318   9.003  19.428  0.00  0.00    +0.000 A 
ATOM     10  C   UNL     1       1.805   8.803  18.134  0.00  0.00    +0.000 A 
ATOM     11  C   UNL     1       2.533   7.654  17.812  0.00  0.00    +0.000 A 
ATOM     12  C   UNL     1       2.818   6.691  18.790  0.00  0.00    +0.000 A 
ATOM     13  C   UNL     1       2.336   6.904  20.091  0.00  0.00    +0.000 A 
ATOM     14  C   UNL     1       1.590   8.050  20.407  0.00  0.00    +0.000 A 
BRANCH   9  16
ATOM     15  C   UNL     1       1.116  11.310  18.904  0.00  0.00    +0.000 C 
ATOM     16  O   UNL     1       0.637  10.174  19.615  0.00  0.00    +0.000 OA
ENDBRANCH   9  16
ENDBRANCH   8  12
ENDBRANCH   6   8
ENDBRANCH   1   6
BRANCH   3  17
ATOM     17  C   UNL     1       8.098   8.128  18.068  0.00  0.00    +0.000 C 
ATOM     18  C   UNL     1       8.103   9.432  17.752  0.00  0.00    +0.000 C 
BRANCH  18  19
ATOM     19  C   UNL     1       8.950  10.464  18.384  0.00  0.00    +0.000 A 
ATOM     20  C   UNL     1       9.397  10.231  19.693  0.00  0.00    +0.000 A 
ATOM     21  C   UNL     1      10.134  11.194  20.382  0.00  0.00    +0.000 A 
ATOM     22  C   UNL     1      10.425  12.410  19.771  0.00  0.00    +0.000 A 
ATOM     23  C   UNL     1       9.993  12.668  18.468  0.00  0.00    +0.000 A 
ATOM     24  C   UNL     1       9.260  11.695  17.776  0.00  0.00    +0.000 A 
BRANCH  23  25
ATOM     25  O   UNL     1      10.341  13.909  18.004  0.00  0.00    +0.000 OA
ATOM     26  C   UNL     1       9.541  15.009  18.415  0.00  0.00    +0.000 C 
ENDBRANCH  23  25
ENDBRANCH  18  19
ENDBRANCH   3  17
BRANCH   5  27
ATOM     27  C   UNL     1       6.532   4.826  14.932  0.00  0.00    +0.000 C 
ATOM     28  N   UNL     1       6.566   4.099  14.026  0.00  0.00    +0.000 NA
ENDBRANCH   5  27
TORSDOF 8
ENDMDL
MODEL 6
REMARK VINA RESULT:      -7.9      1.259      1.714
REMARK  Name = 
REMARK  10 active torsions:
REMARK  status: ('A' for Active; 'I' for Inactive)
REMARK    1  A    between atoms: C_1  and  O_2
REMARK    2  A    between atoms: O_2  and  C_3
REMARK    3  A    between atoms: C_6  and  C_7
REMARK    4  A    between atoms: C_7  and  N_8
REMARK    5  A    between atoms: N_8  and  C_9
REMARK    6  A    between atoms: C_11  and  C_12
REMARK    7  A    between atoms: C_13  and  C_14
REMARK    8  A    between atoms: C_18  and  O_19
REMARK    9  A    between atoms: O_19  and  C_20
REMARK   10  A    between atoms: C_23  and  C_24
REMARK                            x       y       z     vdW  Elec       q    Type
REMARK                         _______ _______ _______ _____ _____    ______ ____
ROOT
ATOM      1  C   UNL     1       5.842   5.832  17.746  0.00  0.00    +0.000 A 
ATOM      2  O   UNL     1       6.257   7.035  18.259  0.00  0.00    +0.000 OA
ATOM      3  C   UNL     1       7.267   7.488  17.418  0.00  0.00    +0.000 A 
ATOM      4  N   UNL     1       7.478   6.651  16.413  0.00  0.00    +0.000 NA
ATOM      5  C   UNL     1       6.591   5.621  16.612  0.00  0.00    +0.000 A 
ENDROOT
BRANCH   1   6
ATOM      6  N   UNL     1       4.843   5.216  18.418  0.00  0.00    +0.000 N 
ATOM      7  H   UNL     1       5.086   4.399  18.972  0.00  0.00    +0.000 HD
BRANCH   6   8
ATOM      8  C   UNL     1       3.445   5.271  18.012  0.00  0.00    +0.000 C 
BRANCH   8  12
ATOM      9  C   UNL     1       1.506   8.812  19.613  0.00  0.00    +0.000 A 
ATOM     10  C   UNL     1       1.701   7.683  20.411  0.00  0.00    +0.000 A 
ATOM     11  C   UNL     1       2.326   6.542  19.898  0.00  0.00    +0.000 A 
ATOM     12  C   UNL     1       2.741   6.495  18.560  0.00  0.00    +0.000 A 
ATOM     13  C   UNL     1       2.532   7.629  17.760  0.00  0.00    +0.000 A 
ATOM     14  C   UNL     1       1.921   8.780  18.283  0.00  0.00    +0.000 A 
BRANCH   9  16
ATOM     15  C   UNL     1      -0.399  10.226  19.700  0.00  0.00    +0.000 C 
ATOM     16  O   UNL     1       0.869   9.854  20.229  0.00  0.00    +0.000 OA
ENDBRANCH   9  16
ENDBRANCH   8  12
ENDBRANCH   6   8
ENDBRANCH   1   6
BRANCH   3  17
ATOM     17  C   UNL     1       7.989   8.709  17.599  0.00  0.00    +0.000 C 
ATOM     18  C   UNL     1       8.626   9.009  18.741  0.00  0.00    +0.000 C 
BRANCH  18  19
ATOM     19  C   UNL     1       9.393  10.245  18.996  0.00  0.00    +0.000 A 
ATOM     20  C   UNL     1       9.509  10.681  20.324  0.00  0.00    +0.000 A 
ATOM     21  C   UNL     1      10.150  11.880  20.633  0.00  0.00    +0.000 A 
ATOM     22  C   UNL     1      10.678  12.665  19.612  0.00  0.00    +0.000 A 
ATOM     23  C   UNL     1      10.577  12.255  18.281  0.00  0.00    +0.000 A 
ATOM     24  C   UNL     1       9.939  11.045  17.975  0.00  0.00    +0.000 A 
BRANCH  23  25
ATOM     25  O   UNL     1      11.128  13.134  17.387  0.00  0.00    +0.000 OA
ATOM     26  C   UNL     1      11.069  14.517  17.707  0.00  0.00    +0.000 C 
ENDBRANCH  23  25
ENDBRANCH  18  19
ENDBRANCH   3  17
BRANCH   5  27
ATOM     27  C   UNL     1       6.501   4.549  15.682  0.00  0.00    +0.000 C 
ATOM     28  N   UNL     1       6.443   3.690  14.901  0.00  0.00    +0.000 NA
ENDBRANCH   5  27
TORSDOF 8
ENDMDL
MODEL 7
REMARK VINA RESULT:      -7.9      2.072      2.677
REMARK  Name = 
REMARK  10 active torsions:
REMARK  status: ('A' for Active; 'I' for Inactive)
REMARK    1  A    between atoms: C_1  and  O_2
REMARK    2  A    between atoms: O_2  and  C_3
REMARK    3  A    between atoms: C_6  and  C_7
REMARK    4  A    between atoms: C_7  and  N_8
REMARK    5  A    between atoms: N_8  and  C_9
REMARK    6  A    between atoms: C_11  and  C_12
REMARK    7  A    between atoms: C_13  and  C_14
REMARK    8  A    between atoms: C_18  and  O_19
REMARK    9  A    between atoms: O_19  and  C_20
REMARK   10  A    between atoms: C_23  and  C_24
REMARK                            x       y       z     vdW  Elec       q    Type
REMARK                         _______ _______ _______ _____ _____    ______ ____
ROOT
ATOM      1  C   UNL     1       5.577   6.212  16.768  0.00  0.00    +0.000 A 
ATOM      2  O   UNL     1       5.988   7.146  17.685  0.00  0.00    +0.000 OA
ATOM      3  C   UNL     1       7.343   7.351  17.452  0.00  0.00    +0.000 A 
ATOM      4  N   UNL     1       7.779   6.620  16.436  0.00  0.00    +0.000 NA
ATOM      5  C   UNL     1       6.683   5.912  16.006  0.00  0.00    +0.000 A 
ENDROOT
BRANCH   1   6
ATOM      6  N   UNL     1       4.269   5.871  16.815  0.00  0.00    +0.000 N 
ATOM      7  H   UNL     1       3.628   6.534  17.241  0.00  0.00    +0.000 HD
BRANCH   6   8
ATOM      8  C   UNL     1       3.795   4.493  16.815  0.00  0.00    +0.000 C 
BRANCH   8  12
ATOM      9  C   UNL     1       2.967   2.973  20.798  0.00  0.00    +0.000 A 
ATOM     10  C   UNL     1       2.184   3.989  20.244  0.00  0.00    +0.000 A 
ATOM     11  C   UNL     1       2.448   4.479  18.962  0.00  0.00    +0.000 A 
ATOM     12  C   UNL     1       3.526   3.984  18.216  0.00  0.00    +0.000 A 
ATOM     13  C   UNL     1       4.317   2.972  18.783  0.00  0.00    +0.000 A 
ATOM     14  C   UNL     1       4.039   2.469  20.063  0.00  0.00    +0.000 A 
BRANCH   9  16
ATOM     15  C   UNL     1       1.236   2.324  22.287  0.00  0.00    +0.000 C 
ATOM     16  O   UNL     1       2.615   2.596  22.065  0.00  0.00    +0.000 OA
ENDBRANCH   9  16
ENDBRANCH   8  12
ENDBRANCH   6   8
ENDBRANCH   1   6
BRANCH   3  17
ATOM     17  C   UNL     1       8.171   8.244  18.200  0.00  0.00    +0.000 C 
ATOM     18  C   UNL     1       8.413   9.504  17.808  0.00  0.00    +0.000 C 
BRANCH  18  19
ATOM     19  C   UNL     1       9.252  10.481  18.531  0.00  0.00    +0.000 A 
ATOM     20  C   UNL     1       9.256  10.427  19.933  0.00  0.00    +0.000 A 
ATOM     21  C   UNL     1       9.961  11.367  20.685  0.00  0.00    +0.000 A 
ATOM     22  C   UNL     1      10.665  12.381  20.041  0.00  0.00    +0.000 A 
ATOM     23  C   UNL     1      10.677  12.458  18.647  0.00  0.00    +0.000 A 
ATOM     24  C   UNL     1       9.974  11.507  17.895  0.00  0.00    +0.000 A 
BRANCH  23  25
ATOM     25  O   UNL     1      11.398  13.514  18.156  0.00  0.00    +0.000 OA
ATOM     26  C   UNL     1      12.216  13.275  17.019  0.00  0.00    +0.000 C 
ENDBRANCH  23  25
ENDBRANCH  18  19
ENDBRANCH   3  17
BRANCH   5  27
ATOM     27  C   UNL     1       6.772   5.048  14.880  0.00  0.00    +0.000 C 
ATOM     28  N   UNL     1       6.872   4.353  13.954  0.00  0.00    +0.000 NA
ENDBRANCH   5  27
TORSDOF 8
ENDMDL
MODEL 8
REMARK VINA RESULT:      -7.8      1.779      2.251
REMARK  Name = 
REMARK  10 active torsions:
REMARK  status: ('A' for Active; 'I' for Inactive)
REMARK    1  A    between atoms: C_1  and  O_2
REMARK    2  A    between atoms: O_2  and  C_3
REMARK    3  A    between atoms: C_6  and  C_7
REMARK    4  A    between atoms: C_7  and  N_8
REMARK    5  A    between atoms: N_8  and  C_9
REMARK    6  A    between atoms: C_11  and  C_12
REMARK    7  A    between atoms: C_13  and  C_14
REMARK    8  A    between atoms: C_18  and  O_19
REMARK    9  A    between atoms: O_19  and  C_20
REMARK   10  A    between atoms: C_23  and  C_24
REMARK                            x       y       z     vdW  Elec       q    Type
REMARK                         _______ _______ _______ _____ _____    ______ ____
ROOT
ATOM      1  C   UNL     1       5.394   6.472  16.886  0.00  0.00    +0.000 A 
ATOM      2  O   UNL     1       5.936   7.476  17.647  0.00  0.00    +0.000 OA
ATOM      3  C   UNL     1       7.313   7.397  17.472  0.00  0.00    +0.000 A 
ATOM      4  N   UNL     1       7.644   6.424  16.635  0.00  0.00    +0.000 NA
ATOM      5  C   UNL     1       6.452   5.849  16.266  0.00  0.00    +0.000 A 
ENDROOT
BRANCH   1   6
ATOM      6  N   UNL     1       4.045   6.377  16.906  0.00  0.00    +0.000 N 
ATOM      7  H   UNL     1       3.527   6.936  16.234  0.00  0.00    +0.000 HD
BRANCH   6   8
ATOM      8  C   UNL     1       3.281   5.998  18.087  0.00  0.00    +0.000 C 
BRANCH   8  12
ATOM      9  C   UNL     1       1.037   9.321  19.754  0.00  0.00    +0.000 A 
ATOM     10  C   UNL     1       1.418   9.319  18.411  0.00  0.00    +0.000 A 
ATOM     11  C   UNL     1       2.140   8.251  17.871  0.00  0.00    +0.000 A 
ATOM     12  C   UNL     1       2.525   7.170  18.677  0.00  0.00    +0.000 A 
ATOM     13  C   UNL     1       2.149   7.183  20.029  0.00  0.00    +0.000 A 
ATOM     14  C   UNL     1       1.409   8.249  20.564  0.00  0.00    +0.000 A 
BRANCH   9  16
ATOM     15  C   UNL     1       0.325  11.530  19.255  0.00  0.00    +0.000 C 
ATOM     16  O   UNL     1       0.351  10.432  20.161  0.00  0.00    +0.000 OA
ENDBRANCH   9  16
ENDBRANCH   8  12
ENDBRANCH   6   8
ENDBRANCH   1   6
BRANCH   3  17
ATOM     17  C   UNL     1       8.264   8.258  18.103  0.00  0.00    +0.000 C 
ATOM     18  C   UNL     1       8.269   9.587  17.918  0.00  0.00    +0.000 C 
BRANCH  18  19
ATOM     19  C   UNL     1       9.216  10.536  18.539  0.00  0.00    +0.000 A 
ATOM     20  C   UNL     1      10.347  10.909  17.799  0.00  0.00    +0.000 A 
ATOM     21  C   UNL     1      11.324  11.738  18.350  0.00  0.00    +0.000 A 
ATOM     22  C   UNL     1      11.185  12.197  19.657  0.00  0.00    +0.000 A 
ATOM     23  C   UNL     1      10.069  11.841  20.416  0.00  0.00    +0.000 A 
ATOM     24  C   UNL     1       9.085  11.014  19.856  0.00  0.00    +0.000 A 
BRANCH  23  25
ATOM     25  O   UNL     1      10.075  12.355  21.686  0.00  0.00    +0.000 OA
ATOM     26  C   UNL     1       9.721  13.722  21.839  0.00  0.00    +0.000 C 
ENDBRANCH  23  25
ENDBRANCH  18  19
ENDBRANCH   3  17
BRANCH   5  27
ATOM     27  C   UNL     1       6.420   4.786  15.321  0.00  0.00    +0.000 C 
ATOM     28  N   UNL     1       6.413   3.934  14.531  0.00  0.00    +0.000 NA
ENDBRANCH   5  27
TORSDOF 8
ENDMDL
MODEL 9
REMARK VINA RESULT:      -7.7      2.759      7.216
REMARK  Name = 
REMARK  10 active torsions:
REMARK  status: ('A' for Active; 'I' for Inactive)
REMARK    1  A    between atoms: C_1  and  O_2
REMARK    2  A    between atoms: O_2  and  C_3
REMARK    3  A    between atoms: C_6  and  C_7
REMARK    4  A    between atoms: C_7  and  N_8
REMARK    5  A    between atoms: N_8  and  C_9
REMARK    6  A    between atoms: C_11  and  C_12
REMARK    7  A    between atoms: C_13  and  C_14
REMARK    8  A    between atoms: C_18  and  O_19
REMARK    9  A    between atoms: O_19  and  C_20
REMARK   10  A    between atoms: C_23  and  C_24
REMARK                            x       y       z     vdW  Elec       q    Type
REMARK                         _______ _______ _______ _____ _____    ______ ____
ROOT
ATOM      1  C   UNL     1       3.284   4.369  18.289  0.00  0.00    +0.000 A 
ATOM      2  O   UNL     1       2.473   5.465  18.437  0.00  0.00    +0.000 OA
ATOM      3  C   UNL     1       2.196   5.565  19.796  0.00  0.00    +0.000 A 
ATOM      4  N   UNL     1       2.805   4.613  20.489  0.00  0.00    +0.000 NA
ATOM      5  C   UNL     1       3.485   3.869  19.556  0.00  0.00    +0.000 A 
ENDROOT
BRANCH   1   6
ATOM      6  N   UNL     1       3.685   4.095  17.027  0.00  0.00    +0.000 N 
ATOM      7  H   UNL     1       3.024   3.620  16.420  0.00  0.00    +0.000 HD
BRANCH   6   8
ATOM      8  C   UNL     1       5.080   3.929  16.643  0.00  0.00    +0.000 C 
BRANCH   8  12
ATOM      9  C   UNL     1       7.644   7.118  18.098  0.00  0.00    +0.000 A 
ATOM     10  C   UNL     1       7.785   5.813  18.578  0.00  0.00    +0.000 A 
ATOM     11  C   UNL     1       6.962   4.785  18.110  0.00  0.00    +0.000 A 
ATOM     12  C   UNL     1       5.953   5.047  17.173  0.00  0.00    +0.000 A 
ATOM     13  C   UNL     1       5.809   6.362  16.703  0.00  0.00    +0.000 A 
ATOM     14  C   UNL     1       6.649   7.390  17.161  0.00  0.00    +0.000 A 
BRANCH   9  16
ATOM     15  C   UNL     1       8.432   9.357  18.131  0.00  0.00    +0.000 C 
ATOM     16  O   UNL     1       8.499   8.033  18.649  0.00  0.00    +0.000 OA
ENDBRANCH   9  16
ENDBRANCH   8  12
ENDBRANCH   6   8
ENDBRANCH   1   6
BRANCH   3  17
ATOM     17  C   UNL     1       1.368   6.569  20.386  0.00  0.00    +0.000 C 
ATOM     18  C   UNL     1       1.728   7.860  20.444  0.00  0.00    +0.000 C 
BRANCH  18  19
ATOM     19  C   UNL     1       0.923   8.950  21.033  0.00  0.00    +0.000 A 
ATOM     20  C   UNL     1       0.790   8.983  22.429  0.00  0.00    +0.000 A 
ATOM     21  C   UNL     1      -0.019   9.934  23.051  0.00  0.00    +0.000 A 
ATOM     22  C   UNL     1      -0.714  10.861  22.279  0.00  0.00    +0.000 A 
ATOM     23  C   UNL     1      -0.599  10.851  20.888  0.00  0.00    +0.000 A 
ATOM     24  C   UNL     1       0.221   9.898  20.267  0.00  0.00    +0.000 A 
BRANCH  23  25
ATOM     25  O   UNL     1      -1.350  11.810  20.262  0.00  0.00    +0.000 OA
ATOM     26  C   UNL     1      -1.908  11.481  18.997  0.00  0.00    +0.000 C 
ENDBRANCH  23  25
ENDBRANCH  18  19
ENDBRANCH   3  17
BRANCH   5  27
ATOM     27  C   UNL     1       4.304   2.776  19.953  0.00  0.00    +0.000 C 
ATOM     28  N   UNL     1       4.963   1.887  20.307  0.00  0.00    +0.000 NA
ENDBRANCH   5  27
TORSDOF 8
ENDMDL
