MODEL 1
REMARK VINA RESULT:      -8.2      0.000      0.000
REMARK  Name = 
REMARK  9 active torsions:
REMARK  status: ('A' for Active; 'I' for Inactive)
REMARK    1  A    between atoms: C_2  and  O_3
REMARK    2  A    between atoms: C_2  and  C_4
REMARK    3  A    between atoms: C_4  and  C_5
REMARK    4  A    between atoms: C_5  and  C_6
REMARK    5  A    between atoms: C_5  and  C_27
REMARK    6  A    between atoms: C_6  and  C_7
REMARK    7  A    between atoms: C_11  and  C_13
REMARK    8  A    between atoms: C_13  and  C_14
REMARK    9  A    between atoms: C_14  and  C_15
REMARK                            x       y       z     vdW  Elec       q    Type
REMARK                         _______ _______ _______ _____ _____    ______ ____
ROOT
ATOM      1  C   UNL     1       2.560   6.546  18.250  0.00  0.00    +0.000 C 
ATOM      2  C   UNL     1       1.675   7.602  17.553  0.00  0.00    +0.000 C 
ATOM      3  C   UNL     1       1.929   8.952  18.205  0.00  0.00    +0.000 C 
ATOM      4  N   UNL     1       1.352   8.934  19.529  0.00  0.00    +0.000 N 
ATOM      5  C   UNL     1       0.915  10.176  19.970  0.00  0.00    +0.000 C 
ATOM      6  O   UNL     1       1.151  11.211  19.335  0.00  0.00    +0.000 OA
ATOM      7  C   UNL     1       1.866   7.885  20.419  0.00  0.00    +0.000 C 
ATOM      8  C   UNL     1       2.083   6.511  19.718  0.00  0.00    +0.000 C 
ENDROOT
BRANCH   1   9
ATOM      9  C   UNL     1       4.040   6.870  17.878  0.00  0.00    +0.000 C 
BRANCH   9  10
ATOM     10  C   UNL     1       4.995   5.817  17.268  0.00  0.00    +0.000 C 
BRANCH  10  11
ATOM     11  C   UNL     1       4.610   4.434  17.828  0.00  0.00    +0.000 A 
ATOM     12  C   UNL     1       3.686   3.557  17.229  0.00  0.00    +0.000 A 
ATOM     13  C   UNL     1       3.334   2.366  17.873  0.00  0.00    +0.000 A 
ATOM     14  C   UNL     1       3.903   2.081  19.110  0.00  0.00    +0.000 A 
ATOM     15  N   UNL     1       4.774   2.903  19.724  0.00  0.00    +0.000 NA
ATOM     16  C   UNL     1       5.086   4.050  19.080  0.00  0.00    +0.000 A 
ENDBRANCH  10  11
BRANCH  10  17
ATOM     17  C   UNL     1       5.332   5.847  15.757  0.00  0.00    +0.000 C 
BRANCH  17  19
ATOM     18  O   UNL     1       6.188   3.882  14.604  0.00  0.00    +0.000 OA
ATOM     19  C   UNL     1       6.391   4.958  15.140  0.00  0.00    +0.000 C 
BRANCH  19  20
ATOM     20  O   UNL     1       7.624   5.537  15.115  0.00  0.00    +0.000 OA
ATOM     21  H   UNL     1       7.665   6.490  15.324  0.00  0.00    +0.000 HD
ENDBRANCH  19  20
ENDBRANCH  17  19
ENDBRANCH  10  17
ENDBRANCH   9  10
ENDBRANCH   1   9
BRANCH   5  22
ATOM     22  C   UNL     1       0.081  10.228  21.213  0.00  0.00    +0.000 C 
BRANCH  22  23
ATOM     23  C   UNL     1       0.007  11.691  21.660  0.00  0.00    +0.000 C 
BRANCH  23  24
ATOM     24  C   UNL     1      -1.424  12.096  21.806  0.00  0.00    +0.000 A 
ATOM     25  C   UNL     1      -2.023  12.136  23.058  0.00  0.00    +0.000 A 
ATOM     26  C   UNL     1      -3.373  12.439  23.128  0.00  0.00    +0.000 A 
ATOM     27  C   UNL     1      -4.073  12.720  21.955  0.00  0.00    +0.000 A 
ATOM     28  C   UNL     1      -3.390  12.653  20.741  0.00  0.00    +0.000 A 
ATOM     29  N   UNL     1      -2.091  12.336  20.656  0.00  0.00    +0.000 NA
ATOM     30  N   UNL     1      -4.016  12.957  19.545  0.00  0.00    +0.000 N 
ATOM     31  C   UNL     1      -5.450  12.768  19.501  0.00  0.00    +0.000 C 
ATOM     32  C   UNL     1      -6.069  13.536  20.665  0.00  0.00    +0.000 C 
ATOM     33  C   UNL     1      -5.553  12.979  21.990  0.00  0.00    +0.000 C 
ATOM     34  H   UNL     1      -3.449  12.628  18.764  0.00  0.00    +0.000 HD
ENDBRANCH  23  24
ENDBRANCH  22  23
ENDBRANCH   5  22
TORSDOF 9
ENDMDL
MODEL 2
REMARK VINA RESULT:      -8.1      3.058      4.075
REMARK  Name = 
REMARK  9 active torsions:
REMARK  status: ('A' for Active; 'I' for Inactive)
REMARK    1  A    between atoms: C_2  and  O_3
REMARK    2  A    between atoms: C_2  and  C_4
REMARK    3  A    between atoms: C_4  and  C_5
REMARK    4  A    between atoms: C_5  and  C_6
REMARK    5  A    between atoms: C_5  and  C_27
REMARK    6  A    between atoms: C_6  and  C_7
REMARK    7  A    between atoms: C_11  and  C_13
REMARK    8  A    between atoms: C_13  and  C_14
REMARK    9  A    between atoms: C_14  and  C_15
REMARK                            x       y       z     vdW  Elec       q    Type
REMARK                         _______ _______ _______ _____ _____    ______ ____
ROOT
ATOM      1  C   UNL     1       3.159   6.712  18.195  0.00  0.00    +0.000 C 
ATOM      2  C   UNL     1       3.185   6.849  19.733  0.00  0.00    +0.000 C 
ATOM      3  C   UNL     1       1.804   7.274  20.204  0.00  0.00    +0.000 C 
ATOM      4  N   UNL     1       1.589   8.646  19.805  0.00  0.00    +0.000 N 
ATOM      5  C   UNL     1       0.759   9.358  20.661  0.00  0.00    +0.000 C 
ATOM      6  O   UNL     1       0.148   8.804  21.584  0.00  0.00    +0.000 OA
ATOM      7  C   UNL     1       1.685   8.898  18.362  0.00  0.00    +0.000 C 
ATOM      8  C   UNL     1       2.841   8.125  17.660  0.00  0.00    +0.000 C 
ENDROOT
BRANCH   1   9
ATOM      9  C   UNL     1       2.254   5.487  17.858  0.00  0.00    +0.000 C 
BRANCH   9  10
ATOM     10  C   UNL     1       2.813   4.052  17.717  0.00  0.00    +0.000 C 
BRANCH  10  11
ATOM     11  C   UNL     1       4.320   4.150  17.409  0.00  0.00    +0.000 A 
ATOM     12  C   UNL     1       5.326   4.310  18.380  0.00  0.00    +0.000 A 
ATOM     13  C   UNL     1       6.657   4.487  17.986  0.00  0.00    +0.000 A 
ATOM     14  C   UNL     1       6.954   4.513  16.627  0.00  0.00    +0.000 A 
ATOM     15  N   UNL     1       6.017   4.384  15.668  0.00  0.00    +0.000 NA
ATOM     16  C   UNL     1       4.740   4.223  16.083  0.00  0.00    +0.000 A 
ENDBRANCH  10  11
BRANCH  10  17
ATOM     17  C   UNL     1       2.416   2.953  18.732  0.00  0.00    +0.000 C 
BRANCH  17  19
ATOM     18  O   UNL     1       0.193   2.003  18.449  0.00  0.00    +0.000 OA
ATOM     19  C   UNL     1       0.976   2.669  19.105  0.00  0.00    +0.000 C 
BRANCH  19  20
ATOM     20  O   UNL     1       0.646   3.128  20.345  0.00  0.00    +0.000 OA
ATOM     21  H   UNL     1       0.686   4.095  20.479  0.00  0.00    +0.000 HD
ENDBRANCH  19  20
ENDBRANCH  17  19
ENDBRANCH  10  17
ENDBRANCH   9  10
ENDBRANCH   1   9
BRANCH   5  22
ATOM     22  C   UNL     1       0.671  10.842  20.483  0.00  0.00    +0.000 C 
BRANCH  22  23
ATOM     23  C   UNL     1      -0.684  11.295  21.031  0.00  0.00    +0.000 C 
BRANCH  23  24
ATOM     24  C   UNL     1      -1.656  11.436  19.906  0.00  0.00    +0.000 A 
ATOM     25  C   UNL     1      -2.833  12.153  20.072  0.00  0.00    +0.000 A 
ATOM     26  C   UNL     1      -3.736  12.184  19.023  0.00  0.00    +0.000 A 
ATOM     27  C   UNL     1      -3.425  11.525  17.833  0.00  0.00    +0.000 A 
ATOM     28  C   UNL     1      -2.220  10.826  17.756  0.00  0.00    +0.000 A 
ATOM     29  N   UNL     1      -1.350  10.767  18.772  0.00  0.00    +0.000 NA
ATOM     30  N   UNL     1      -1.834  10.183  16.593  0.00  0.00    +0.000 N 
ATOM     31  C   UNL     1      -2.896   9.756  15.709  0.00  0.00    +0.000 C 
ATOM     32  C   UNL     1      -3.783  10.962  15.411  0.00  0.00    +0.000 C 
ATOM     33  C   UNL     1      -4.414  11.476  16.703  0.00  0.00    +0.000 C 
ATOM     34  H   UNL     1      -1.066   9.542  16.790  0.00  0.00    +0.000 HD
ENDBRANCH  23  24
ENDBRANCH  22  23
ENDBRANCH   5  22
TORSDOF 9
ENDMDL
MODEL 3
REMARK VINA RESULT:      -8.1      2.921     10.014
REMARK  Name = 
REMARK  9 active torsions:
REMARK  status: ('A' for Active; 'I' for Inactive)
REMARK    1  A    between atoms: C_2  and  O_3
REMARK    2  A    between atoms: C_2  and  C_4
REMARK    3  A    between atoms: C_4  and  C_5
REMARK    4  A    between atoms: C_5  and  C_6
REMARK    5  A    between atoms: C_5  and  C_27
REMARK    6  A    between atoms: C_6  and  C_7
REMARK    7  A    between atoms: C_11  and  C_13
REMARK    8  A    between atoms: C_13  and  C_14
REMARK    9  A    between atoms: C_14  and  C_15
REMARK                            x       y       z     vdW  Elec       q    Type
REMARK                         _______ _______ _______ _____ _____    ______ ____
ROOT
ATOM      1  C   UNL     1       2.246   7.934  19.148  0.00  0.00    +0.000 C 
ATOM      2  C   UNL     1       2.514   7.084  17.887  0.00  0.00    +0.000 C 
ATOM      3  C   UNL     1       1.578   5.887  17.902  0.00  0.00    +0.000 C 
ATOM      4  N   UNL     1       2.010   4.984  18.943  0.00  0.00    +0.000 N 
ATOM      5  C   UNL     1       1.735   3.648  18.680  0.00  0.00    +0.000 C 
ATOM      6  O   UNL     1       1.046   3.305  17.712  0.00  0.00    +0.000 OA
ATOM      7  C   UNL     1       2.047   5.561  20.293  0.00  0.00    +0.000 C 
ATOM      8  C   UNL     1       2.593   7.019  20.343  0.00  0.00    +0.000 C 
ENDROOT
BRANCH   1   9
ATOM      9  C   UNL     1       0.828   8.563  18.984  0.00  0.00    +0.000 C 
BRANCH   9  10
ATOM     10  C   UNL     1       0.517  10.027  19.375  0.00  0.00    +0.000 C 
BRANCH  10  11
ATOM     11  C   UNL     1      -0.833  10.419  18.743  0.00  0.00    +0.000 A 
ATOM     12  C   UNL     1      -1.306   9.941  17.506  0.00  0.00    +0.000 A 
ATOM     13  C   UNL     1      -2.503  10.437  16.976  0.00  0.00    +0.000 A 
ATOM     14  C   UNL     1      -3.196  11.411  17.689  0.00  0.00    +0.000 A 
ATOM     15  N   UNL     1      -2.766  11.907  18.863  0.00  0.00    +0.000 NA
ATOM     16  C   UNL     1      -1.602  11.413  19.343  0.00  0.00    +0.000 A 
ENDBRANCH  10  11
BRANCH  10  17
ATOM     17  C   UNL     1       0.731  10.512  20.829  0.00  0.00    +0.000 C 
BRANCH  17  19
ATOM     18  O   UNL     1      -0.498   8.984  22.272  0.00  0.00    +0.000 OA
ATOM     19  C   UNL     1       0.518   9.612  22.029  0.00  0.00    +0.000 C 
BRANCH  19  20
ATOM     20  O   UNL     1       1.644   9.450  22.780  0.00  0.00    +0.000 OA
ATOM     21  H   UNL     1       1.530   9.471  23.750  0.00  0.00    +0.000 HD
ENDBRANCH  19  20
ENDBRANCH  17  19
ENDBRANCH  10  17
ENDBRANCH   9  10
ENDBRANCH   1   9
BRANCH   5  22
ATOM     22  C   UNL     1       2.358   2.614  19.567  0.00  0.00    +0.000 C 
BRANCH  22  23
ATOM     23  C   UNL     1       3.558   2.026  18.820  0.00  0.00    +0.000 C 
BRANCH  23  24
ATOM     24  C   UNL     1       4.395   3.134  18.268  0.00  0.00    +0.000 A 
ATOM     25  C   UNL     1       4.365   3.435  16.914  0.00  0.00    +0.000 A 
ATOM     26  C   UNL     1       5.220   4.417  16.442  0.00  0.00    +0.000 A 
ATOM     27  C   UNL     1       6.055   5.086  17.338  0.00  0.00    +0.000 A 
ATOM     28  C   UNL     1       6.020   4.714  18.682  0.00  0.00    +0.000 A 
ATOM     29  N   UNL     1       5.216   3.750  19.147  0.00  0.00    +0.000 NA
ATOM     30  N   UNL     1       6.794   5.363  19.629  0.00  0.00    +0.000 N 
ATOM     31  C   UNL     1       8.011   5.983  19.151  0.00  0.00    +0.000 C 
ATOM     32  C   UNL     1       7.653   6.910  17.994  0.00  0.00    +0.000 C 
ATOM     33  C   UNL     1       7.047   6.103  16.848  0.00  0.00    +0.000 C 
ATOM     34  H   UNL     1       6.820   4.816  20.488  0.00  0.00    +0.000 HD
ENDBRANCH  23  24
ENDBRANCH  22  23
ENDBRANCH   5  22
TORSDOF 9
ENDMDL
MODEL 4
REMARK VINA RESULT:      -8.0      0.938      1.485
REMARK  Name = 
REMARK  9 active torsions:
REMARK  status: ('A' for Active; 'I' for Inactive)
REMARK    1  A    between atoms: C_2  and  O_3
REMARK    2  A    between atoms: C_2  and  C_4
REMARK    3  A    between atoms: C_4  and  C_5
REMARK    4  A    between atoms: C_5  and  C_6
REMARK    5  A    between atoms: C_5  and  C_27
REMARK    6  A    between atoms: C_6  and  C_7
REMARK    7  A    between atoms: C_11  and  C_13
REMARK    8  A    between atoms: C_13  and  C_14
REMARK    9  A    between atoms: C_14  and  C_15
REMARK                            x       y       z     vdW  Elec       q    Type
REMARK                         _______ _______ _______ _____ _____    ______ ____
ROOT
ATOM      1  C   UNL     1       2.613   6.553  18.183  0.00  0.00    +0.000 C 
ATOM      2  C   UNL     1       1.766   7.643  17.489  0.00  0.00    +0.000 C 
ATOM      3  C   UNL     1       2.020   8.969  18.186  0.00  0.00    +0.000 C 
ATOM      4  N   UNL     1       1.401   8.924  19.491  0.00  0.00    +0.000 N 
ATOM      5  C   UNL     1       0.969  10.160  19.952  0.00  0.00    +0.000 C 
ATOM      6  O   UNL     1       1.241  11.209  19.354  0.00  0.00    +0.000 OA
ATOM      7  C   UNL     1       1.871   7.842  20.366  0.00  0.00    +0.000 C 
ATOM      8  C   UNL     1       2.089   6.485  19.633  0.00  0.00    +0.000 C 
ENDROOT
BRANCH   1   9
ATOM      9  C   UNL     1       4.109   6.864  17.867  0.00  0.00    +0.000 C 
BRANCH   9  10
ATOM     10  C   UNL     1       5.079   5.799  17.306  0.00  0.00    +0.000 C 
BRANCH  10  11
ATOM     11  C   UNL     1       4.636   4.418  17.827  0.00  0.00    +0.000 A 
ATOM     12  C   UNL     1       3.683   3.595  17.199  0.00  0.00    +0.000 A 
ATOM     13  C   UNL     1       3.279   2.402  17.809  0.00  0.00    +0.000 A 
ATOM     14  C   UNL     1       3.827   2.063  19.042  0.00  0.00    +0.000 A 
ATOM     15  N   UNL     1       4.725   2.834  19.683  0.00  0.00    +0.000 NA
ATOM     16  C   UNL     1       5.087   3.983  19.071  0.00  0.00    +0.000 A 
ENDBRANCH  10  11
BRANCH  10  17
ATOM     17  C   UNL     1       5.509   5.837  15.818  0.00  0.00    +0.000 C 
BRANCH  17  19
ATOM     18  O   UNL     1       5.974   3.892  14.430  0.00  0.00    +0.000 OA
ATOM     19  C   UNL     1       6.368   4.760  15.190  0.00  0.00    +0.000 C 
BRANCH  19  20
ATOM     20  O   UNL     1       7.696   4.920  15.450  0.00  0.00    +0.000 OA
ATOM     21  H   UNL     1       7.938   5.164  16.364  0.00  0.00    +0.000 HD
ENDBRANCH  19  20
ENDBRANCH  17  19
ENDBRANCH  10  17
ENDBRANCH   9  10
ENDBRANCH   1   9
BRANCH   5  22
ATOM     22  C   UNL     1       0.097  10.191  21.169  0.00  0.00    +0.000 C 
BRANCH  22  23
ATOM     23  C   UNL     1      -0.076  11.656  21.579  0.00  0.00    +0.000 C 
BRANCH  23  24
ATOM     24  C   UNL     1      -1.521  12.028  21.509  0.00  0.00    +0.000 A 
ATOM     25  C   UNL     1      -2.092  12.424  20.308  0.00  0.00    +0.000 A 
ATOM     26  C   UNL     1      -3.414  12.835  20.315  0.00  0.00    +0.000 A 
ATOM     27  C   UNL     1      -4.132  12.810  21.511  0.00  0.00    +0.000 A 
ATOM     28  C   UNL     1      -3.476  12.400  22.671  0.00  0.00    +0.000 A 
ATOM     29  N   UNL     1      -2.190  12.024  22.683  0.00  0.00    +0.000 NA
ATOM     30  N   UNL     1      -4.140  12.316  23.883  0.00  0.00    +0.000 N 
ATOM     31  C   UNL     1      -5.287  13.181  24.050  0.00  0.00    +0.000 C 
ATOM     32  C   UNL     1      -6.236  12.949  22.878  0.00  0.00    +0.000 C 
ATOM     33  C   UNL     1      -5.545  13.320  21.567  0.00  0.00    +0.000 C 
ATOM     34  H   UNL     1      -3.465  12.236  24.642  0.00  0.00    +0.000 HD
ENDBRANCH  23  24
ENDBRANCH  22  23
ENDBRANCH   5  22
TORSDOF 9
ENDMDL
MODEL 5
REMARK VINA RESULT:      -7.9      2.201      3.024
REMARK  Name = 
REMARK  9 active torsions:
REMARK  status: ('A' for Active; 'I' for Inactive)
REMARK    1  A    between atoms: C_2  and  O_3
REMARK    2  A    between atoms: C_2  and  C_4
REMARK    3  A    between atoms: C_4  and  C_5
REMARK    4  A    between atoms: C_5  and  C_6
REMARK    5  A    between atoms: C_5  and  C_27
REMARK    6  A    between atoms: C_6  and  C_7
REMARK    7  A    between atoms: C_11  and  C_13
REMARK    8  A    between atoms: C_13  and  C_14
REMARK    9  A    between atoms: C_14  and  C_15
REMARK                            x       y       z     vdW  Elec       q    Type
REMARK                         _______ _______ _______ _____ _____    ______ ____
ROOT
ATOM      1  C   UNL     1       3.099   6.694  18.345  0.00  0.00    +0.000 C 
ATOM      2  C   UNL     1       3.024   6.792  19.885  0.00  0.00    +0.000 C 
ATOM      3  C   UNL     1       1.599   7.143  20.279  0.00  0.00    +0.000 C 
ATOM      4  N   UNL     1       1.344   8.513  19.899  0.00  0.00    +0.000 N 
ATOM      5  C   UNL     1       0.432   9.164  20.717  0.00  0.00    +0.000 C 
ATOM      6  O   UNL     1      -0.208   8.561  21.587  0.00  0.00    +0.000 OA
ATOM      7  C   UNL     1       1.517   8.806  18.470  0.00  0.00    +0.000 C 
ATOM      8  C   UNL     1       2.748   8.104  17.824  0.00  0.00    +0.000 C 
ENDROOT
BRANCH   1   9
ATOM      9  C   UNL     1       2.273   5.438  17.925  0.00  0.00    +0.000 C 
BRANCH   9  10
ATOM     10  C   UNL     1       2.922   4.196  17.271  0.00  0.00    +0.000 C 
BRANCH  10  11
ATOM     11  C   UNL     1       4.448   4.410  17.236  0.00  0.00    +0.000 A 
ATOM     12  C   UNL     1       5.190   4.690  16.073  0.00  0.00    +0.000 A 
ATOM     13  C   UNL     1       6.586   4.769  16.136  0.00  0.00    +0.000 A 
ATOM     14  C   UNL     1       7.213   4.554  17.359  0.00  0.00    +0.000 A 
ATOM     15  N   UNL     1       6.540   4.264  18.488  0.00  0.00    +0.000 NA
ATOM     16  C   UNL     1       5.193   4.186  18.392  0.00  0.00    +0.000 A 
ENDBRANCH  10  11
BRANCH  10  17
ATOM     17  C   UNL     1       2.464   2.772  17.669  0.00  0.00    +0.000 C 
BRANCH  17  19
ATOM     18  O   UNL     1       0.252   2.221  18.524  0.00  0.00    +0.000 OA
ATOM     19  C   UNL     1       1.416   2.520  18.733  0.00  0.00    +0.000 C 
BRANCH  19  20
ATOM     20  O   UNL     1       1.926   2.528  19.996  0.00  0.00    +0.000 OA
ATOM     21  H   UNL     1       2.754   2.031  20.137  0.00  0.00    +0.000 HD
ENDBRANCH  19  20
ENDBRANCH  17  19
ENDBRANCH  10  17
ENDBRANCH   9  10
ENDBRANCH   1   9
BRANCH   5  22
ATOM     22  C   UNL     1       0.286  10.648  20.568  0.00  0.00    +0.000 C 
BRANCH  22  23
ATOM     23  C   UNL     1      -0.019  11.225  21.953  0.00  0.00    +0.000 C 
BRANCH  23  24
ATOM     24  C   UNL     1      -1.395  11.806  21.960  0.00  0.00    +0.000 A 
ATOM     25  C   UNL     1      -2.055  12.048  23.156  0.00  0.00    +0.000 A 
ATOM     26  C   UNL     1      -3.359  12.511  23.103  0.00  0.00    +0.000 A 
ATOM     27  C   UNL     1      -3.952  12.745  21.862  0.00  0.00    +0.000 A 
ATOM     28  C   UNL     1      -3.214  12.471  20.711  0.00  0.00    +0.000 A 
ATOM     29  N   UNL     1      -1.962  11.999  20.748  0.00  0.00    +0.000 NA
ATOM     30  N   UNL     1      -3.730  12.716  19.450  0.00  0.00    +0.000 N 
ATOM     31  C   UNL     1      -5.171  12.691  19.326  0.00  0.00    +0.000 C 
ATOM     32  C   UNL     1      -5.756  13.645  20.363  0.00  0.00    +0.000 C 
ATOM     33  C   UNL     1      -5.389  13.176  21.769  0.00  0.00    +0.000 C 
ATOM     34  H   UNL     1      -3.164  12.243  18.747  0.00  0.00    +0.000 HD
ENDBRANCH  23  24
ENDBRANCH  22  23
ENDBRANCH   5  22
TORSDOF 9
ENDMDL
MODEL 6
REMARK VINA RESULT:      -7.8      1.264      1.912
REMARK  Name = 
REMARK  9 active torsions:
REMARK  status: ('A' for Active; 'I' for Inactive)
REMARK    1  A    between atoms: C_2  and  O_3
REMARK    2  A    between atoms: C_2  and  C_4
REMARK    3  A    between atoms: C_4  and  C_5
REMARK    4  A    between atoms: C_5  and  C_6
REMARK    5  A    between atoms: C_5  and  C_27
REMARK    6  A    between atoms: C_6  and  C_7
REMARK    7  A    between atoms: C_11  and  C_13
REMARK    8  A    between atoms: C_13  and  C_14
REMARK    9  A    between atoms: C_14  and  C_15
REMARK                            x       y       z     vdW  Elec       q    Type
REMARK                         _______ _______ _______ _____ _____    ______ ____
ROOT
ATOM      1  C   UNL     1       2.570   6.448  18.364  0.00  0.00    +0.000 C 
ATOM      2  C   UNL     1       1.726   7.438  17.532  0.00  0.00    +0.000 C 
ATOM      3  C   UNL     1       2.011   8.848  18.023  0.00  0.00    +0.000 C 
ATOM      4  N   UNL     1       1.417   9.005  19.330  0.00  0.00    +0.000 N 
ATOM      5  C   UNL     1       1.011  10.302  19.613  0.00  0.00    +0.000 C 
ATOM      6  O   UNL     1       1.285  11.247  18.864  0.00  0.00    +0.000 OA
ATOM      7  C   UNL     1       1.887   8.054  20.346  0.00  0.00    +0.000 C 
ATOM      8  C   UNL     1       2.072   6.601  19.817  0.00  0.00    +0.000 C 
ENDROOT
BRANCH   1   9
ATOM      9  C   UNL     1       4.064   6.684  17.981  0.00  0.00    +0.000 C 
BRANCH   9  10
ATOM     10  C   UNL     1       5.007   5.534  17.557  0.00  0.00    +0.000 C 
BRANCH  10  11
ATOM     11  C   UNL     1       4.434   4.213  18.106  0.00  0.00    +0.000 A 
ATOM     12  C   UNL     1       4.750   3.666  19.363  0.00  0.00    +0.000 A 
ATOM     13  C   UNL     1       4.251   2.409  19.725  0.00  0.00    +0.000 A 
ATOM     14  C   UNL     1       3.455   1.720  18.816  0.00  0.00    +0.000 A 
ATOM     15  N   UNL     1       3.147   2.201  17.597  0.00  0.00    +0.000 NA
ATOM     16  C   UNL     1       3.653   3.413  17.276  0.00  0.00    +0.000 A 
ENDBRANCH  10  11
BRANCH  10  17
ATOM     17  C   UNL     1       5.557   5.465  16.111  0.00  0.00    +0.000 C 
BRANCH  17  19
ATOM     18  O   UNL     1       7.638   5.488  14.848  0.00  0.00    +0.000 OA
ATOM     19  C   UNL     1       6.992   5.091  15.802  0.00  0.00    +0.000 C 
BRANCH  19  20
ATOM     20  O   UNL     1       7.571   4.345  16.785  0.00  0.00    +0.000 OA
ATOM     21  H   UNL     1       6.971   3.949  17.446  0.00  0.00    +0.000 HD
ENDBRANCH  19  20
ENDBRANCH  17  19
ENDBRANCH  10  17
ENDBRANCH   9  10
ENDBRANCH   1   9
BRANCH   5  22
ATOM     22  C   UNL     1       0.162  10.525  20.827  0.00  0.00    +0.000 C 
BRANCH  22  23
ATOM     23  C   UNL     1       0.112  12.032  21.087  0.00  0.00    +0.000 C 
BRANCH  23  24
ATOM     24  C   UNL     1      -1.299  12.447  21.354  0.00  0.00    +0.000 A 
ATOM     25  C   UNL     1      -1.964  13.294  20.479  0.00  0.00    +0.000 A 
ATOM     26  C   UNL     1      -3.241  13.711  20.816  0.00  0.00    +0.000 A 
ATOM     27  C   UNL     1      -3.823  13.248  21.997  0.00  0.00    +0.000 A 
ATOM     28  C   UNL     1      -3.078  12.401  22.817  0.00  0.00    +0.000 A 
ATOM     29  N   UNL     1      -1.833  12.010  22.515  0.00  0.00    +0.000 NA
ATOM     30  N   UNL     1      -3.610  11.876  23.982  0.00  0.00    +0.000 N 
ATOM     31  C   UNL     1      -4.660  12.644  24.614  0.00  0.00    +0.000 C 
ATOM     32  C   UNL     1      -5.747  12.913  23.578  0.00  0.00    +0.000 C 
ATOM     33  C   UNL     1      -5.177  13.740  22.428  0.00  0.00    +0.000 C 
ATOM     34  H   UNL     1      -2.865  11.488  24.558  0.00  0.00    +0.000 HD
ENDBRANCH  23  24
ENDBRANCH  22  23
ENDBRANCH   5  22
TORSDOF 9
ENDMDL
MODEL 7
REMARK VINA RESULT:      -7.8      5.892      9.585
REMARK  Name = 
REMARK  9 active torsions:
REMARK  status: ('A' for Active; 'I' for Inactive)
REMARK    1  A    between atoms: C_2  and  O_3
REMARK    2  A    between atoms: C_2  and  C_4
REMARK    3  A    between atoms: C_4  and  C_5
REMARK    4  A    between atoms: C_5  and  C_6
REMARK    5  A    between atoms: C_5  and  C_27
REMARK    6  A    between atoms: C_6  and  C_7
REMARK    7  A    between atoms: C_11  and  C_13
REMARK    8  A    between atoms: C_13  and  C_14
REMARK    9  A    between atoms: C_14  and  C_15
REMARK                            x       y       z     vdW  Elec       q    Type
REMARK                         _______ _______ _______ _____ _____    ______ ____
ROOT
ATOM      1  C   UNL     1       5.275   5.213  15.737  0.00  0.00    +0.000 C 
ATOM      2  C   UNL     1       6.743   4.889  16.089  0.00  0.00    +0.000 C 
ATOM      3  C   UNL     1       7.071   5.525  17.431  0.00  0.00    +0.000 C 
ATOM      4  N   UNL     1       7.136   6.957  17.253  0.00  0.00    +0.000 N 
ATOM      5  C   UNL     1       8.017   7.592  18.117  0.00  0.00    +0.000 C 
ATOM      6  O   UNL     1       8.565   6.988  19.048  0.00  0.00    +0.000 OA
ATOM      7  C   UNL     1       5.911   7.576  16.732  0.00  0.00    +0.000 C 
ATOM      8  C   UNL     1       5.210   6.751  15.612  0.00  0.00    +0.000 C 
ENDROOT
BRANCH   1   9
ATOM      9  C   UNL     1       4.378   4.436  16.750  0.00  0.00    +0.000 C 
BRANCH   9  10
ATOM     10  C   UNL     1       3.281   5.129  17.592  0.00  0.00    +0.000 C 
BRANCH  10  11
ATOM     11  C   UNL     1       2.570   4.054  18.438  0.00  0.00    +0.000 A 
ATOM     12  C   UNL     1       1.405   3.369  18.045  0.00  0.00    +0.000 A 
ATOM     13  C   UNL     1       0.783   2.482  18.931  0.00  0.00    +0.000 A 
ATOM     14  C   UNL     1       1.333   2.307  20.197  0.00  0.00    +0.000 A 
ATOM     15  N   UNL     1       2.433   2.958  20.616  0.00  0.00    +0.000 NA
ATOM     16  C   UNL     1       3.005   3.815  19.739  0.00  0.00    +0.000 A 
ENDBRANCH  10  11
BRANCH  10  17
ATOM     17  C   UNL     1       3.581   6.457  18.329  0.00  0.00    +0.000 C 
BRANCH  17  19
ATOM     18  O   UNL     1       2.010   8.189  17.654  0.00  0.00    +0.000 OA
ATOM     19  C   UNL     1       2.532   7.529  18.537  0.00  0.00    +0.000 C 
BRANCH  19  20
ATOM     20  O   UNL     1       2.104   7.614  19.827  0.00  0.00    +0.000 OA
ATOM     21  H   UNL     1       2.733   7.327  20.517  0.00  0.00    +0.000 HD
ENDBRANCH  19  20
ENDBRANCH  17  19
ENDBRANCH  10  17
ENDBRANCH   9  10
ENDBRANCH   1   9
BRANCH   5  22
ATOM     22  C   UNL     1       8.348   9.029  17.854  0.00  0.00    +0.000 C 
BRANCH  22  23
ATOM     23  C   UNL     1       9.075   9.570  19.088  0.00  0.00    +0.000 C 
BRANCH  23  24
ATOM     24  C   UNL     1       9.471  10.991  18.850  0.00  0.00    +0.000 A 
ATOM     25  C   UNL     1       8.660  12.033  19.278  0.00  0.00    +0.000 A 
ATOM     26  C   UNL     1       9.034  13.328  18.961  0.00  0.00    +0.000 A 
ATOM     27  C   UNL     1      10.218  13.544  18.253  0.00  0.00    +0.000 A 
ATOM     28  C   UNL     1      10.969  12.437  17.861  0.00  0.00    +0.000 A 
ATOM     29  N   UNL     1      10.605  11.178  18.140  0.00  0.00    +0.000 NA
ATOM     30  N   UNL     1      12.171  12.584  17.190  0.00  0.00    +0.000 N 
ATOM     31  C   UNL     1      12.333  13.794  16.415  0.00  0.00    +0.000 C 
ATOM     32  C   UNL     1      12.054  14.986  17.325  0.00  0.00    +0.000 C 
ATOM     33  C   UNL     1      10.613  14.931  17.829  0.00  0.00    +0.000 C 
ATOM     34  H   UNL     1      12.450  11.692  16.783  0.00  0.00    +0.000 HD
ENDBRANCH  23  24
ENDBRANCH  22  23
ENDBRANCH   5  22
TORSDOF 9
ENDMDL
MODEL 8
REMARK VINA RESULT:      -7.8      2.269      3.290
REMARK  Name = 
REMARK  9 active torsions:
REMARK  status: ('A' for Active; 'I' for Inactive)
REMARK    1  A    between atoms: C_2  and  O_3
REMARK    2  A    between atoms: C_2  and  C_4
REMARK    3  A    between atoms: C_4  and  C_5
REMARK    4  A    between atoms: C_5  and  C_6
REMARK    5  A    between atoms: C_5  and  C_27
REMARK    6  A    between atoms: C_6  and  C_7
REMARK    7  A    between atoms: C_11  and  C_13
REMARK    8  A    between atoms: C_13  and  C_14
REMARK    9  A    between atoms: C_14  and  C_15
REMARK                            x       y       z     vdW  Elec       q    Type
REMARK                         _______ _______ _______ _____ _____    ______ ____
ROOT
ATOM      1  C   UNL     1       3.711   6.236  18.116  0.00  0.00    +0.000 C 
ATOM      2  C   UNL     1       3.628   6.320  19.656  0.00  0.00    +0.000 C 
ATOM      3  C   UNL     1       2.197   6.651  20.046  0.00  0.00    +0.000 C 
ATOM      4  N   UNL     1       1.929   8.022  19.677  0.00  0.00    +0.000 N 
ATOM      5  C   UNL     1       1.005   8.656  20.496  0.00  0.00    +0.000 C 
ATOM      6  O   UNL     1       0.368   8.038  21.358  0.00  0.00    +0.000 OA
ATOM      7  C   UNL     1       2.106   8.330  18.252  0.00  0.00    +0.000 C 
ATOM      8  C   UNL     1       3.348   7.647  17.606  0.00  0.00    +0.000 C 
ENDROOT
BRANCH   1   9
ATOM      9  C   UNL     1       2.902   4.976  17.681  0.00  0.00    +0.000 C 
BRANCH   9  10
ATOM     10  C   UNL     1       3.576   3.720  17.081  0.00  0.00    +0.000 C 
BRANCH  10  11
ATOM     11  C   UNL     1       4.861   4.162  16.355  0.00  0.00    +0.000 A 
ATOM     12  C   UNL     1       4.962   4.383  14.969  0.00  0.00    +0.000 A 
ATOM     13  C   UNL     1       6.202   4.687  14.397  0.00  0.00    +0.000 A 
ATOM     14  C   UNL     1       7.321   4.752  15.222  0.00  0.00    +0.000 A 
ATOM     15  N   UNL     1       7.268   4.527  16.548  0.00  0.00    +0.000 NA
ATOM     16  C   UNL     1       6.057   4.227  17.068  0.00  0.00    +0.000 A 
ENDBRANCH  10  11
BRANCH  10  17
ATOM     17  C   UNL     1       3.702   2.423  17.917  0.00  0.00    +0.000 C 
BRANCH  17  19
ATOM     18  O   UNL     1       2.978   2.662  20.229  0.00  0.00    +0.000 OA
ATOM     19  C   UNL     1       3.864   2.436  19.423  0.00  0.00    +0.000 C 
BRANCH  19  20
ATOM     20  O   UNL     1       5.101   2.033  19.829  0.00  0.00    +0.000 OA
ATOM     21  H   UNL     1       5.860   2.556  19.506  0.00  0.00    +0.000 HD
ENDBRANCH  19  20
ENDBRANCH  17  19
ENDBRANCH  10  17
ENDBRANCH   9  10
ENDBRANCH   1   9
BRANCH   5  22
ATOM     22  C   UNL     1       0.845  10.139  20.360  0.00  0.00    +0.000 C 
BRANCH  22  23
ATOM     23  C   UNL     1      -0.619  10.416  20.006  0.00  0.00    +0.000 C 
BRANCH  23  24
ATOM     24  C   UNL     1      -1.156  11.485  20.901  0.00  0.00    +0.000 A 
ATOM     25  C   UNL     1      -0.953  11.427  22.272  0.00  0.00    +0.000 A 
ATOM     26  C   UNL     1      -1.542  12.400  23.063  0.00  0.00    +0.000 A 
ATOM     27  C   UNL     1      -2.286  13.414  22.460  0.00  0.00    +0.000 A 
ATOM     28  C   UNL     1      -2.439  13.391  21.074  0.00  0.00    +0.000 A 
ATOM     29  N   UNL     1      -1.897  12.442  20.300  0.00  0.00    +0.000 NA
ATOM     30  N   UNL     1      -3.133  14.388  20.410  0.00  0.00    +0.000 N 
ATOM     31  C   UNL     1      -4.149  15.083  21.170  0.00  0.00    +0.000 C 
ATOM     32  C   UNL     1      -3.511  15.607  22.453  0.00  0.00    +0.000 C 
ATOM     33  C   UNL     1      -2.998  14.441  23.295  0.00  0.00    +0.000 C 
ATOM     34  H   UNL     1      -3.343  14.088  19.459  0.00  0.00    +0.000 HD
ENDBRANCH  23  24
ENDBRANCH  22  23
ENDBRANCH   5  22
TORSDOF 9
ENDMDL
MODEL 9
REMARK VINA RESULT:      -7.8      2.366      3.561
REMARK  Name = 
REMARK  9 active torsions:
REMARK  status: ('A' for Active; 'I' for Inactive)
REMARK    1  A    between atoms: C_2  and  O_3
REMARK    2  A    between atoms: C_2  and  C_4
REMARK    3  A    between atoms: C_4  and  C_5
REMARK    4  A    between atoms: C_5  and  C_6
REMARK    5  A    between atoms: C_5  and  C_27
REMARK    6  A    between atoms: C_6  and  C_7
REMARK    7  A    between atoms: C_11  and  C_13
REMARK    8  A    between atoms: C_13  and  C_14
REMARK    9  A    between atoms: C_14  and  C_15
REMARK                            x       y       z     vdW  Elec       q    Type
REMARK                         _______ _______ _______ _____ _____    ______ ____
ROOT
ATOM      1  C   UNL     1       2.199   5.362  19.653  0.00  0.00    +0.000 C 
ATOM      2  C   UNL     1       1.718   5.875  18.278  0.00  0.00    +0.000 C 
ATOM      3  C   UNL     1       2.356   7.229  18.017  0.00  0.00    +0.000 C 
ATOM      4  N   UNL     1       1.751   8.197  18.903  0.00  0.00    +0.000 N 
ATOM      5  C   UNL     1       1.707   9.484  18.387  0.00  0.00    +0.000 C 
ATOM      6  O   UNL     1       2.280   9.781  17.331  0.00  0.00    +0.000 OA
ATOM      7  C   UNL     1       1.875   7.893  20.335  0.00  0.00    +0.000 C 
ATOM      8  C   UNL     1       1.678   6.387  20.682  0.00  0.00    +0.000 C 
ENDROOT
BRANCH   1   9
ATOM      9  C   UNL     1       3.720   5.041  19.516  0.00  0.00    +0.000 C 
BRANCH   9  10
ATOM     10  C   UNL     1       4.389   4.747  18.154  0.00  0.00    +0.000 C 
BRANCH  10  11
ATOM     11  C   UNL     1       5.702   5.551  18.077  0.00  0.00    +0.000 A 
ATOM     12  C   UNL     1       6.773   5.421  18.981  0.00  0.00    +0.000 A 
ATOM     13  C   UNL     1       7.881   6.270  18.880  0.00  0.00    +0.000 A 
ATOM     14  C   UNL     1       7.890   7.241  17.883  0.00  0.00    +0.000 A 
ATOM     15  N   UNL     1       6.877   7.408  17.012  0.00  0.00    +0.000 NA
ATOM     16  C   UNL     1       5.818   6.578  17.143  0.00  0.00    +0.000 A 
ENDBRANCH  10  11
BRANCH  10  17
ATOM     17  C   UNL     1       4.470   3.297  17.617  0.00  0.00    +0.000 C 
BRANCH  17  19
ATOM     18  O   UNL     1       2.181   2.485  17.454  0.00  0.00    +0.000 OA
ATOM     19  C   UNL     1       3.341   2.302  17.783  0.00  0.00    +0.000 C 
BRANCH  19  20
ATOM     20  O   UNL     1       3.763   1.086  18.231  0.00  0.00    +0.000 OA
ATOM     21  H   UNL     1       3.804   0.366  17.572  0.00  0.00    +0.000 HD
ENDBRANCH  19  20
ENDBRANCH  17  19
ENDBRANCH  10  17
ENDBRANCH   9  10
ENDBRANCH   1   9
BRANCH   5  22
ATOM     22  C   UNL     1       0.883  10.505  19.109  0.00  0.00    +0.000 C 
BRANCH  22  23
ATOM     23  C   UNL     1      -0.575  10.309  18.684  0.00  0.00    +0.000 C 
BRANCH  23  24
ATOM     24  C   UNL     1      -1.461  11.162  19.531  0.00  0.00    +0.000 A 
ATOM     25  C   UNL     1      -2.627  11.707  19.011  0.00  0.00    +0.000 A 
ATOM     26  C   UNL     1      -3.369  12.556  19.815  0.00  0.00    +0.000 A 
ATOM     27  C   UNL     1      -2.942  12.811  21.118  0.00  0.00    +0.000 A 
ATOM     28  C   UNL     1      -1.756  12.222  21.556  0.00  0.00    +0.000 A 
ATOM     29  N   UNL     1      -1.016  11.420  20.781  0.00  0.00    +0.000 NA
ATOM     30  N   UNL     1      -1.297  12.404  22.849  0.00  0.00    +0.000 N 
ATOM     31  C   UNL     1      -1.710  13.620  23.515  0.00  0.00    +0.000 C 
ATOM     32  C   UNL     1      -3.232  13.709  23.447  0.00  0.00    +0.000 C 
ATOM     33  C   UNL     1      -3.684  13.785  21.990  0.00  0.00    +0.000 C 
ATOM     34  H   UNL     1      -0.324  12.109  22.915  0.00  0.00    +0.000 HD
ENDBRANCH  23  24
ENDBRANCH  22  23
ENDBRANCH   5  22
TORSDOF 9
ENDMDL
