MODEL 1
REMARK VINA RESULT:      -6.5      0.000      0.000
REMARK  Name = 
REMARK  4 active torsions:
REMARK  status: ('A' for Active; 'I' for Inactive)
REMARK    1  A    between atoms: C_5  and  C_6
REMARK    2  A    between atoms: N_12  and  C_13
REMARK    3  A    between atoms: C_13  and  N_14
REMARK    4  A    between atoms: N_17  and  C_18
REMARK                            x       y       z     vdW  Elec       q    Type
REMARK                         _______ _______ _______ _____ _____    ______ ____
ROOT
ATOM      1  C   UNL     1       1.129   6.916  20.687  0.00  0.00    +0.000 C 
ENDROOT
BRANCH   1   8
ATOM      2  O   UNL     1       0.354   4.198  20.428  0.00  0.00    +0.000 OA
ATOM      3  C   UNL     1       1.543   4.514  20.369  0.00  0.00    +0.000 A 
ATOM      4  C   UNL     1       2.536   3.435  20.185  0.00  0.00    +0.000 A 
ATOM      5  C   UNL     1       3.749   3.720  19.716  0.00  0.00    +0.000 A 
ATOM      6  C   UNL     1       4.047   5.152  19.451  0.00  0.00    +0.000 A 
ATOM      7  N   UNL     1       3.274   6.125  19.843  0.00  0.00    +0.000 NA
ATOM      8  N   UNL     1       2.061   5.803  20.455  0.00  0.00    +0.000 N 
BRANCH   6   9
ATOM      9  C   UNL     1       5.227   5.492  18.673  0.00  0.00    +0.000 A 
ATOM     10  C   UNL     1       6.537   5.495  19.113  0.00  0.00    +0.000 A 
ATOM     11  C   UNL     1       7.460   5.876  18.094  0.00  0.00    +0.000 A 
ATOM     12  C   UNL     1       6.825   6.142  16.905  0.00  0.00    +0.000 A 
ATOM     13  S   UNL     1       5.130   5.950  17.025  0.00  0.00    +0.000 S 
ENDBRANCH   6   9
ENDBRANCH   1   8
BRANCH   1  14
ATOM     14  N   UNL     1       1.789   8.240  20.660  0.00  0.00    +0.000 NA
ATOM     15  C   UNL     1       1.199   9.181  19.701  0.00  0.00    +0.000 C 
ATOM     16  C   UNL     1      -0.108   9.936  20.104  0.00  0.00    +0.000 C 
ATOM     17  N   UNL     1      -0.435  10.192  21.536  0.00  0.00    +0.000 NA
ATOM     18  C   UNL     1       0.299   9.278  22.428  0.00  0.00    +0.000 C 
ATOM     19  C   UNL     1       1.725   8.878  21.986  0.00  0.00    +0.000 C 
BRANCH  17  20
ATOM     20  C   UNL     1      -0.450  11.624  21.918  0.00  0.00    +0.000 C 
ATOM     21  C   UNL     1      -1.494  12.036  22.994  0.00  0.00    +0.000 C 
ATOM     22  C   UNL     1      -2.849  12.152  22.320  0.00  0.00    +0.000 C 
ATOM     23  S   UNL     1      -2.496  12.989  20.796  0.00  0.00    +0.000 S 
ATOM     24  O   UNL     1      -2.612  14.416  21.016  0.00  0.00    +0.000 OA
ATOM     25  O   UNL     1      -3.201  12.320  19.719  0.00  0.00    +0.000 OA
ATOM     26  C   UNL     1      -0.763  12.571  20.727  0.00  0.00    +0.000 C 
ENDBRANCH  17  20
ENDBRANCH   1  14
TORSDOF 4
ENDMDL
MODEL 2
REMARK VINA RESULT:      -6.4      3.580      9.028
REMARK  Name = 
REMARK  4 active torsions:
REMARK  status: ('A' for Active; 'I' for Inactive)
REMARK    1  A    between atoms: C_5  and  C_6
REMARK    2  A    between atoms: N_12  and  C_13
REMARK    3  A    between atoms: C_13  and  N_14
REMARK    4  A    between atoms: N_17  and  C_18
REMARK                            x       y       z     vdW  Elec       q    Type
REMARK                         _______ _______ _______ _____ _____    ______ ____
ROOT
ATOM      1  C   UNL     1       1.661   8.875  19.761  0.00  0.00    +0.000 C 
ENDROOT
BRANCH   1   8
ATOM      2  O   UNL     1       1.682  11.205  21.381  0.00  0.00    +0.000 OA
ATOM      3  C   UNL     1       0.649  10.854  20.809  0.00  0.00    +0.000 A 
ATOM      4  C   UNL     1      -0.566  11.669  21.018  0.00  0.00    +0.000 A 
ATOM      5  C   UNL     1      -1.571  11.600  20.148  0.00  0.00    +0.000 A 
ATOM      6  C   UNL     1      -1.418  10.642  19.021  0.00  0.00    +0.000 A 
ATOM      7  N   UNL     1      -0.472   9.748  18.970  0.00  0.00    +0.000 NA
ATOM      8  N   UNL     1       0.502   9.754  19.970  0.00  0.00    +0.000 N 
BRANCH   6   9
ATOM      9  C   UNL     1      -2.332  10.732  17.894  0.00  0.00    +0.000 A 
ATOM     10  C   UNL     1      -2.122  10.246  16.617  0.00  0.00    +0.000 A 
ATOM     11  C   UNL     1      -3.222  10.498  15.744  0.00  0.00    +0.000 A 
ATOM     12  C   UNL     1      -4.242  11.159  16.387  0.00  0.00    +0.000 A 
ATOM     13  S   UNL     1      -3.865  11.487  18.021  0.00  0.00    +0.000 S 
ENDBRANCH   6   9
ENDBRANCH   1   8
BRANCH   1  14
ATOM     14  N   UNL     1       1.492   7.956  18.614  0.00  0.00    +0.000 NA
ATOM     15  C   UNL     1       2.440   8.189  17.518  0.00  0.00    +0.000 C 
ATOM     16  C   UNL     1       3.888   7.619  17.651  0.00  0.00    +0.000 C 
ATOM     17  N   UNL     1       4.167   6.423  18.495  0.00  0.00    +0.000 NA
ATOM     18  C   UNL     1       3.099   6.200  19.484  0.00  0.00    +0.000 C 
ATOM     19  C   UNL     1       1.662   6.557  19.041  0.00  0.00    +0.000 C 
BRANCH  17  20
ATOM     20  C   UNL     1       4.635   5.233  17.743  0.00  0.00    +0.000 C 
ATOM     21  C   UNL     1       5.712   4.359  18.444  0.00  0.00    +0.000 C 
ATOM     22  C   UNL     1       7.057   5.046  18.288  0.00  0.00    +0.000 C 
ATOM     23  S   UNL     1       7.059   5.600  16.602  0.00  0.00    +0.000 S 
ATOM     24  O   UNL     1       7.627   4.556  15.774  0.00  0.00    +0.000 OA
ATOM     25  O   UNL     1       7.548   6.964  16.556  0.00  0.00    +0.000 OA
ATOM     26  C   UNL     1       5.288   5.592  16.379  0.00  0.00    +0.000 C 
ENDBRANCH  17  20
ENDBRANCH   1  14
TORSDOF 4
ENDMDL
MODEL 3
REMARK VINA RESULT:      -6.4      3.110      4.762
REMARK  Name = 
REMARK  4 active torsions:
REMARK  status: ('A' for Active; 'I' for Inactive)
REMARK    1  A    between atoms: C_5  and  C_6
REMARK    2  A    between atoms: N_12  and  C_13
REMARK    3  A    between atoms: C_13  and  N_14
REMARK    4  A    between atoms: N_17  and  C_18
REMARK                            x       y       z     vdW  Elec       q    Type
REMARK                         _______ _______ _______ _____ _____    ______ ____
ROOT
ATOM      1  C   UNL     1       4.222   4.716  19.240  0.00  0.00    +0.000 C 
ENDROOT
BRANCH   1   8
ATOM      2  O   UNL     1       6.815   5.513  20.073  0.00  0.00    +0.000 OA
ATOM      3  C   UNL     1       6.480   5.620  18.893  0.00  0.00    +0.000 A 
ATOM      4  C   UNL     1       7.460   6.196  17.947  0.00  0.00    +0.000 A 
ATOM      5  C   UNL     1       7.334   5.972  16.641  0.00  0.00    +0.000 A 
ATOM      6  C   UNL     1       6.154   5.179  16.207  0.00  0.00    +0.000 A 
ATOM      7  N   UNL     1       5.162   4.886  16.998  0.00  0.00    +0.000 NA
ATOM      8  N   UNL     1       5.256   5.249  18.344  0.00  0.00    +0.000 N 
BRANCH   6   9
ATOM      9  C   UNL     1       6.119   4.657  14.850  0.00  0.00    +0.000 A 
ATOM     10  C   UNL     1       5.073   3.983  14.248  0.00  0.00    +0.000 A 
ATOM     11  C   UNL     1       5.361   3.608  12.903  0.00  0.00    +0.000 A 
ATOM     12  C   UNL     1       6.615   4.018  12.516  0.00  0.00    +0.000 A 
ATOM     13  S   UNL     1       7.440   4.830  13.773  0.00  0.00    +0.000 S 
ENDBRANCH   6   9
ENDBRANCH   1   8
BRANCH   1  14
ATOM     14  N   UNL     1       2.849   4.914  18.723  0.00  0.00    +0.000 NA
ATOM     15  C   UNL     1       1.798   4.685  19.722  0.00  0.00    +0.000 C 
ATOM     16  C   UNL     1       1.483   5.821  20.747  0.00  0.00    +0.000 C 
ATOM     17  N   UNL     1       1.752   7.249  20.415  0.00  0.00    +0.000 NA
ATOM     18  C   UNL     1       2.728   7.374  19.320  0.00  0.00    +0.000 C 
ATOM     19  C   UNL     1       2.677   6.288  18.222  0.00  0.00    +0.000 C 
BRANCH  17  20
ATOM     20  C   UNL     1       0.541   8.100  20.326  0.00  0.00    +0.000 C 
ATOM     21  C   UNL     1       0.770   9.577  19.897  0.00  0.00    +0.000 C 
ATOM     22  C   UNL     1       1.281  10.348  21.102  0.00  0.00    +0.000 C 
ATOM     23  S   UNL     1       0.270   9.765  22.439  0.00  0.00    +0.000 S 
ATOM     24  O   UNL     1      -0.899  10.616  22.536  0.00  0.00    +0.000 OA
ATOM     25  O   UNL     1       1.116   9.494  23.584  0.00  0.00    +0.000 OA
ATOM     26  C   UNL     1      -0.217   8.227  21.676  0.00  0.00    +0.000 C 
ENDBRANCH  17  20
ENDBRANCH   1  14
TORSDOF 4
ENDMDL
MODEL 4
REMARK VINA RESULT:      -6.3      1.190      1.225
REMARK  Name = 
REMARK  4 active torsions:
REMARK  status: ('A' for Active; 'I' for Inactive)
REMARK    1  A    between atoms: C_5  and  C_6
REMARK    2  A    between atoms: N_12  and  C_13
REMARK    3  A    between atoms: C_13  and  N_14
REMARK    4  A    between atoms: N_17  and  C_18
REMARK                            x       y       z     vdW  Elec       q    Type
REMARK                         _______ _______ _______ _____ _____    ______ ____
ROOT
ATOM      1  C   UNL     1       1.352   6.539  20.174  0.00  0.00    +0.000 C 
ENDROOT
BRANCH   1   8
ATOM      2  O   UNL     1       0.464   3.863  20.496  0.00  0.00    +0.000 OA
ATOM      3  C   UNL     1       1.660   4.106  20.334  0.00  0.00    +0.000 A 
ATOM      4  C   UNL     1       2.603   2.967  20.339  0.00  0.00    +0.000 A 
ATOM      5  C   UNL     1       3.805   3.097  19.782  0.00  0.00    +0.000 A 
ATOM      6  C   UNL     1       4.145   4.431  19.223  0.00  0.00    +0.000 A 
ATOM      7  N   UNL     1       3.428   5.497  19.436  0.00  0.00    +0.000 NA
ATOM      8  N   UNL     1       2.230   5.361  20.140  0.00  0.00    +0.000 N 
BRANCH   6   9
ATOM      9  C   UNL     1       5.304   4.554  18.353  0.00  0.00    +0.000 A 
ATOM     10  C   UNL     1       6.555   5.029  18.700  0.00  0.00    +0.000 A 
ATOM     11  C   UNL     1       7.472   5.016  17.608  0.00  0.00    +0.000 A 
ATOM     12  C   UNL     1       6.895   4.520  16.464  0.00  0.00    +0.000 A 
ATOM     13  S   UNL     1       5.257   4.093  16.703  0.00  0.00    +0.000 S 
ENDBRANCH   6   9
ENDBRANCH   1   8
BRANCH   1  14
ATOM     14  N   UNL     1       2.084   7.800  20.421  0.00  0.00    +0.000 NA
ATOM     15  C   UNL     1       1.859   8.830  19.400  0.00  0.00    +0.000 C 
ATOM     16  C   UNL     1       0.548   9.677  19.471  0.00  0.00    +0.000 C 
ATOM     17  N   UNL     1      -0.153   9.897  20.767  0.00  0.00    +0.000 NA
ATOM     18  C   UNL     1       0.230   8.886  21.766  0.00  0.00    +0.000 C 
ATOM     19  C   UNL     1       1.691   8.383  21.716  0.00  0.00    +0.000 C 
BRANCH  17  20
ATOM     20  C   UNL     1      -0.175  11.308  21.225  0.00  0.00    +0.000 C 
ATOM     21  C   UNL     1      -1.565  11.879  21.622  0.00  0.00    +0.000 C 
ATOM     22  C   UNL     1      -2.315  12.230  20.350  0.00  0.00    +0.000 C 
ATOM     23  S   UNL     1      -1.088  13.010  19.334  0.00  0.00    +0.000 S 
ATOM     24  O   UNL     1      -1.107  14.434  19.600  0.00  0.00    +0.000 OA
ATOM     25  O   UNL     1      -1.187  12.482  17.987  0.00  0.00    +0.000 OA
ATOM     26  C   UNL     1       0.335  12.306  20.149  0.00  0.00    +0.000 C 
ENDBRANCH  17  20
ENDBRANCH   1  14
TORSDOF 4
ENDMDL
MODEL 5
REMARK VINA RESULT:      -6.3      2.197      2.560
REMARK  Name = 
REMARK  4 active torsions:
REMARK  status: ('A' for Active; 'I' for Inactive)
REMARK    1  A    between atoms: C_5  and  C_6
REMARK    2  A    between atoms: N_12  and  C_13
REMARK    3  A    between atoms: C_13  and  N_14
REMARK    4  A    between atoms: N_17  and  C_18
REMARK                            x       y       z     vdW  Elec       q    Type
REMARK                         _______ _______ _______ _____ _____    ______ ____
ROOT
ATOM      1  C   UNL     1       1.712   6.333  18.448  0.00  0.00    +0.000 C 
ENDROOT
BRANCH   1   8
ATOM      2  O   UNL     1       0.729   3.676  18.611  0.00  0.00    +0.000 OA
ATOM      3  C   UNL     1       1.912   3.886  18.342  0.00  0.00    +0.000 A 
ATOM      4  C   UNL     1       2.791   2.716  18.135  0.00  0.00    +0.000 A 
ATOM      5  C   UNL     1       3.932   2.852  17.463  0.00  0.00    +0.000 A 
ATOM      6  C   UNL     1       4.279   4.220  16.998  0.00  0.00    +0.000 A 
ATOM      7  N   UNL     1       3.643   5.288  17.389  0.00  0.00    +0.000 NA
ATOM      8  N   UNL     1       2.521   5.130  18.206  0.00  0.00    +0.000 N 
BRANCH   6   9
ATOM      9  C   UNL     1       5.343   4.383  16.021  0.00  0.00    +0.000 A 
ATOM     10  C   UNL     1       5.245   4.214  14.653  0.00  0.00    +0.000 A 
ATOM     11  C   UNL     1       6.479   4.453  13.978  0.00  0.00    +0.000 A 
ATOM     12  C   UNL     1       7.478   4.809  14.853  0.00  0.00    +0.000 A 
ATOM     13  S   UNL     1       6.933   4.834  16.473  0.00  0.00    +0.000 S 
ENDBRANCH   6   9
ENDBRANCH   1   8
BRANCH   1  14
ATOM     14  N   UNL     1       2.522   7.504  18.852  0.00  0.00    +0.000 NA
ATOM     15  C   UNL     1       2.269   8.708  18.051  0.00  0.00    +0.000 C 
ATOM     16  C   UNL     1       1.010   9.572  18.382  0.00  0.00    +0.000 C 
ATOM     17  N   UNL     1       0.423   9.579  19.752  0.00  0.00    +0.000 NA
ATOM     18  C   UNL     1       0.832   8.391  20.520  0.00  0.00    +0.000 C 
ATOM     19  C   UNL     1       2.258   7.857  20.257  0.00  0.00    +0.000 C 
BRANCH  17  20
ATOM     20  C   UNL     1       0.505  10.883  20.452  0.00  0.00    +0.000 C 
ATOM     21  C   UNL     1      -0.774  11.335  21.212  0.00  0.00    +0.000 C 
ATOM     22  C   UNL     1      -1.760  11.887  20.198  0.00  0.00    +0.000 C 
ATOM     23  S   UNL     1      -0.753  12.871  19.118  0.00  0.00    +0.000 S 
ATOM     24  O   UNL     1      -0.706  14.223  19.636  0.00  0.00    +0.000 OA
ATOM     25  O   UNL     1      -1.123  12.590  17.744  0.00  0.00    +0.000 OA
ATOM     26  C   UNL     1       0.798  12.072  19.495  0.00  0.00    +0.000 C 
ENDBRANCH  17  20
ENDBRANCH   1  14
TORSDOF 4
ENDMDL
MODEL 6
REMARK VINA RESULT:      -6.2      1.647      1.895
REMARK  Name = 
REMARK  4 active torsions:
REMARK  status: ('A' for Active; 'I' for Inactive)
REMARK    1  A    between atoms: C_5  and  C_6
REMARK    2  A    between atoms: N_12  and  C_13
REMARK    3  A    between atoms: C_13  and  N_14
REMARK    4  A    between atoms: N_17  and  C_18
REMARK                            x       y       z     vdW  Elec       q    Type
REMARK                         _______ _______ _______ _____ _____    ______ ____
ROOT
ATOM      1  C   UNL     1       1.207   6.686  20.533  0.00  0.00    +0.000 C 
ENDROOT
BRANCH   1   8
ATOM      2  O   UNL     1       0.525   3.949  20.219  0.00  0.00    +0.000 OA
ATOM      3  C   UNL     1       1.705   4.302  20.208  0.00  0.00    +0.000 A 
ATOM      4  C   UNL     1       2.737   3.255  20.052  0.00  0.00    +0.000 A 
ATOM      5  C   UNL     1       3.957   3.581  19.632  0.00  0.00    +0.000 A 
ATOM      6  C   UNL     1       4.221   5.024  19.390  0.00  0.00    +0.000 A 
ATOM      7  N   UNL     1       3.405   5.969  19.762  0.00  0.00    +0.000 NA
ATOM      8  N   UNL     1       2.180   5.605  20.325  0.00  0.00    +0.000 N 
BRANCH   6   9
ATOM      9  C   UNL     1       5.418   5.408  18.661  0.00  0.00    +0.000 A 
ATOM     10  C   UNL     1       6.703   5.491  19.162  0.00  0.00    +0.000 A 
ATOM     11  C   UNL     1       7.653   5.896  18.178  0.00  0.00    +0.000 A 
ATOM     12  C   UNL     1       7.064   6.098  16.953  0.00  0.00    +0.000 A 
ATOM     13  S   UNL     1       5.378   5.819  16.998  0.00  0.00    +0.000 S 
ENDBRANCH   6   9
ENDBRANCH   1   8
BRANCH   1  14
ATOM     14  N   UNL     1       1.838   8.018  20.656  0.00  0.00    +0.000 NA
ATOM     15  C   UNL     1       1.645   8.880  19.484  0.00  0.00    +0.000 C 
ATOM     16  C   UNL     1       0.285   9.634  19.329  0.00  0.00    +0.000 C 
ATOM     17  N   UNL     1      -0.540   9.979  20.521  0.00  0.00    +0.000 NA
ATOM     18  C   UNL     1      -0.189   9.143  21.681  0.00  0.00    +0.000 C 
ATOM     19  C   UNL     1       1.298   8.743  21.819  0.00  0.00    +0.000 C 
BRANCH  17  20
ATOM     20  C   UNL     1      -0.686  11.434  20.771  0.00  0.00    +0.000 C 
ATOM     21  C   UNL     1      -1.582  12.215  19.770  0.00  0.00    +0.000 C 
ATOM     22  C   UNL     1      -0.778  12.464  18.506  0.00  0.00    +0.000 C 
ATOM     23  S   UNL     1       0.822  12.939  19.107  0.00  0.00    +0.000 S 
ATOM     24  O   UNL     1       0.845  14.379  19.266  0.00  0.00    +0.000 OA
ATOM     25  O   UNL     1       1.837  12.237  18.346  0.00  0.00    +0.000 OA
ATOM     26  C   UNL     1       0.665  12.199  20.723  0.00  0.00    +0.000 C 
ENDBRANCH  17  20
ENDBRANCH   1  14
TORSDOF 4
ENDMDL
MODEL 7
REMARK VINA RESULT:      -6.2      1.602      1.788
REMARK  Name = 
REMARK  4 active torsions:
REMARK  status: ('A' for Active; 'I' for Inactive)
REMARK    1  A    between atoms: C_5  and  C_6
REMARK    2  A    between atoms: N_12  and  C_13
REMARK    3  A    between atoms: C_13  and  N_14
REMARK    4  A    between atoms: N_17  and  C_18
REMARK                            x       y       z     vdW  Elec       q    Type
REMARK                         _______ _______ _______ _____ _____    ______ ____
ROOT
ATOM      1  C   UNL     1       1.508   6.592  19.596  0.00  0.00    +0.000 C 
ENDROOT
BRANCH   1   8
ATOM      2  O   UNL     1       0.794   3.972  20.417  0.00  0.00    +0.000 OA
ATOM      3  C   UNL     1       1.927   4.204  19.994  0.00  0.00    +0.000 A 
ATOM      4  C   UNL     1       2.892   3.085  19.956  0.00  0.00    +0.000 A 
ATOM      5  C   UNL     1       3.958   3.153  19.162  0.00  0.00    +0.000 A 
ATOM      6  C   UNL     1       4.137   4.407  18.384  0.00  0.00    +0.000 A 
ATOM      7  N   UNL     1       3.437   5.484  18.599  0.00  0.00    +0.000 NA
ATOM      8  N   UNL     1       2.403   5.429  19.537  0.00  0.00    +0.000 N 
BRANCH   6   9
ATOM      9  C   UNL     1       5.100   4.428  17.295  0.00  0.00    +0.000 A 
ATOM     10  C   UNL     1       4.871   4.073  15.979  0.00  0.00    +0.000 A 
ATOM     11  C   UNL     1       6.031   4.211  15.161  0.00  0.00    +0.000 A 
ATOM     12  C   UNL     1       7.107   4.679  15.878  0.00  0.00    +0.000 A 
ATOM     13  S   UNL     1       6.722   4.929  17.524  0.00  0.00    +0.000 S 
ENDBRANCH   6   9
ENDBRANCH   1   8
BRANCH   1  14
ATOM     14  N   UNL     1       2.188   7.825  20.051  0.00  0.00    +0.000 NA
ATOM     15  C   UNL     1       2.044   8.959  19.131  0.00  0.00    +0.000 C 
ATOM     16  C   UNL     1       0.716   9.782  19.164  0.00  0.00    +0.000 C 
ATOM     17  N   UNL     1      -0.112   9.852  20.401  0.00  0.00    +0.000 NA
ATOM     18  C   UNL     1       0.192   8.739  21.317  0.00  0.00    +0.000 C 
ATOM     19  C   UNL     1       1.660   8.257  21.356  0.00  0.00    +0.000 C 
BRANCH  17  20
ATOM     20  C   UNL     1      -0.205  11.203  21.006  0.00  0.00    +0.000 C 
ATOM     21  C   UNL     1      -1.639  11.719  21.313  0.00  0.00    +0.000 C 
ATOM     22  C   UNL     1      -2.257  12.205  20.015  0.00  0.00    +0.000 C 
ATOM     23  S   UNL     1      -0.943  13.100  19.227  0.00  0.00    +0.000 S 
ATOM     24  O   UNL     1      -1.014  14.485  19.644  0.00  0.00    +0.000 OA
ATOM     25  O   UNL     1      -0.892  12.724  17.827  0.00  0.00    +0.000 OA
ATOM     26  C   UNL     1       0.397  12.317  20.106  0.00  0.00    +0.000 C 
ENDBRANCH  17  20
ENDBRANCH   1  14
TORSDOF 4
ENDMDL
MODEL 8
REMARK VINA RESULT:      -6.2      2.016      2.323
REMARK  Name = 
REMARK  4 active torsions:
REMARK  status: ('A' for Active; 'I' for Inactive)
REMARK    1  A    between atoms: C_5  and  C_6
REMARK    2  A    between atoms: N_12  and  C_13
REMARK    3  A    between atoms: C_13  and  N_14
REMARK    4  A    between atoms: N_17  and  C_18
REMARK                            x       y       z     vdW  Elec       q    Type
REMARK                         _______ _______ _______ _____ _____    ______ ____
ROOT
ATOM      1  C   UNL     1       1.448   6.492  19.893  0.00  0.00    +0.000 C 
ENDROOT
BRANCH   1   8
ATOM      2  O   UNL     1       0.953   3.880  20.886  0.00  0.00    +0.000 OA
ATOM      3  C   UNL     1       2.053   4.168  20.414  0.00  0.00    +0.000 A 
ATOM      4  C   UNL     1       3.097   3.122  20.408  0.00  0.00    +0.000 A 
ATOM      5  C   UNL     1       4.133   3.219  19.577  0.00  0.00    +0.000 A 
ATOM      6  C   UNL     1       4.196   4.435  18.723  0.00  0.00    +0.000 A 
ATOM      7  N   UNL     1       3.424   5.469  18.899  0.00  0.00    +0.000 NA
ATOM      8  N   UNL     1       2.425   5.395  19.872  0.00  0.00    +0.000 N 
BRANCH   6   9
ATOM      9  C   UNL     1       5.123   4.460  17.604  0.00  0.00    +0.000 A 
ATOM     10  C   UNL     1       4.825   4.231  16.274  0.00  0.00    +0.000 A 
ATOM     11  C   UNL     1       5.967   4.335  15.427  0.00  0.00    +0.000 A 
ATOM     12  C   UNL     1       7.101   4.653  16.136  0.00  0.00    +0.000 A 
ATOM     13  S   UNL     1       6.790   4.804  17.810  0.00  0.00    +0.000 S 
ENDBRANCH   6   9
ENDBRANCH   1   8
BRANCH   1  14
ATOM     14  N   UNL     1       2.055   7.804  20.209  0.00  0.00    +0.000 NA
ATOM     15  C   UNL     1       1.902   8.803  19.145  0.00  0.00    +0.000 C 
ATOM     16  C   UNL     1       0.541   9.560  19.024  0.00  0.00    +0.000 C 
ATOM     17  N   UNL     1      -0.341   9.747  20.210  0.00  0.00    +0.000 NA
ATOM     18  C   UNL     1      -0.030   8.776  21.272  0.00  0.00    +0.000 C 
ATOM     19  C   UNL     1       1.454   8.373  21.427  0.00  0.00    +0.000 C 
BRANCH  17  20
ATOM     20  C   UNL     1      -0.517  11.158  20.631  0.00  0.00    +0.000 C 
ATOM     21  C   UNL     1      -1.443  12.031  19.738  0.00  0.00    +0.000 C 
ATOM     22  C   UNL     1      -0.659  12.446  18.505  0.00  0.00    +0.000 C 
ATOM     23  S   UNL     1       0.937  12.886  19.144  0.00  0.00    +0.000 S 
ATOM     24  O   UNL     1       0.929  14.297  19.472  0.00  0.00    +0.000 OA
ATOM     25  O   UNL     1       1.959  12.303  18.297  0.00  0.00    +0.000 OA
ATOM     26  C   UNL     1       0.816  11.956  20.663  0.00  0.00    +0.000 C 
ENDBRANCH  17  20
ENDBRANCH   1  14
TORSDOF 4
ENDMDL
MODEL 9
REMARK VINA RESULT:      -6.2      3.159      8.625
REMARK  Name = 
REMARK  4 active torsions:
REMARK  status: ('A' for Active; 'I' for Inactive)
REMARK    1  A    between atoms: C_5  and  C_6
REMARK    2  A    between atoms: N_12  and  C_13
REMARK    3  A    between atoms: C_13  and  N_14
REMARK    4  A    between atoms: N_17  and  C_18
REMARK                            x       y       z     vdW  Elec       q    Type
REMARK                         _______ _______ _______ _____ _____    ______ ____
ROOT
ATOM      1  C   UNL     1       2.136   7.705  20.563  0.00  0.00    +0.000 C 
ENDROOT
BRANCH   1   8
ATOM      2  O   UNL     1       2.070   9.513  22.750  0.00  0.00    +0.000 OA
ATOM      3  C   UNL     1       1.113   9.434  21.979  0.00  0.00    +0.000 A 
ATOM      4  C   UNL     1      -0.064  10.287  22.249  0.00  0.00    +0.000 A 
ATOM      5  C   UNL     1      -0.930  10.554  21.274  0.00  0.00    +0.000 A 
ATOM      6  C   UNL     1      -0.675   9.915  19.957  0.00  0.00    +0.000 A 
ATOM      7  N   UNL     1       0.206   8.973  19.781  0.00  0.00    +0.000 NA
ATOM      8  N   UNL     1       1.019   8.614  20.858  0.00  0.00    +0.000 N 
BRANCH   6   9
ATOM      9  C   UNL     1      -1.403  10.392  18.792  0.00  0.00    +0.000 A 
ATOM     10  C   UNL     1      -1.399   9.835  17.527  0.00  0.00    +0.000 A 
ATOM     11  C   UNL     1      -2.225  10.548  16.608  0.00  0.00    +0.000 A 
ATOM     12  C   UNL     1      -2.843  11.620  17.205  0.00  0.00    +0.000 A 
ATOM     13  S   UNL     1      -2.414  11.774  18.852  0.00  0.00    +0.000 S 
ENDBRANCH   6   9
ENDBRANCH   1   8
BRANCH   1  14
ATOM     14  N   UNL     1       1.911   6.885  19.352  0.00  0.00    +0.000 NA
ATOM     15  C   UNL     1       2.725   7.288  18.200  0.00  0.00    +0.000 C 
ATOM     16  C   UNL     1       4.214   6.816  18.138  0.00  0.00    +0.000 C 
ATOM     17  N   UNL     1       4.653   5.572  18.829  0.00  0.00    +0.000 NA
ATOM     18  C   UNL     1       3.708   5.181  19.888  0.00  0.00    +0.000 C 
ATOM     19  C   UNL     1       2.214   5.469  19.622  0.00  0.00    +0.000 C 
BRANCH  17  20
ATOM     20  C   UNL     1       5.118   4.494  17.923  0.00  0.00    +0.000 C 
ATOM     21  C   UNL     1       6.649   4.435  17.656  0.00  0.00    +0.000 C 
ATOM     22  C   UNL     1       6.995   5.506  16.638  0.00  0.00    +0.000 C 
ATOM     23  S   UNL     1       5.694   5.389  15.438  0.00  0.00    +0.000 S 
ATOM     24  O   UNL     1       6.096   4.448  14.412  0.00  0.00    +0.000 OA
ATOM     25  O   UNL     1       5.233   6.725  15.112  0.00  0.00    +0.000 OA
ATOM     26  C   UNL     1       4.504   4.587  16.499  0.00  0.00    +0.000 C 
ENDBRANCH  17  20
ENDBRANCH   1  14
TORSDOF 4
ENDMDL
