MODEL 1
REMARK VINA RESULT:      -7.9      0.000      0.000
REMARK  Name = 
REMARK  9 active torsions:
REMARK  status: ('A' for Active; 'I' for Inactive)
REMARK    1  A    between atoms: N_6  and  C_7
REMARK    2  A    between atoms: C_7  and  C_8
REMARK    3  A    between atoms: C_11  and  O_12
REMARK    4  A    between atoms: O_12  and  C_13
REMARK    5  A    between atoms: C_13  and  C_14
REMARK    6  A    between atoms: C_14  and  C_15
REMARK    7  A    between atoms: C_15  and  N_16
REMARK    8  A    between atoms: C_19  and  C_20
REMARK    9  A    between atoms: C_20  and  C_21
REMARK                            x       y       z     vdW  Elec       q    Type
REMARK                         _______ _______ _______ _____ _____    ______ ____
ROOT
ATOM      1  O   UNL     1       8.682   8.426  18.652  0.00  0.00    +0.000 OA
ENDROOT
BRANCH   1   5
ATOM      2  C   UNL     1       6.058   5.318  17.689  0.00  0.00    +0.000 A 
ATOM      3  C   UNL     1       5.997   6.563  17.050  0.00  0.00    +0.000 A 
ATOM      4  C   UNL     1       6.910   7.572  17.379  0.00  0.00    +0.000 A 
ATOM      5  C   UNL     1       7.872   7.360  18.365  0.00  0.00    +0.000 A 
ATOM      6  C   UNL     1       7.971   6.105  18.967  0.00  0.00    +0.000 A 
ATOM      7  C   UNL     1       7.071   5.092  18.629  0.00  0.00    +0.000 A 
BRANCH   2   8
ATOM      8  C   UNL     1       5.038   4.234  17.414  0.00  0.00    +0.000 C 
BRANCH   8  14
ATOM      9  F   UNL     1       0.263   3.813  20.197  0.00  0.00    +0.000 F 
ATOM     10  C   UNL     1       1.484   3.610  19.641  0.00  0.00    +0.000 C 
ATOM     11  F   UNL     1       1.890   2.380  20.056  0.00  0.00    +0.000 F 
ATOM     12  C   UNL     1       1.369   3.624  18.138  0.00  0.00    +0.000 C 
ATOM     13  C   UNL     1       2.747   3.444  17.521  0.00  0.00    +0.000 C 
ATOM     14  N   UNL     1       3.691   4.479  17.980  0.00  0.00    +0.000 NA
ATOM     15  C   UNL     1       3.800   4.497  19.453  0.00  0.00    +0.000 C 
ATOM     16  C   UNL     1       2.452   4.656  20.144  0.00  0.00    +0.000 C 
ENDBRANCH   8  14
ENDBRANCH   2   8
ENDBRANCH   1   5
BRANCH   1  17
ATOM     17  C   UNL     1       8.256   9.665  18.073  0.00  0.00    +0.000 C 
BRANCH  17  18
ATOM     18  C   UNL     1       9.335  10.715  18.309  0.00  0.00    +0.000 C 
BRANCH  18  19
ATOM     19  C   UNL     1       9.696  10.837  19.795  0.00  0.00    +0.000 C 
BRANCH  19  20
ATOM     20  N   UNL     1      10.477  12.042  20.131  0.00  0.00    +0.000 NA
ATOM     21  C   UNL     1      11.521  12.310  19.126  0.00  0.00    +0.000 C 
ATOM     22  C   UNL     1      12.328  13.555  19.492  0.00  0.00    +0.000 C 
ATOM     23  C   UNL     1      11.433  14.795  19.596  0.00  0.00    +0.000 C 
ATOM     24  C   UNL     1      10.340  14.487  20.633  0.00  0.00    +0.000 C 
ATOM     25  C   UNL     1       9.579  13.194  20.311  0.00  0.00    +0.000 C 
BRANCH  23  26
ATOM     26  C   UNL     1      10.813  15.224  18.248  0.00  0.00    +0.000 C 
BRANCH  26  27
ATOM     27  C   UNL     1       9.946  16.427  18.351  0.00  0.00    +0.000 A 
ATOM     28  C   UNL     1      10.298  17.748  18.537  0.00  0.00    +0.000 A 
ATOM     29  N   UNL     1       9.121  18.438  18.544  0.00  0.00    +0.000 N 
ATOM     30  C   UNL     1       8.110  17.533  18.374  0.00  0.00    +0.000 A 
ATOM     31  N   UNL     1       8.575  16.311  18.268  0.00  0.00    +0.000 NA
ATOM     32  H   UNL     1       9.006  19.434  18.655  0.00  0.00    +0.000 HD
ENDBRANCH  26  27
ENDBRANCH  23  26
ENDBRANCH  19  20
ENDBRANCH  18  19
ENDBRANCH  17  18
ENDBRANCH   1  17
TORSDOF 9
ENDMDL
MODEL 2
REMARK VINA RESULT:      -7.7      7.863     11.838
REMARK  Name = 
REMARK  9 active torsions:
REMARK  status: ('A' for Active; 'I' for Inactive)
REMARK    1  A    between atoms: N_6  and  C_7
REMARK    2  A    between atoms: C_7  and  C_8
REMARK    3  A    between atoms: C_11  and  O_12
REMARK    4  A    between atoms: O_12  and  C_13
REMARK    5  A    between atoms: C_13  and  C_14
REMARK    6  A    between atoms: C_14  and  C_15
REMARK    7  A    between atoms: C_15  and  N_16
REMARK    8  A    between atoms: C_19  and  C_20
REMARK    9  A    between atoms: C_20  and  C_21
REMARK                            x       y       z     vdW  Elec       q    Type
REMARK                         _______ _______ _______ _____ _____    ______ ____
ROOT
ATOM      1  O   UNL     1       0.746  10.027  20.051  0.00  0.00    +0.000 OA
ENDROOT
BRANCH   1   5
ATOM      2  C   UNL     1       2.781   6.561  18.902  0.00  0.00    +0.000 A 
ATOM      3  C   UNL     1       2.193   6.690  20.168  0.00  0.00    +0.000 A 
ATOM      4  C   UNL     1       1.496   7.855  20.507  0.00  0.00    +0.000 A 
ATOM      5  C   UNL     1       1.402   8.911  19.603  0.00  0.00    +0.000 A 
ATOM      6  C   UNL     1       1.939   8.767  18.324  0.00  0.00    +0.000 A 
ATOM      7  C   UNL     1       2.622   7.600  17.977  0.00  0.00    +0.000 A 
BRANCH   2   8
ATOM      8  C   UNL     1       3.609   5.349  18.531  0.00  0.00    +0.000 C 
BRANCH   8  14
ATOM      9  F   UNL     1       7.685   4.961  14.796  0.00  0.00    +0.000 F 
ATOM     10  C   UNL     1       6.886   4.850  15.886  0.00  0.00    +0.000 C 
ATOM     11  F   UNL     1       7.527   4.013  16.744  0.00  0.00    +0.000 F 
ATOM     12  C   UNL     1       6.712   6.201  16.532  0.00  0.00    +0.000 C 
ATOM     13  C   UNL     1       5.776   6.079  17.724  0.00  0.00    +0.000 C 
ATOM     14  N   UNL     1       4.470   5.516  17.337  0.00  0.00    +0.000 NA
ATOM     15  C   UNL     1       4.620   4.202  16.681  0.00  0.00    +0.000 C 
ATOM     16  C   UNL     1       5.561   4.242  15.485  0.00  0.00    +0.000 C 
ENDBRANCH   8  14
ENDBRANCH   2   8
ENDBRANCH   1   5
BRANCH   1  17
ATOM     17  C   UNL     1       0.134  10.807  19.018  0.00  0.00    +0.000 C 
BRANCH  17  18
ATOM     18  C   UNL     1      -1.289  10.303  18.800  0.00  0.00    +0.000 C 
BRANCH  18  19
ATOM     19  C   UNL     1      -1.887  10.837  17.492  0.00  0.00    +0.000 C 
BRANCH  19  20
ATOM     20  N   UNL     1      -3.077  11.689  17.674  0.00  0.00    +0.000 NA
ATOM     21  C   UNL     1      -4.145  11.342  16.720  0.00  0.00    +0.000 C 
ATOM     22  C   UNL     1      -5.366  12.238  16.914  0.00  0.00    +0.000 C 
ATOM     23  C   UNL     1      -5.933  12.119  18.333  0.00  0.00    +0.000 C 
ATOM     24  C   UNL     1      -4.799  12.465  19.311  0.00  0.00    +0.000 C 
ATOM     25  C   UNL     1      -3.541  11.620  19.069  0.00  0.00    +0.000 C 
BRANCH  23  26
ATOM     26  C   UNL     1      -6.529  10.728  18.644  0.00  0.00    +0.000 C 
BRANCH  26  27
ATOM     27  C   UNL     1      -7.101  10.622  20.012  0.00  0.00    +0.000 A 
ATOM     28  C   UNL     1      -7.406  11.620  20.914  0.00  0.00    +0.000 A 
ATOM     29  N   UNL     1      -7.916  10.977  22.005  0.00  0.00    +0.000 N 
ATOM     30  C   UNL     1      -7.897   9.635  21.740  0.00  0.00    +0.000 A 
ATOM     31  N   UNL     1      -7.399   9.390  20.552  0.00  0.00    +0.000 NA
ATOM     32  H   UNL     1      -8.247  11.404  22.857  0.00  0.00    +0.000 HD
ENDBRANCH  26  27
ENDBRANCH  23  26
ENDBRANCH  19  20
ENDBRANCH  18  19
ENDBRANCH  17  18
ENDBRANCH   1  17
TORSDOF 9
ENDMDL
MODEL 3
REMARK VINA RESULT:      -7.7      1.357      1.883
REMARK  Name = 
REMARK  9 active torsions:
REMARK  status: ('A' for Active; 'I' for Inactive)
REMARK    1  A    between atoms: N_6  and  C_7
REMARK    2  A    between atoms: C_7  and  C_8
REMARK    3  A    between atoms: C_11  and  O_12
REMARK    4  A    between atoms: O_12  and  C_13
REMARK    5  A    between atoms: C_13  and  C_14
REMARK    6  A    between atoms: C_14  and  C_15
REMARK    7  A    between atoms: C_15  and  N_16
REMARK    8  A    between atoms: C_19  and  C_20
REMARK    9  A    between atoms: C_20  and  C_21
REMARK                            x       y       z     vdW  Elec       q    Type
REMARK                         _______ _______ _______ _____ _____    ______ ____
ROOT
ATOM      1  O   UNL     1       7.440   8.046  16.983  0.00  0.00    +0.000 OA
ENDROOT
BRANCH   1   5
ATOM      2  C   UNL     1       4.887   4.750  17.286  0.00  0.00    +0.000 A 
ATOM      3  C   UNL     1       4.955   5.529  16.123  0.00  0.00    +0.000 A 
ATOM      4  C   UNL     1       5.842   6.609  16.048  0.00  0.00    +0.000 A 
ATOM      5  C   UNL     1       6.647   6.940  17.137  0.00  0.00    +0.000 A 
ATOM      6  C   UNL     1       6.621   6.135  18.277  0.00  0.00    +0.000 A 
ATOM      7  C   UNL     1       5.749   5.048  18.349  0.00  0.00    +0.000 A 
BRANCH   2   8
ATOM      8  C   UNL     1       3.884   3.625  17.429  0.00  0.00    +0.000 C 
BRANCH   8  14
ATOM      9  F   UNL     1       1.018   2.813  22.103  0.00  0.00    +0.000 F 
ATOM     10  C   UNL     1       1.422   3.116  20.844  0.00  0.00    +0.000 C 
ATOM     11  F   UNL     1       0.317   3.555  20.186  0.00  0.00    +0.000 F 
ATOM     12  C   UNL     1       2.455   4.212  20.889  0.00  0.00    +0.000 C 
ATOM     13  C   UNL     1       2.940   4.513  19.478  0.00  0.00    +0.000 C 
ATOM     14  N   UNL     1       3.485   3.311  18.821  0.00  0.00    +0.000 NA
ATOM     15  C   UNL     1       2.495   2.216  18.788  0.00  0.00    +0.000 C 
ATOM     16  C   UNL     1       1.949   1.871  20.167  0.00  0.00    +0.000 C 
ENDBRANCH   8  14
ENDBRANCH   2   8
ENDBRANCH   1   5
BRANCH   1  17
ATOM     17  C   UNL     1       8.052   8.508  18.192  0.00  0.00    +0.000 C 
BRANCH  17  18
ATOM     18  C   UNL     1       8.827   9.786  17.893  0.00  0.00    +0.000 C 
BRANCH  18  19
ATOM     19  C   UNL     1       9.387  10.424  19.170  0.00  0.00    +0.000 C 
BRANCH  19  20
ATOM     20  N   UNL     1      10.615  11.215  18.963  0.00  0.00    +0.000 NA
ATOM     21  C   UNL     1      10.431  12.243  17.924  0.00  0.00    +0.000 C 
ATOM     22  C   UNL     1      11.713  13.046  17.713  0.00  0.00    +0.000 C 
ATOM     23  C   UNL     1      12.159  13.743  19.004  0.00  0.00    +0.000 C 
ATOM     24  C   UNL     1      12.326  12.656  20.078  0.00  0.00    +0.000 C 
ATOM     25  C   UNL     1      11.066  11.796  20.238  0.00  0.00    +0.000 C 
BRANCH  23  26
ATOM     26  C   UNL     1      11.187  14.846  19.477  0.00  0.00    +0.000 C 
BRANCH  26  27
ATOM     27  C   UNL     1      10.920  15.882  18.445  0.00  0.00    +0.000 A 
ATOM     28  C   UNL     1      11.791  16.770  17.848  0.00  0.00    +0.000 A 
ATOM     29  N   UNL     1      11.032  17.484  16.967  0.00  0.00    +0.000 N 
ATOM     30  C   UNL     1       9.748  17.022  17.059  0.00  0.00    +0.000 A 
ATOM     31  N   UNL     1       9.647  16.066  17.951  0.00  0.00    +0.000 NA
ATOM     32  H   UNL     1      11.350  18.221  16.355  0.00  0.00    +0.000 HD
ENDBRANCH  26  27
ENDBRANCH  23  26
ENDBRANCH  19  20
ENDBRANCH  18  19
ENDBRANCH  17  18
ENDBRANCH   1  17
TORSDOF 9
ENDMDL
MODEL 4
REMARK VINA RESULT:      -7.7      7.401      9.969
REMARK  Name = 
REMARK  9 active torsions:
REMARK  status: ('A' for Active; 'I' for Inactive)
REMARK    1  A    between atoms: N_6  and  C_7
REMARK    2  A    between atoms: C_7  and  C_8
REMARK    3  A    between atoms: C_11  and  O_12
REMARK    4  A    between atoms: O_12  and  C_13
REMARK    5  A    between atoms: C_13  and  C_14
REMARK    6  A    between atoms: C_14  and  C_15
REMARK    7  A    between atoms: C_15  and  N_16
REMARK    8  A    between atoms: C_19  and  C_20
REMARK    9  A    between atoms: C_20  and  C_21
REMARK                            x       y       z     vdW  Elec       q    Type
REMARK                         _______ _______ _______ _____ _____    ______ ____
ROOT
ATOM      1  O   UNL     1       2.765   6.032  20.293  0.00  0.00    +0.000 OA
ENDROOT
BRANCH   1   5
ATOM      2  C   UNL     1       0.918   9.572  19.057  0.00  0.00    +0.000 A 
ATOM      3  C   UNL     1       0.820   9.107  20.375  0.00  0.00    +0.000 A 
ATOM      4  C   UNL     1       1.475   7.931  20.759  0.00  0.00    +0.000 A 
ATOM      5  C   UNL     1       2.208   7.195  19.831  0.00  0.00    +0.000 A 
ATOM      6  C   UNL     1       2.353   7.682  18.531  0.00  0.00    +0.000 A 
ATOM      7  C   UNL     1       1.714   8.862  18.149  0.00  0.00    +0.000 A 
BRANCH   2   8
ATOM      8  C   UNL     1       0.158  10.796  18.588  0.00  0.00    +0.000 C 
BRANCH   8  14
ATOM      9  F   UNL     1      -5.289  11.049  17.596  0.00  0.00    +0.000 F 
ATOM     10  C   UNL     1      -3.936  11.145  17.544  0.00  0.00    +0.000 C 
ATOM     11  F   UNL     1      -3.645  11.765  16.370  0.00  0.00    +0.000 F 
ATOM     12  C   UNL     1      -3.439  11.980  18.695  0.00  0.00    +0.000 C 
ATOM     13  C   UNL     1      -1.920  12.043  18.659  0.00  0.00    +0.000 C 
ATOM     14  N   UNL     1      -1.316  10.699  18.693  0.00  0.00    +0.000 NA
ATOM     15  C   UNL     1      -1.809   9.856  17.586  0.00  0.00    +0.000 C 
ATOM     16  C   UNL     1      -3.329   9.761  17.546  0.00  0.00    +0.000 C 
ENDBRANCH   8  14
ENDBRANCH   2   8
ENDBRANCH   1   5
BRANCH   1  17
ATOM     17  C   UNL     1       2.040   4.849  19.943  0.00  0.00    +0.000 C 
BRANCH  17  18
ATOM     18  C   UNL     1       2.884   3.631  20.299  0.00  0.00    +0.000 C 
BRANCH  18  19
ATOM     19  C   UNL     1       3.885   3.288  19.189  0.00  0.00    +0.000 C 
BRANCH  19  20
ATOM     20  N   UNL     1       4.479   4.464  18.526  0.00  0.00    +0.000 NA
ATOM     21  C   UNL     1       5.905   4.618  18.866  0.00  0.00    +0.000 C 
ATOM     22  C   UNL     1       6.503   5.844  18.182  0.00  0.00    +0.000 C 
ATOM     23  C   UNL     1       6.381   5.754  16.656  0.00  0.00    +0.000 C 
ATOM     24  C   UNL     1       4.891   5.575  16.325  0.00  0.00    +0.000 C 
ATOM     25  C   UNL     1       4.265   4.389  17.072  0.00  0.00    +0.000 C 
BRANCH  23  26
ATOM     26  C   UNL     1       7.227   4.620  16.036  0.00  0.00    +0.000 C 
BRANCH  26  27
ATOM     27  C   UNL     1       7.031   4.469  14.570  0.00  0.00    +0.000 A 
ATOM     28  C   UNL     1       7.606   5.172  13.531  0.00  0.00    +0.000 A 
ATOM     29  N   UNL     1       7.090   4.622  12.394  0.00  0.00    +0.000 N 
ATOM     30  C   UNL     1       6.229   3.628  12.769  0.00  0.00    +0.000 A 
ATOM     31  N   UNL     1       6.162   3.521  14.074  0.00  0.00    +0.000 NA
ATOM     32  H   UNL     1       7.298   4.893  11.445  0.00  0.00    +0.000 HD
ENDBRANCH  26  27
ENDBRANCH  23  26
ENDBRANCH  19  20
ENDBRANCH  18  19
ENDBRANCH  17  18
ENDBRANCH   1  17
TORSDOF 9
ENDMDL
MODEL 5
REMARK VINA RESULT:      -7.7      7.491     10.540
REMARK  Name = 
REMARK  9 active torsions:
REMARK  status: ('A' for Active; 'I' for Inactive)
REMARK    1  A    between atoms: N_6  and  C_7
REMARK    2  A    between atoms: C_7  and  C_8
REMARK    3  A    between atoms: C_11  and  O_12
REMARK    4  A    between atoms: O_12  and  C_13
REMARK    5  A    between atoms: C_13  and  C_14
REMARK    6  A    between atoms: C_14  and  C_15
REMARK    7  A    between atoms: C_15  and  N_16
REMARK    8  A    between atoms: C_19  and  C_20
REMARK    9  A    between atoms: C_20  and  C_21
REMARK                            x       y       z     vdW  Elec       q    Type
REMARK                         _______ _______ _______ _____ _____    ______ ____
ROOT
ATOM      1  O   UNL     1       2.862   5.263  20.416  0.00  0.00    +0.000 OA
ENDROOT
BRANCH   1   5
ATOM      2  C   UNL     1       1.421   8.972  19.134  0.00  0.00    +0.000 A 
ATOM      3  C   UNL     1       2.181   8.143  18.298  0.00  0.00    +0.000 A 
ATOM      4  C   UNL     1       2.623   6.896  18.753  0.00  0.00    +0.000 A 
ATOM      5  C   UNL     1       2.338   6.475  20.051  0.00  0.00    +0.000 A 
ATOM      6  C   UNL     1       1.538   7.272  20.868  0.00  0.00    +0.000 A 
ATOM      7  C   UNL     1       1.082   8.510  20.412  0.00  0.00    +0.000 A 
BRANCH   2   8
ATOM      8  C   UNL     1       0.995  10.359  18.702  0.00  0.00    +0.000 C 
BRANCH   8  14
ATOM      9  F   UNL     1      -4.198  11.597  17.212  0.00  0.00    +0.000 F 
ATOM     10  C   UNL     1      -2.857  11.397  17.265  0.00  0.00    +0.000 C 
ATOM     11  F   UNL     1      -2.371  11.755  16.047  0.00  0.00    +0.000 F 
ATOM     12  C   UNL     1      -2.252  12.276  18.330  0.00  0.00    +0.000 C 
ATOM     13  C   UNL     1      -0.757  12.012  18.419  0.00  0.00    +0.000 C 
ATOM     14  N   UNL     1      -0.468  10.592  18.690  0.00  0.00    +0.000 NA
ATOM     15  C   UNL     1      -1.073   9.712  17.669  0.00  0.00    +0.000 C 
ATOM     16  C   UNL     1      -2.572   9.934  17.511  0.00  0.00    +0.000 C 
ENDBRANCH   8  14
ENDBRANCH   2   8
ENDBRANCH   1   5
BRANCH   1  17
ATOM     17  C   UNL     1       2.258   4.685  21.579  0.00  0.00    +0.000 C 
BRANCH  17  18
ATOM     18  C   UNL     1       2.293   3.167  21.447  0.00  0.00    +0.000 C 
BRANCH  18  19
ATOM     19  C   UNL     1       1.306   2.665  20.385  0.00  0.00    +0.000 C 
BRANCH  19  20
ATOM     20  N   UNL     1       1.921   2.380  19.075  0.00  0.00    +0.000 NA
ATOM     21  C   UNL     1       1.742   3.501  18.135  0.00  0.00    +0.000 C 
ATOM     22  C   UNL     1       2.374   3.187  16.781  0.00  0.00    +0.000 C 
ATOM     23  C   UNL     1       3.875   2.905  16.911  0.00  0.00    +0.000 C 
ATOM     24  C   UNL     1       4.039   1.748  17.909  0.00  0.00    +0.000 C 
ATOM     25  C   UNL     1       3.339   2.026  19.246  0.00  0.00    +0.000 C 
BRANCH  23  26
ATOM     26  C   UNL     1       4.699   4.136  17.350  0.00  0.00    +0.000 C 
BRANCH  26  27
ATOM     27  C   UNL     1       5.739   4.533  16.365  0.00  0.00    +0.000 A 
ATOM     28  C   UNL     1       6.897   5.258  16.557  0.00  0.00    +0.000 A 
ATOM     29  N   UNL     1       7.491   5.323  15.330  0.00  0.00    +0.000 N 
ATOM     30  C   UNL     1       6.688   4.655  14.447  0.00  0.00    +0.000 A 
ATOM     31  N   UNL     1       5.618   4.180  15.039  0.00  0.00    +0.000 NA
ATOM     32  H   UNL     1       8.362   5.778  15.105  0.00  0.00    +0.000 HD
ENDBRANCH  26  27
ENDBRANCH  23  26
ENDBRANCH  19  20
ENDBRANCH  18  19
ENDBRANCH  17  18
ENDBRANCH   1  17
TORSDOF 9
ENDMDL
MODEL 6
REMARK VINA RESULT:      -7.6      8.179     11.909
REMARK  Name = 
REMARK  9 active torsions:
REMARK  status: ('A' for Active; 'I' for Inactive)
REMARK    1  A    between atoms: N_6  and  C_7
REMARK    2  A    between atoms: C_7  and  C_8
REMARK    3  A    between atoms: C_11  and  O_12
REMARK    4  A    between atoms: O_12  and  C_13
REMARK    5  A    between atoms: C_13  and  C_14
REMARK    6  A    between atoms: C_14  and  C_15
REMARK    7  A    between atoms: C_15  and  N_16
REMARK    8  A    between atoms: C_19  and  C_20
REMARK    9  A    between atoms: C_20  and  C_21
REMARK                            x       y       z     vdW  Elec       q    Type
REMARK                         _______ _______ _______ _____ _____    ______ ____
ROOT
ATOM      1  O   UNL     1       0.466   8.765  20.368  0.00  0.00    +0.000 OA
ENDROOT
BRANCH   1   5
ATOM      2  C   UNL     1      -1.452  11.764  22.558  0.00  0.00    +0.000 A 
ATOM      3  C   UNL     1      -0.987  10.588  23.162  0.00  0.00    +0.000 A 
ATOM      4  C   UNL     1      -0.325   9.618  22.401  0.00  0.00    +0.000 A 
ATOM      5  C   UNL     1      -0.145   9.796  21.030  0.00  0.00    +0.000 A 
ATOM      6  C   UNL     1      -0.558  10.987  20.435  0.00  0.00    +0.000 A 
ATOM      7  C   UNL     1      -1.206  11.964  21.194  0.00  0.00    +0.000 A 
BRANCH   2   8
ATOM      8  C   UNL     1      -2.241  12.797  23.335  0.00  0.00    +0.000 C 
BRANCH   8  14
ATOM      9  F   UNL     1      -7.613  14.143  23.124  0.00  0.00    +0.000 F 
ATOM     10  C   UNL     1      -6.283  14.078  23.382  0.00  0.00    +0.000 C 
ATOM     11  F   UNL     1      -6.007  15.112  24.219  0.00  0.00    +0.000 F 
ATOM     12  C   UNL     1      -5.959  12.773  24.064  0.00  0.00    +0.000 C 
ATOM     13  C   UNL     1      -4.460  12.684  24.306  0.00  0.00    +0.000 C 
ATOM     14  N   UNL     1      -3.695  12.820  23.053  0.00  0.00    +0.000 NA
ATOM     15  C   UNL     1      -4.017  14.082  22.357  0.00  0.00    +0.000 C 
ATOM     16  C   UNL     1      -5.508  14.250  22.096  0.00  0.00    +0.000 C 
ENDBRANCH   8  14
ENDBRANCH   2   8
ENDBRANCH   1   5
BRANCH   1  17
ATOM     17  C   UNL     1       1.217   7.884  21.209  0.00  0.00    +0.000 C 
BRANCH  17  18
ATOM     18  C   UNL     1       2.066   6.971  20.332  0.00  0.00    +0.000 C 
BRANCH  18  19
ATOM     19  C   UNL     1       1.913   5.497  20.728  0.00  0.00    +0.000 C 
BRANCH  19  20
ATOM     20  N   UNL     1       2.465   4.546  19.745  0.00  0.00    +0.000 NA
ATOM     21  C   UNL     1       1.850   4.719  18.417  0.00  0.00    +0.000 C 
ATOM     22  C   UNL     1       2.423   3.722  17.413  0.00  0.00    +0.000 C 
ATOM     23  C   UNL     1       3.941   3.881  17.263  0.00  0.00    +0.000 C 
ATOM     24  C   UNL     1       4.559   3.717  18.661  0.00  0.00    +0.000 C 
ATOM     25  C   UNL     1       3.931   4.663  19.692  0.00  0.00    +0.000 C 
BRANCH  23  26
ATOM     26  C   UNL     1       4.360   5.225  16.626  0.00  0.00    +0.000 C 
BRANCH  26  27
ATOM     27  C   UNL     1       5.613   5.137  15.831  0.00  0.00    +0.000 A 
ATOM     28  C   UNL     1       6.888   5.549  16.156  0.00  0.00    +0.000 A 
ATOM     29  N   UNL     1       7.660   5.220  15.080  0.00  0.00    +0.000 N 
ATOM     30  C   UNL     1       6.844   4.637  14.149  0.00  0.00    +0.000 A 
ATOM     31  N   UNL     1       5.603   4.584  14.568  0.00  0.00    +0.000 NA
ATOM     32  H   UNL     1       8.651   5.376  14.978  0.00  0.00    +0.000 HD
ENDBRANCH  26  27
ENDBRANCH  23  26
ENDBRANCH  19  20
ENDBRANCH  18  19
ENDBRANCH  17  18
ENDBRANCH   1  17
TORSDOF 9
ENDMDL
MODEL 7
REMARK VINA RESULT:      -7.5      1.840      2.624
REMARK  Name = 
REMARK  9 active torsions:
REMARK  status: ('A' for Active; 'I' for Inactive)
REMARK    1  A    between atoms: N_6  and  C_7
REMARK    2  A    between atoms: C_7  and  C_8
REMARK    3  A    between atoms: C_11  and  O_12
REMARK    4  A    between atoms: O_12  and  C_13
REMARK    5  A    between atoms: C_13  and  C_14
REMARK    6  A    between atoms: C_14  and  C_15
REMARK    7  A    between atoms: C_15  and  N_16
REMARK    8  A    between atoms: C_19  and  C_20
REMARK    9  A    between atoms: C_20  and  C_21
REMARK                            x       y       z     vdW  Elec       q    Type
REMARK                         _______ _______ _______ _____ _____    ______ ____
ROOT
ATOM      1  O   UNL     1       8.723   8.134  18.732  0.00  0.00    +0.000 OA
ENDROOT
BRANCH   1   5
ATOM      2  C   UNL     1       6.015   5.188  17.520  0.00  0.00    +0.000 A 
ATOM      3  C   UNL     1       6.086   6.436  16.885  0.00  0.00    +0.000 A 
ATOM      4  C   UNL     1       7.024   7.387  17.301  0.00  0.00    +0.000 A 
ATOM      5  C   UNL     1       7.880   7.118  18.368  0.00  0.00    +0.000 A 
ATOM      6  C   UNL     1       7.850   5.859  18.968  0.00  0.00    +0.000 A 
ATOM      7  C   UNL     1       6.925   4.902  18.545  0.00  0.00    +0.000 A 
BRANCH   2   8
ATOM      8  C   UNL     1       4.961   4.167  17.148  0.00  0.00    +0.000 C 
BRANCH   8  14
ATOM      9  F   UNL     1       0.544   2.743  20.177  0.00  0.00    +0.000 F 
ATOM     10  C   UNL     1       1.395   3.135  19.196  0.00  0.00    +0.000 C 
ATOM     11  F   UNL     1       0.629   3.351  18.094  0.00  0.00    +0.000 F 
ATOM     12  C   UNL     1       2.080   4.416  19.596  0.00  0.00    +0.000 C 
ATOM     13  C   UNL     1       3.068   4.824  18.514  0.00  0.00    +0.000 C 
ATOM     14  N   UNL     1       4.059   3.764  18.252  0.00  0.00    +0.000 NA
ATOM     15  C   UNL     1       3.406   2.493  17.881  0.00  0.00    +0.000 C 
ATOM     16  C   UNL     1       2.385   2.029  18.912  0.00  0.00    +0.000 C 
ENDBRANCH   8  14
ENDBRANCH   2   8
ENDBRANCH   1   5
BRANCH   1  17
ATOM     17  C   UNL     1       8.431   9.393  18.116  0.00  0.00    +0.000 C 
BRANCH  17  18
ATOM     18  C   UNL     1       9.175  10.492  18.867  0.00  0.00    +0.000 C 
BRANCH  18  19
ATOM     19  C   UNL     1      10.065  11.318  17.932  0.00  0.00    +0.000 C 
BRANCH  19  20
ATOM     20  N   UNL     1       9.912  12.778  18.084  0.00  0.00    +0.000 NA
ATOM     21  C   UNL     1       8.936  13.114  19.136  0.00  0.00    +0.000 C 
ATOM     22  C   UNL     1       8.780  14.627  19.275  0.00  0.00    +0.000 C 
ATOM     23  C   UNL     1      10.112  15.301  19.625  0.00  0.00    +0.000 C 
ATOM     24  C   UNL     1      11.120  14.920  18.528  0.00  0.00    +0.000 C 
ATOM     25  C   UNL     1      11.222  13.402  18.330  0.00  0.00    +0.000 C 
BRANCH  23  26
ATOM     26  C   UNL     1      10.646  14.922  21.024  0.00  0.00    +0.000 C 
BRANCH  26  27
ATOM     27  C   UNL     1       9.731  15.307  22.130  0.00  0.00    +0.000 A 
ATOM     28  C   UNL     1       8.982  14.507  22.967  0.00  0.00    +0.000 A 
ATOM     29  N   UNL     1       8.335  15.366  23.807  0.00  0.00    +0.000 N 
ATOM     30  C   UNL     1       8.698  16.638  23.456  0.00  0.00    +0.000 A 
ATOM     31  N   UNL     1       9.528  16.635  22.441  0.00  0.00    +0.000 NA
ATOM     32  H   UNL     1       7.702  15.120  24.552  0.00  0.00    +0.000 HD
ENDBRANCH  26  27
ENDBRANCH  23  26
ENDBRANCH  19  20
ENDBRANCH  18  19
ENDBRANCH  17  18
ENDBRANCH   1  17
TORSDOF 9
ENDMDL
MODEL 8
REMARK VINA RESULT:      -7.5      1.749      2.373
REMARK  Name = 
REMARK  9 active torsions:
REMARK  status: ('A' for Active; 'I' for Inactive)
REMARK    1  A    between atoms: N_6  and  C_7
REMARK    2  A    between atoms: C_7  and  C_8
REMARK    3  A    between atoms: C_11  and  O_12
REMARK    4  A    between atoms: O_12  and  C_13
REMARK    5  A    between atoms: C_13  and  C_14
REMARK    6  A    between atoms: C_14  and  C_15
REMARK    7  A    between atoms: C_15  and  N_16
REMARK    8  A    between atoms: C_19  and  C_20
REMARK    9  A    between atoms: C_20  and  C_21
REMARK                            x       y       z     vdW  Elec       q    Type
REMARK                         _______ _______ _______ _____ _____    ______ ____
ROOT
ATOM      1  O   UNL     1       8.446   8.108  17.799  0.00  0.00    +0.000 OA
ENDROOT
BRANCH   1   5
ATOM      2  C   UNL     1       5.359   5.304  18.080  0.00  0.00    +0.000 A 
ATOM      3  C   UNL     1       6.536   5.187  18.830  0.00  0.00    +0.000 A 
ATOM      4  C   UNL     1       7.537   6.160  18.731  0.00  0.00    +0.000 A 
ATOM      5  C   UNL     1       7.388   7.241  17.864  0.00  0.00    +0.000 A 
ATOM      6  C   UNL     1       6.196   7.391  17.155  0.00  0.00    +0.000 A 
ATOM      7  C   UNL     1       5.190   6.430  17.263  0.00  0.00    +0.000 A 
BRANCH   2   8
ATOM      8  C   UNL     1       4.292   4.230  18.104  0.00  0.00    +0.000 C 
BRANCH   8  14
ATOM      9  F   UNL     1       0.838   2.644  22.137  0.00  0.00    +0.000 F 
ATOM     10  C   UNL     1       1.526   2.791  20.978  0.00  0.00    +0.000 C 
ATOM     11  F   UNL     1       1.032   1.858  20.122  0.00  0.00    +0.000 F 
ATOM     12  C   UNL     1       1.291   4.170  20.416  0.00  0.00    +0.000 C 
ATOM     13  C   UNL     1       2.104   4.346  19.142  0.00  0.00    +0.000 C 
ATOM     14  N   UNL     1       3.541   4.118  19.376  0.00  0.00    +0.000 NA
ATOM     15  C   UNL     1       3.790   2.780  19.949  0.00  0.00    +0.000 C 
ATOM     16  C   UNL     1       2.994   2.523  21.221  0.00  0.00    +0.000 C 
ENDBRANCH   8  14
ENDBRANCH   2   8
ENDBRANCH   1   5
BRANCH   1  17
ATOM     17  C   UNL     1       8.086   9.490  17.899  0.00  0.00    +0.000 C 
BRANCH  17  18
ATOM     18  C   UNL     1       9.009  10.167  18.907  0.00  0.00    +0.000 C 
BRANCH  18  19
ATOM     19  C   UNL     1      10.165  10.900  18.216  0.00  0.00    +0.000 C 
BRANCH  19  20
ATOM     20  N   UNL     1      10.259  12.333  18.553  0.00  0.00    +0.000 NA
ATOM     21  C   UNL     1       9.289  13.136  17.788  0.00  0.00    +0.000 C 
ATOM     22  C   UNL     1       9.405  14.618  18.139  0.00  0.00    +0.000 C 
ATOM     23  C   UNL     1       9.159  14.864  19.633  0.00  0.00    +0.000 C 
ATOM     24  C   UNL     1      10.167  14.003  20.411  0.00  0.00    +0.000 C 
ATOM     25  C   UNL     1      10.108  12.525  20.004  0.00  0.00    +0.000 C 
BRANCH  23  26
ATOM     26  C   UNL     1       7.711  14.562  20.077  0.00  0.00    +0.000 C 
BRANCH  26  27
ATOM     27  C   UNL     1       6.777  15.698  19.864  0.00  0.00    +0.000 A 
ATOM     28  C   UNL     1       5.690  15.793  19.021  0.00  0.00    +0.000 A 
ATOM     29  N   UNL     1       5.180  17.042  19.228  0.00  0.00    +0.000 N 
ATOM     30  C   UNL     1       5.963  17.658  20.165  0.00  0.00    +0.000 A 
ATOM     31  N   UNL     1       6.941  16.878  20.558  0.00  0.00    +0.000 NA
ATOM     32  H   UNL     1       4.374  17.447  18.775  0.00  0.00    +0.000 HD
ENDBRANCH  26  27
ENDBRANCH  23  26
ENDBRANCH  19  20
ENDBRANCH  18  19
ENDBRANCH  17  18
ENDBRANCH   1  17
TORSDOF 9
ENDMDL
MODEL 9
REMARK VINA RESULT:      -7.5      1.451      1.982
REMARK  Name = 
REMARK  9 active torsions:
REMARK  status: ('A' for Active; 'I' for Inactive)
REMARK    1  A    between atoms: N_6  and  C_7
REMARK    2  A    between atoms: C_7  and  C_8
REMARK    3  A    between atoms: C_11  and  O_12
REMARK    4  A    between atoms: O_12  and  C_13
REMARK    5  A    between atoms: C_13  and  C_14
REMARK    6  A    between atoms: C_14  and  C_15
REMARK    7  A    between atoms: C_15  and  N_16
REMARK    8  A    between atoms: C_19  and  C_20
REMARK    9  A    between atoms: C_20  and  C_21
REMARK                            x       y       z     vdW  Elec       q    Type
REMARK                         _______ _______ _______ _____ _____    ______ ____
ROOT
ATOM      1  O   UNL     1       7.168   8.300  17.232  0.00  0.00    +0.000 OA
ENDROOT
BRANCH   1   5
ATOM      2  C   UNL     1       5.452   4.492  17.061  0.00  0.00    +0.000 A 
ATOM      3  C   UNL     1       4.920   5.576  16.351  0.00  0.00    +0.000 A 
ATOM      4  C   UNL     1       5.538   6.831  16.411  0.00  0.00    +0.000 A 
ATOM      5  C   UNL     1       6.672   7.024  17.198  0.00  0.00    +0.000 A 
ATOM      6  C   UNL     1       7.236   5.935  17.864  0.00  0.00    +0.000 A 
ATOM      7  C   UNL     1       6.631   4.679  17.794  0.00  0.00    +0.000 A 
BRANCH   2   8
ATOM      8  C   UNL     1       4.766   3.143  17.082  0.00  0.00    +0.000 C 
BRANCH   8  14
ATOM      9  F   UNL     1       1.061   4.065  21.099  0.00  0.00    +0.000 F 
ATOM     10  C   UNL     1       2.094   4.132  20.222  0.00  0.00    +0.000 C 
ATOM     11  F   UNL     1       2.744   5.296  20.488  0.00  0.00    +0.000 F 
ATOM     12  C   UNL     1       3.027   2.969  20.443  0.00  0.00    +0.000 C 
ATOM     13  C   UNL     1       4.156   3.022  19.425  0.00  0.00    +0.000 C 
ATOM     14  N   UNL     1       3.645   3.022  18.043  0.00  0.00    +0.000 NA
ATOM     15  C   UNL     1       2.709   4.141  17.813  0.00  0.00    +0.000 C 
ATOM     16  C   UNL     1       1.558   4.165  18.809  0.00  0.00    +0.000 C 
ENDBRANCH   8  14
ENDBRANCH   2   8
ENDBRANCH   1   5
BRANCH   1  17
ATOM     17  C   UNL     1       8.303   8.470  18.088  0.00  0.00    +0.000 C 
BRANCH  17  18
ATOM     18  C   UNL     1       8.640   9.955  18.167  0.00  0.00    +0.000 C 
BRANCH  18  19
ATOM     19  C   UNL     1       9.459  10.286  19.421  0.00  0.00    +0.000 C 
BRANCH  19  20
ATOM     20  N   UNL     1       9.163  11.609  20.004  0.00  0.00    +0.000 NA
ATOM     21  C   UNL     1      10.137  11.972  21.049  0.00  0.00    +0.000 C 
ATOM     22  C   UNL     1       9.812  13.338  21.650  0.00  0.00    +0.000 C 
ATOM     23  C   UNL     1       9.820  14.439  20.583  0.00  0.00    +0.000 C 
ATOM     24  C   UNL     1       8.814  14.031  19.495  0.00  0.00    +0.000 C 
ATOM     25  C   UNL     1       9.089  12.626  18.943  0.00  0.00    +0.000 C 
BRANCH  23  26
ATOM     26  C   UNL     1      11.217  14.701  19.977  0.00  0.00    +0.000 C 
BRANCH  26  27
ATOM     27  C   UNL     1      11.215  15.738  18.911  0.00  0.00    +0.000 A 
ATOM     28  C   UNL     1      10.968  17.091  19.006  0.00  0.00    +0.000 A 
ATOM     29  N   UNL     1      11.108  17.574  17.737  0.00  0.00    +0.000 N 
ATOM     30  C   UNL     1      11.422  16.518  16.926  0.00  0.00    +0.000 A 
ATOM     31  N   UNL     1      11.480  15.396  17.603  0.00  0.00    +0.000 NA
ATOM     32  H   UNL     1      11.001  18.532  17.440  0.00  0.00    +0.000 HD
ENDBRANCH  26  27
ENDBRANCH  23  26
ENDBRANCH  19  20
ENDBRANCH  18  19
ENDBRANCH  17  18
ENDBRANCH   1  17
TORSDOF 9
ENDMDL
