MODEL 1
REMARK VINA RESULT:      -7.4      0.000      0.000
REMARK  Name = 
REMARK  7 active torsions:
REMARK  status: ('A' for Active; 'I' for Inactive)
REMARK    1  A    between atoms: C_1  and  C_2
REMARK    2  A    between atoms: C_2  and  C_3
REMARK    3  A    between atoms: C_3  and  C_4
REMARK    4  A    between atoms: C_13  and  C_14
REMARK    5  A    between atoms: C_14  and  C_15
REMARK    6  A    between atoms: C_20  and  O_21
REMARK    7  A    between atoms: O_21  and  C_22
REMARK                            x       y       z     vdW  Elec       q    Type
REMARK                         _______ _______ _______ _____ _____    ______ ____
ROOT
ATOM      1  C   UNL     1       2.619   4.242  18.013  0.00  0.00    +0.000 A 
ATOM      2  N   UNL     1       3.430   3.767  17.009  0.00  0.00    +0.000 NA
ATOM      3  C   UNL     1       4.504   4.521  17.029  0.00  0.00    +0.000 A 
ATOM      4  C   UNL     1       5.665   4.498  16.209  0.00  0.00    +0.000 A 
ATOM      5  C   UNL     1       6.616   5.437  16.371  0.00  0.00    +0.000 A 
ATOM      6  C   UNL     1       6.482   6.483  17.375  0.00  0.00    +0.000 A 
ATOM      7 BR   UNL     1       7.816   7.776  17.485  0.00  0.00    +0.000 Br
ATOM      8  C   UNL     1       5.401   6.487  18.173  0.00  0.00    +0.000 A 
ATOM      9  N   UNL     1       4.423   5.504  18.010  0.00  0.00    +0.000 N 
ATOM     10  C   UNL     1       3.222   5.304  18.675  0.00  0.00    +0.000 A 
ENDROOT
BRANCH   1  11
ATOM     11  C   UNL     1       1.274   3.624  18.202  0.00  0.00    +0.000 C 
BRANCH  11  13
ATOM     12  C   UNL     1       1.239   2.889  20.618  0.00  0.00    +0.000 C 
ATOM     13  C   UNL     1       1.320   2.440  19.169  0.00  0.00    +0.000 C 
ENDBRANCH  11  13
ENDBRANCH   1  11
BRANCH  10  14
ATOM     14  C   UNL     1       2.749   6.160  19.819  0.00  0.00    +0.000 C 
BRANCH  14  15
ATOM     15  C   UNL     1       2.106   7.490  19.453  0.00  0.00    +0.000 A 
ATOM     16  C   UNL     1       2.076   7.877  18.087  0.00  0.00    +0.000 A 
ATOM     17  C   UNL     1       1.558   9.100  17.662  0.00  0.00    +0.000 A 
ATOM     18  C   UNL     1       1.022   9.972  18.589  0.00  0.00    +0.000 A 
ATOM     19  C   UNL     1       0.999   9.604  19.929  0.00  0.00    +0.000 A 
ATOM     20  C   UNL     1       1.527   8.377  20.382  0.00  0.00    +0.000 A 
BRANCH  20  21
ATOM     21  O   UNL     1       1.364   8.283  21.736  0.00  0.00    +0.000 OA
ATOM     22  C   UNL     1       0.619   9.216  22.488  0.00  0.00    +0.000 C 
ENDBRANCH  20  21
ENDBRANCH  14  15
ENDBRANCH  10  14
TORSDOF 5
ENDMDL
MODEL 2
REMARK VINA RESULT:      -7.3      2.992      5.003
REMARK  Name = 
REMARK  7 active torsions:
REMARK  status: ('A' for Active; 'I' for Inactive)
REMARK    1  A    between atoms: C_1  and  C_2
REMARK    2  A    between atoms: C_2  and  C_3
REMARK    3  A    between atoms: C_3  and  C_4
REMARK    4  A    between atoms: C_13  and  C_14
REMARK    5  A    between atoms: C_14  and  C_15
REMARK    6  A    between atoms: C_20  and  O_21
REMARK    7  A    between atoms: O_21  and  C_22
REMARK                            x       y       z     vdW  Elec       q    Type
REMARK                         _______ _______ _______ _____ _____    ______ ____
ROOT
ATOM      1  C   UNL     1       6.771   4.773  16.803  0.00  0.00    +0.000 A 
ATOM      2  N   UNL     1       7.668   5.026  15.792  0.00  0.00    +0.000 NA
ATOM      3  C   UNL     1       7.055   4.701  14.679  0.00  0.00    +0.000 A 
ATOM      4  C   UNL     1       7.505   4.739  13.331  0.00  0.00    +0.000 A 
ATOM      5  C   UNL     1       6.711   4.273  12.347  0.00  0.00    +0.000 A 
ATOM      6  C   UNL     1       5.392   3.726  12.636  0.00  0.00    +0.000 A 
ATOM      7 BR   UNL     1       4.391   3.045  11.222  0.00  0.00    +0.000 Br
ATOM      8  C   UNL     1       4.953   3.719  13.906  0.00  0.00    +0.000 A 
ATOM      9  N   UNL     1       5.774   4.215  14.920  0.00  0.00    +0.000 N 
ATOM     10  C   UNL     1       5.570   4.296  16.290  0.00  0.00    +0.000 A 
ENDROOT
BRANCH   1  11
ATOM     11  C   UNL     1       7.202   4.984  18.215  0.00  0.00    +0.000 C 
BRANCH  11  13
ATOM     12  C   UNL     1       7.083   7.432  17.603  0.00  0.00    +0.000 C 
ATOM     13  C   UNL     1       7.799   6.377  18.429  0.00  0.00    +0.000 C 
ENDBRANCH  11  13
ENDBRANCH   1  11
BRANCH  10  14
ATOM     14  C   UNL     1       4.298   3.869  16.972  0.00  0.00    +0.000 C 
BRANCH  14  15
ATOM     15  C   UNL     1       3.624   4.904  17.861  0.00  0.00    +0.000 A 
ATOM     16  C   UNL     1       3.566   6.250  17.413  0.00  0.00    +0.000 A 
ATOM     17  C   UNL     1       3.017   7.277  18.181  0.00  0.00    +0.000 A 
ATOM     18  C   UNL     1       2.479   6.988  19.420  0.00  0.00    +0.000 A 
ATOM     19  C   UNL     1       2.484   5.672  19.869  0.00  0.00    +0.000 A 
ATOM     20  C   UNL     1       3.043   4.620  19.113  0.00  0.00    +0.000 A 
BRANCH  20  21
ATOM     21  O   UNL     1       2.902   3.445  19.796  0.00  0.00    +0.000 OA
ATOM     22  C   UNL     1       2.359   3.370  21.095  0.00  0.00    +0.000 C 
ENDBRANCH  20  21
ENDBRANCH  14  15
ENDBRANCH  10  14
TORSDOF 5
ENDMDL
MODEL 3
REMARK VINA RESULT:      -7.2      3.261      5.374
REMARK  Name = 
REMARK  7 active torsions:
REMARK  status: ('A' for Active; 'I' for Inactive)
REMARK    1  A    between atoms: C_1  and  C_2
REMARK    2  A    between atoms: C_2  and  C_3
REMARK    3  A    between atoms: C_3  and  C_4
REMARK    4  A    between atoms: C_13  and  C_14
REMARK    5  A    between atoms: C_14  and  C_15
REMARK    6  A    between atoms: C_20  and  O_21
REMARK    7  A    between atoms: O_21  and  C_22
REMARK                            x       y       z     vdW  Elec       q    Type
REMARK                         _______ _______ _______ _____ _____    ______ ____
ROOT
ATOM      1  C   UNL     1       7.167   4.558  16.514  0.00  0.00    +0.000 A 
ATOM      2  N   UNL     1       7.937   4.933  15.439  0.00  0.00    +0.000 NA
ATOM      3  C   UNL     1       7.224   4.655  14.373  0.00  0.00    +0.000 A 
ATOM      4  C   UNL     1       7.523   4.815  12.992  0.00  0.00    +0.000 A 
ATOM      5  C   UNL     1       6.651   4.377  12.064  0.00  0.00    +0.000 A 
ATOM      6  C   UNL     1       5.399   3.737  12.446  0.00  0.00    +0.000 A 
ATOM      7 BR   UNL     1       4.285   3.106  11.095  0.00  0.00    +0.000 Br
ATOM      8  C   UNL     1       5.100   3.615  13.750  0.00  0.00    +0.000 A 
ATOM      9  N   UNL     1       6.001   4.082  14.708  0.00  0.00    +0.000 N 
ATOM     10  C   UNL     1       5.943   4.052  16.094  0.00  0.00    +0.000 A 
ENDROOT
BRANCH   1  11
ATOM     11  C   UNL     1       7.739   4.691  17.886  0.00  0.00    +0.000 C 
BRANCH  11  13
ATOM     12  C   UNL     1       7.582   7.198  17.616  0.00  0.00    +0.000 C 
ATOM     13  C   UNL     1       7.348   6.016  18.542  0.00  0.00    +0.000 C 
ENDBRANCH  11  13
ENDBRANCH   1  11
BRANCH  10  14
ATOM     14  C   UNL     1       4.774   3.507  16.870  0.00  0.00    +0.000 C 
BRANCH  14  15
ATOM     15  C   UNL     1       3.756   4.523  17.367  0.00  0.00    +0.000 A 
ATOM     16  C   UNL     1       4.135   5.889  17.432  0.00  0.00    +0.000 A 
ATOM     17  C   UNL     1       3.290   6.883  17.925  0.00  0.00    +0.000 A 
ATOM     18  C   UNL     1       2.018   6.548  18.347  0.00  0.00    +0.000 A 
ATOM     19  C   UNL     1       1.603   5.224  18.257  0.00  0.00    +0.000 A 
ATOM     20  C   UNL     1       2.445   4.202  17.772  0.00  0.00    +0.000 A 
BRANCH  20  21
ATOM     21  O   UNL     1       1.774   3.012  17.793  0.00  0.00    +0.000 OA
ATOM     22  C   UNL     1       0.881   2.650  18.822  0.00  0.00    +0.000 C 
ENDBRANCH  20  21
ENDBRANCH  14  15
ENDBRANCH  10  14
TORSDOF 5
ENDMDL
MODEL 4
REMARK VINA RESULT:      -7.1      2.854      5.878
REMARK  Name = 
REMARK  7 active torsions:
REMARK  status: ('A' for Active; 'I' for Inactive)
REMARK    1  A    between atoms: C_1  and  C_2
REMARK    2  A    between atoms: C_2  and  C_3
REMARK    3  A    between atoms: C_3  and  C_4
REMARK    4  A    between atoms: C_13  and  C_14
REMARK    5  A    between atoms: C_14  and  C_15
REMARK    6  A    between atoms: C_20  and  O_21
REMARK    7  A    between atoms: O_21  and  C_22
REMARK                            x       y       z     vdW  Elec       q    Type
REMARK                         _______ _______ _______ _____ _____    ______ ____
ROOT
ATOM      1  C   UNL     1       2.514   4.616  20.052  0.00  0.00    +0.000 A 
ATOM      2  N   UNL     1       1.833   5.332  21.008  0.00  0.00    +0.000 NA
ATOM      3  C   UNL     1       1.673   6.535  20.508  0.00  0.00    +0.000 A 
ATOM      4  C   UNL     1       1.055   7.690  21.060  0.00  0.00    +0.000 A 
ATOM      5  C   UNL     1       1.082   8.852  20.379  0.00  0.00    +0.000 A 
ATOM      6  C   UNL     1       1.736   8.953  19.081  0.00  0.00    +0.000 A 
ATOM      7 BR   UNL     1       1.781  10.613  18.242  0.00  0.00    +0.000 Br
ATOM      8  C   UNL     1       2.292   7.853  18.544  0.00  0.00    +0.000 A 
ATOM      9  N   UNL     1       2.249   6.648  19.247  0.00  0.00    +0.000 N 
ATOM     10  C   UNL     1       2.762   5.398  18.931  0.00  0.00    +0.000 A 
ENDROOT
BRANCH   1  11
ATOM     11  C   UNL     1       2.909   3.209  20.356  0.00  0.00    +0.000 C 
BRANCH  11  13
ATOM     12  C   UNL     1       3.431   1.580  18.497  0.00  0.00    +0.000 C 
ATOM     13  C   UNL     1       2.339   2.223  19.336  0.00  0.00    +0.000 C 
ENDBRANCH  11  13
ENDBRANCH   1  11
BRANCH  10  14
ATOM     14  C   UNL     1       3.471   5.088  17.640  0.00  0.00    +0.000 C 
BRANCH  14  15
ATOM     15  C   UNL     1       4.989   4.993  17.705  0.00  0.00    +0.000 A 
ATOM     16  C   UNL     1       5.651   5.467  18.868  0.00  0.00    +0.000 A 
ATOM     17  C   UNL     1       7.039   5.470  18.996  0.00  0.00    +0.000 A 
ATOM     18  C   UNL     1       7.820   4.971  17.971  0.00  0.00    +0.000 A 
ATOM     19  C   UNL     1       7.199   4.462  16.836  0.00  0.00    +0.000 A 
ATOM     20  C   UNL     1       5.797   4.458  16.682  0.00  0.00    +0.000 A 
BRANCH  20  21
ATOM     21  O   UNL     1       5.473   3.896  15.479  0.00  0.00    +0.000 OA
ATOM     22  C   UNL     1       6.242   4.082  14.311  0.00  0.00    +0.000 C 
ENDBRANCH  20  21
ENDBRANCH  14  15
ENDBRANCH  10  14
TORSDOF 5
ENDMDL
MODEL 5
REMARK VINA RESULT:      -7.1      3.093      6.222
REMARK  Name = 
REMARK  7 active torsions:
REMARK  status: ('A' for Active; 'I' for Inactive)
REMARK    1  A    between atoms: C_1  and  C_2
REMARK    2  A    between atoms: C_2  and  C_3
REMARK    3  A    between atoms: C_3  and  C_4
REMARK    4  A    between atoms: C_13  and  C_14
REMARK    5  A    between atoms: C_14  and  C_15
REMARK    6  A    between atoms: C_20  and  O_21
REMARK    7  A    between atoms: O_21  and  C_22
REMARK                            x       y       z     vdW  Elec       q    Type
REMARK                         _______ _______ _______ _____ _____    ______ ____
ROOT
ATOM      1  C   UNL     1       2.815   7.044  18.281  0.00  0.00    +0.000 A 
ATOM      2  N   UNL     1       2.368   8.284  17.892  0.00  0.00    +0.000 NA
ATOM      3  C   UNL     1       1.764   8.793  18.939  0.00  0.00    +0.000 A 
ATOM      4  C   UNL     1       1.100  10.039  19.110  0.00  0.00    +0.000 A 
ATOM      5  C   UNL     1       0.478  10.311  20.273  0.00  0.00    +0.000 A 
ATOM      6  C   UNL     1       0.468   9.350  21.368  0.00  0.00    +0.000 A 
ATOM      7 BR   UNL     1      -0.471   9.785  22.914  0.00  0.00    +0.000 Br
ATOM      8  C   UNL     1       1.123   8.186  21.220  0.00  0.00    +0.000 A 
ATOM      9  N   UNL     1       1.778   7.914  20.017  0.00  0.00    +0.000 N 
ATOM     10  C   UNL     1       2.490   6.796  19.609  0.00  0.00    +0.000 A 
ENDROOT
BRANCH   1  11
ATOM     11  C   UNL     1       3.495   6.178  17.274  0.00  0.00    +0.000 C 
BRANCH  11  13
ATOM     12  C   UNL     1       5.388   5.999  15.611  0.00  0.00    +0.000 C 
ATOM     13  C   UNL     1       4.735   6.852  16.685  0.00  0.00    +0.000 C 
ENDBRANCH  11  13
ENDBRANCH   1  11
BRANCH  10  14
ATOM     14  C   UNL     1       2.742   5.599  20.487  0.00  0.00    +0.000 C 
BRANCH  14  15
ATOM     15  C   UNL     1       2.494   4.234  19.862  0.00  0.00    +0.000 A 
ATOM     16  C   UNL     1       1.162   3.868  19.534  0.00  0.00    +0.000 A 
ATOM     17  C   UNL     1       0.831   2.620  19.009  0.00  0.00    +0.000 A 
ATOM     18  C   UNL     1       1.829   1.696  18.765  0.00  0.00    +0.000 A 
ATOM     19  C   UNL     1       3.149   2.040  19.038  0.00  0.00    +0.000 A 
ATOM     20  C   UNL     1       3.505   3.293  19.578  0.00  0.00    +0.000 A 
BRANCH  20  21
ATOM     21  O   UNL     1       4.860   3.352  19.735  0.00  0.00    +0.000 OA
ATOM     22  C   UNL     1       5.683   4.229  18.998  0.00  0.00    +0.000 C 
ENDBRANCH  20  21
ENDBRANCH  14  15
ENDBRANCH  10  14
TORSDOF 5
ENDMDL
MODEL 6
REMARK VINA RESULT:      -6.9      3.401      5.423
REMARK  Name = 
REMARK  7 active torsions:
REMARK  status: ('A' for Active; 'I' for Inactive)
REMARK    1  A    between atoms: C_1  and  C_2
REMARK    2  A    between atoms: C_2  and  C_3
REMARK    3  A    between atoms: C_3  and  C_4
REMARK    4  A    between atoms: C_13  and  C_14
REMARK    5  A    between atoms: C_14  and  C_15
REMARK    6  A    between atoms: C_20  and  O_21
REMARK    7  A    between atoms: O_21  and  C_22
REMARK                            x       y       z     vdW  Elec       q    Type
REMARK                         _______ _______ _______ _____ _____    ______ ____
ROOT
ATOM      1  C   UNL     1       6.832   5.514  16.229  0.00  0.00    +0.000 A 
ATOM      2  N   UNL     1       7.654   5.858  15.182  0.00  0.00    +0.000 NA
ATOM      3  C   UNL     1       7.245   5.149  14.157  0.00  0.00    +0.000 A 
ATOM      4  C   UNL     1       7.733   5.084  12.823  0.00  0.00    +0.000 A 
ATOM      5  C   UNL     1       7.192   4.208  11.955  0.00  0.00    +0.000 A 
ATOM      6  C   UNL     1       6.109   3.318  12.354  0.00  0.00    +0.000 A 
ATOM      7 BR   UNL     1       5.466   2.096  11.106  0.00  0.00    +0.000 Br
ATOM      8  C   UNL     1       5.624   3.402  13.605  0.00  0.00    +0.000 A 
ATOM      9  N   UNL     1       6.180   4.320  14.497  0.00  0.00    +0.000 N 
ATOM     10  C   UNL     1       5.884   4.581  15.827  0.00  0.00    +0.000 A 
ENDROOT
BRANCH   1  11
ATOM     11  C   UNL     1       7.091   6.114  17.571  0.00  0.00    +0.000 C 
BRANCH  11  13
ATOM     12  C   UNL     1       7.984   5.714  19.899  0.00  0.00    +0.000 C 
ATOM     13  C   UNL     1       7.787   5.129  18.511  0.00  0.00    +0.000 C 
ENDBRANCH  11  13
ENDBRANCH   1  11
BRANCH  10  14
ATOM     14  C   UNL     1       4.784   3.891  16.589  0.00  0.00    +0.000 C 
BRANCH  14  15
ATOM     15  C   UNL     1       4.107   4.701  17.686  0.00  0.00    +0.000 A 
ATOM     16  C   UNL     1       3.305   5.812  17.314  0.00  0.00    +0.000 A 
ATOM     17  C   UNL     1       2.690   6.643  18.250  0.00  0.00    +0.000 A 
ATOM     18  C   UNL     1       2.833   6.376  19.598  0.00  0.00    +0.000 A 
ATOM     19  C   UNL     1       3.579   5.271  19.992  0.00  0.00    +0.000 A 
ATOM     20  C   UNL     1       4.217   4.422  19.063  0.00  0.00    +0.000 A 
BRANCH  20  21
ATOM     21  O   UNL     1       4.868   3.424  19.732  0.00  0.00    +0.000 OA
ATOM     22  C   UNL     1       4.268   2.185  20.038  0.00  0.00    +0.000 C 
ENDBRANCH  20  21
ENDBRANCH  14  15
ENDBRANCH  10  14
TORSDOF 5
ENDMDL
MODEL 7
REMARK VINA RESULT:      -6.8      2.860      5.976
REMARK  Name = 
REMARK  7 active torsions:
REMARK  status: ('A' for Active; 'I' for Inactive)
REMARK    1  A    between atoms: C_1  and  C_2
REMARK    2  A    between atoms: C_2  and  C_3
REMARK    3  A    between atoms: C_3  and  C_4
REMARK    4  A    between atoms: C_13  and  C_14
REMARK    5  A    between atoms: C_14  and  C_15
REMARK    6  A    between atoms: C_20  and  O_21
REMARK    7  A    between atoms: O_21  and  C_22
REMARK                            x       y       z     vdW  Elec       q    Type
REMARK                         _______ _______ _______ _____ _____    ______ ____
ROOT
ATOM      1  C   UNL     1       3.978   6.930  17.399  0.00  0.00    +0.000 A 
ATOM      2  N   UNL     1       3.356   8.073  16.956  0.00  0.00    +0.000 NA
ATOM      3  C   UNL     1       2.578   8.461  17.938  0.00  0.00    +0.000 A 
ATOM      4  C   UNL     1       1.691   9.569  18.033  0.00  0.00    +0.000 A 
ATOM      5  C   UNL     1       0.926   9.721  19.131  0.00  0.00    +0.000 A 
ATOM      6  C   UNL     1       0.986   8.768  20.232  0.00  0.00    +0.000 A 
ATOM      7 BR   UNL     1      -0.154   9.023  21.680  0.00  0.00    +0.000 Br
ATOM      8  C   UNL     1       1.848   7.739  20.157  0.00  0.00    +0.000 A 
ATOM      9  N   UNL     1       2.648   7.594  19.023  0.00  0.00    +0.000 N 
ATOM     10  C   UNL     1       3.582   6.622  18.695  0.00  0.00    +0.000 A 
ENDROOT
BRANCH   1  11
ATOM     11  C   UNL     1       4.891   6.203  16.468  0.00  0.00    +0.000 C 
BRANCH  11  13
ATOM     12  C   UNL     1       6.970   7.378  17.291  0.00  0.00    +0.000 C 
ATOM     13  C   UNL     1       6.293   6.039  17.056  0.00  0.00    +0.000 C 
ENDBRANCH  11  13
ENDBRANCH   1  11
BRANCH  10  14
ATOM     14  C   UNL     1       3.960   5.485  19.606  0.00  0.00    +0.000 C 
BRANCH  14  15
ATOM     15  C   UNL     1       2.925   4.384  19.785  0.00  0.00    +0.000 A 
ATOM     16  C   UNL     1       2.305   4.234  21.053  0.00  0.00    +0.000 A 
ATOM     17  C   UNL     1       1.387   3.221  21.328  0.00  0.00    +0.000 A 
ATOM     18  C   UNL     1       1.031   2.335  20.329  0.00  0.00    +0.000 A 
ATOM     19  C   UNL     1       1.590   2.482  19.065  0.00  0.00    +0.000 A 
ATOM     20  C   UNL     1       2.528   3.492  18.768  0.00  0.00    +0.000 A 
BRANCH  20  21
ATOM     21  O   UNL     1       2.898   3.398  17.457  0.00  0.00    +0.000 OA
ATOM     22  C   UNL     1       4.110   2.812  17.038  0.00  0.00    +0.000 C 
ENDBRANCH  20  21
ENDBRANCH  14  15
ENDBRANCH  10  14
TORSDOF 5
ENDMDL
MODEL 8
REMARK VINA RESULT:      -6.7      3.050      6.158
REMARK  Name = 
REMARK  7 active torsions:
REMARK  status: ('A' for Active; 'I' for Inactive)
REMARK    1  A    between atoms: C_1  and  C_2
REMARK    2  A    between atoms: C_2  and  C_3
REMARK    3  A    between atoms: C_3  and  C_4
REMARK    4  A    between atoms: C_13  and  C_14
REMARK    5  A    between atoms: C_14  and  C_15
REMARK    6  A    between atoms: C_20  and  O_21
REMARK    7  A    between atoms: O_21  and  C_22
REMARK                            x       y       z     vdW  Elec       q    Type
REMARK                         _______ _______ _______ _____ _____    ______ ____
ROOT
ATOM      1  C   UNL     1       3.376   7.007  17.930  0.00  0.00    +0.000 A 
ATOM      2  N   UNL     1       2.851   8.222  17.560  0.00  0.00    +0.000 NA
ATOM      3  C   UNL     1       2.139   8.633  18.582  0.00  0.00    +0.000 A 
ATOM      4  C   UNL     1       1.362   9.811  18.755  0.00  0.00    +0.000 A 
ATOM      5  C   UNL     1       0.643   9.979  19.882  0.00  0.00    +0.000 A 
ATOM      6  C   UNL     1       0.644   8.973  20.936  0.00  0.00    +0.000 A 
ATOM      7 BR   UNL     1      -0.428   9.260  22.429  0.00  0.00    +0.000 Br
ATOM      8  C   UNL     1       1.404   7.874  20.788  0.00  0.00    +0.000 A 
ATOM      9  N   UNL     1       2.157   7.711  19.624  0.00  0.00    +0.000 N 
ATOM     10  C   UNL     1       2.987   6.674  19.222  0.00  0.00    +0.000 A 
ENDROOT
BRANCH   1  11
ATOM     11  C   UNL     1       4.192   6.246  16.940  0.00  0.00    +0.000 C 
BRANCH  11  13
ATOM     12  C   UNL     1       6.549   7.069  17.322  0.00  0.00    +0.000 C 
ATOM     13  C   UNL     1       5.581   5.909  17.483  0.00  0.00    +0.000 C 
ENDBRANCH  11  13
ENDBRANCH   1  11
BRANCH  10  14
ATOM     14  C   UNL     1       3.282   5.465  20.068  0.00  0.00    +0.000 C 
BRANCH  14  15
ATOM     15  C   UNL     1       2.736   4.135  19.567  0.00  0.00    +0.000 A 
ATOM     16  C   UNL     1       1.400   4.086  19.090  0.00  0.00    +0.000 A 
ATOM     17  C   UNL     1       0.796   2.904  18.662  0.00  0.00    +0.000 A 
ATOM     18  C   UNL     1       1.520   1.727  18.670  0.00  0.00    +0.000 A 
ATOM     19  C   UNL     1       2.844   1.751  19.093  0.00  0.00    +0.000 A 
ATOM     20  C   UNL     1       3.471   2.933  19.539  0.00  0.00    +0.000 A 
BRANCH  20  21
ATOM     21  O   UNL     1       4.764   2.659  19.885  0.00  0.00    +0.000 OA
ATOM     22  C   UNL     1       5.129   1.565  20.696  0.00  0.00    +0.000 C 
ENDBRANCH  20  21
ENDBRANCH  14  15
ENDBRANCH  10  14
TORSDOF 5
ENDMDL
MODEL 9
REMARK VINA RESULT:      -6.7      2.763      5.914
REMARK  Name = 
REMARK  7 active torsions:
REMARK  status: ('A' for Active; 'I' for Inactive)
REMARK    1  A    between atoms: C_1  and  C_2
REMARK    2  A    between atoms: C_2  and  C_3
REMARK    3  A    between atoms: C_3  and  C_4
REMARK    4  A    between atoms: C_13  and  C_14
REMARK    5  A    between atoms: C_14  and  C_15
REMARK    6  A    between atoms: C_20  and  O_21
REMARK    7  A    between atoms: O_21  and  C_22
REMARK                            x       y       z     vdW  Elec       q    Type
REMARK                         _______ _______ _______ _____ _____    ______ ____
ROOT
ATOM      1  C   UNL     1       3.635   7.280  17.562  0.00  0.00    +0.000 A 
ATOM      2  N   UNL     1       2.935   8.423  17.256  0.00  0.00    +0.000 NA
ATOM      3  C   UNL     1       2.195   8.683  18.308  0.00  0.00    +0.000 A 
ATOM      4  C   UNL     1       1.263   9.730  18.547  0.00  0.00    +0.000 A 
ATOM      5  C   UNL     1       0.555   9.745  19.692  0.00  0.00    +0.000 A 
ATOM      6  C   UNL     1       0.723   8.705  20.699  0.00  0.00    +0.000 A 
ATOM      7 BR   UNL     1      -0.345   8.772  22.222  0.00  0.00    +0.000 Br
ATOM      8  C   UNL     1       1.627   7.734  20.489  0.00  0.00    +0.000 A 
ATOM      9  N   UNL     1       2.368   7.729  19.306  0.00  0.00    +0.000 N 
ATOM     10  C   UNL     1       3.328   6.840  18.844  0.00  0.00    +0.000 A 
ENDROOT
BRANCH   1  11
ATOM     11  C   UNL     1       4.528   6.686  16.524  0.00  0.00    +0.000 C 
BRANCH  11  13
ATOM     12  C   UNL     1       6.799   5.589  16.388  0.00  0.00    +0.000 C 
ATOM     13  C   UNL     1       6.002   6.764  16.926  0.00  0.00    +0.000 C 
ENDBRANCH  11  13
ENDBRANCH   1  11
BRANCH  10  14
ATOM     14  C   UNL     1       3.811   5.651  19.629  0.00  0.00    +0.000 C 
BRANCH  14  15
ATOM     15  C   UNL     1       3.369   4.282  19.130  0.00  0.00    +0.000 A 
ATOM     16  C   UNL     1       4.042   3.715  18.015  0.00  0.00    +0.000 A 
ATOM     17  C   UNL     1       3.672   2.493  17.454  0.00  0.00    +0.000 A 
ATOM     18  C   UNL     1       2.629   1.777  18.009  0.00  0.00    +0.000 A 
ATOM     19  C   UNL     1       1.978   2.286  19.126  0.00  0.00    +0.000 A 
ATOM     20  C   UNL     1       2.328   3.525  19.703  0.00  0.00    +0.000 A 
BRANCH  20  21
ATOM     21  O   UNL     1       1.528   3.766  20.783  0.00  0.00    +0.000 OA
ATOM     22  C   UNL     1       1.294   2.812  21.796  0.00  0.00    +0.000 C 
ENDBRANCH  20  21
ENDBRANCH  14  15
ENDBRANCH  10  14
TORSDOF 5
ENDMDL
