MODEL 1
REMARK VINA RESULT:      -7.5      0.000      0.000
REMARK  Name = 
REMARK  7 active torsions:
REMARK  status: ('A' for Active; 'I' for Inactive)
REMARK    1  A    between atoms: C_1  and  C_2
REMARK    2  A    between atoms: C_7  and  C_8
REMARK    3  A    between atoms: C_7  and  C_9
REMARK    4  A    between atoms: C_9  and  C_10
REMARK    5  A    between atoms: C_10  and  C_11
REMARK    6  A    between atoms: C_16  and  C_17
REMARK    7  A    between atoms: C_20  and  C_21
REMARK                            x       y       z     vdW  Elec       q    Type
REMARK                         _______ _______ _______ _____ _____    ______ ____
ROOT
ATOM      1  C   UNL     1       1.095   3.339  20.911  0.00  0.00    +0.000 C 
ATOM      2  C   UNL     1       1.548   3.515  19.465  0.00  0.00    +0.000 C 
ATOM      3  C   UNL     1       1.339   2.414  18.718  0.00  0.00    +0.000 C 
ATOM      4  C   UNL     1       2.110   2.039  17.498  0.00  0.00    +0.000 C 
ATOM      5  C   UNL     1       3.554   2.525  17.649  0.00  0.00    +0.000 C 
ATOM      6  C   UNL     1       3.518   4.046  17.857  0.00  0.00    +0.000 C 
ATOM      7  C   UNL     1       4.853   4.826  17.646  0.00  0.00    +0.000 C 
ATOM      8  C   UNL     1       5.530   4.793  19.040  0.00  0.00    +0.000 C 
ATOM      9  C   UNL     1       4.180   6.183  17.022  0.00  0.00    +0.000 C 
ATOM     10  C   UNL     1       4.851   6.992  15.922  0.00  0.00    +0.000 C 
ATOM     11  C   UNL     1       3.334   6.947  18.052  0.00  0.00    +0.000 C 
ATOM     12  C   UNL     1       2.089   6.061  18.459  0.00  0.00    +0.000 C 
ATOM     13  C   UNL     1       2.555   4.656  19.070  0.00  0.00    +0.000 C 
ATOM     14  C   UNL     1       3.077   5.206  20.460  0.00  0.00    +0.000 C 
ENDROOT
BRANCH   7  15
ATOM     15  C   UNL     1       6.006   4.461  16.640  0.00  0.00    +0.000 C 
BRANCH  15  16
ATOM     16  C   UNL     1       5.904   3.442  15.474  0.00  0.00    +0.000 C 
BRANCH  16  17
ATOM     17  C   UNL     1       6.554   4.002  14.215  0.00  0.00    +0.000 C 
ATOM     18  C   UNL     1       7.447   5.009  14.102  0.00  0.00    +0.000 C 
ATOM     19  C   UNL     1       7.761   5.245  12.683  0.00  0.00    +0.000 C 
ATOM     20  O   UNL     1       6.895   4.376  11.944  0.00  0.00    +0.000 OA
ATOM     21  C   UNL     1       6.206   3.521  12.863  0.00  0.00    +0.000 C 
ENDBRANCH  16  17
ENDBRANCH  15  16
ENDBRANCH   7  15
TORSDOF 3
ENDMDL
MODEL 2
REMARK VINA RESULT:      -7.3      1.528      2.424
REMARK  Name = 
REMARK  7 active torsions:
REMARK  status: ('A' for Active; 'I' for Inactive)
REMARK    1  A    between atoms: C_1  and  C_2
REMARK    2  A    between atoms: C_7  and  C_8
REMARK    3  A    between atoms: C_7  and  C_9
REMARK    4  A    between atoms: C_9  and  C_10
REMARK    5  A    between atoms: C_10  and  C_11
REMARK    6  A    between atoms: C_16  and  C_17
REMARK    7  A    between atoms: C_20  and  C_21
REMARK                            x       y       z     vdW  Elec       q    Type
REMARK                         _______ _______ _______ _____ _____    ______ ____
ROOT
ATOM      1  C   UNL     1       1.406   2.526  21.416  0.00  0.00    +0.000 C 
ATOM      2  C   UNL     1       1.216   3.428  20.200  0.00  0.00    +0.000 C 
ATOM      3  C   UNL     1       0.870   2.742  19.094  0.00  0.00    +0.000 C 
ATOM      4  C   UNL     1       1.131   3.176  17.692  0.00  0.00    +0.000 C 
ATOM      5  C   UNL     1       2.439   3.970  17.648  0.00  0.00    +0.000 C 
ATOM      6  C   UNL     1       2.292   5.167  18.599  0.00  0.00    +0.000 C 
ATOM      7  C   UNL     1       3.320   6.332  18.441  0.00  0.00    +0.000 C 
ATOM      8  C   UNL     1       4.495   5.921  19.364  0.00  0.00    +0.000 C 
ATOM      9  C   UNL     1       2.285   7.545  18.815  0.00  0.00    +0.000 C 
ATOM     10  C   UNL     1       2.350   8.907  18.140  0.00  0.00    +0.000 C 
ATOM     11  C   UNL     1       1.830   7.501  20.282  0.00  0.00    +0.000 C 
ATOM     12  C   UNL     1       0.977   6.189  20.519  0.00  0.00    +0.000 C 
ATOM     13  C   UNL     1       1.825   4.876  20.170  0.00  0.00    +0.000 C 
ATOM     14  C   UNL     1       2.783   4.918  21.430  0.00  0.00    +0.000 C 
ENDROOT
BRANCH   7  15
ATOM     15  C   UNL     1       4.011   6.801  17.109  0.00  0.00    +0.000 C 
BRANCH  15  16
ATOM     16  C   UNL     1       5.526   6.697  16.786  0.00  0.00    +0.000 C 
BRANCH  16  17
ATOM     17  C   UNL     1       5.806   5.475  15.920  0.00  0.00    +0.000 C 
ATOM     18  C   UNL     1       5.748   5.361  14.575  0.00  0.00    +0.000 C 
ATOM     19  C   UNL     1       6.047   3.975  14.176  0.00  0.00    +0.000 C 
ATOM     20  O   UNL     1       6.177   3.238  15.397  0.00  0.00    +0.000 OA
ATOM     21  C   UNL     1       6.133   4.155  16.496  0.00  0.00    +0.000 C 
ENDBRANCH  16  17
ENDBRANCH  15  16
ENDBRANCH   7  15
TORSDOF 3
ENDMDL
MODEL 3
REMARK VINA RESULT:      -7.0      2.604      3.267
REMARK  Name = 
REMARK  7 active torsions:
REMARK  status: ('A' for Active; 'I' for Inactive)
REMARK    1  A    between atoms: C_1  and  C_2
REMARK    2  A    between atoms: C_7  and  C_8
REMARK    3  A    between atoms: C_7  and  C_9
REMARK    4  A    between atoms: C_9  and  C_10
REMARK    5  A    between atoms: C_10  and  C_11
REMARK    6  A    between atoms: C_16  and  C_17
REMARK    7  A    between atoms: C_20  and  C_21
REMARK                            x       y       z     vdW  Elec       q    Type
REMARK                         _______ _______ _______ _____ _____    ______ ____
ROOT
ATOM      1  C   UNL     1       1.295   2.355  21.780  0.00  0.00    +0.000 C 
ATOM      2  C   UNL     1       1.237   3.085  20.441  0.00  0.00    +0.000 C 
ATOM      3  C   UNL     1       0.916   2.269  19.419  0.00  0.00    +0.000 C 
ATOM      4  C   UNL     1       1.289   2.487  17.992  0.00  0.00    +0.000 C 
ATOM      5  C   UNL     1       2.644   3.197  17.930  0.00  0.00    +0.000 C 
ATOM      6  C   UNL     1       2.514   4.521  18.695  0.00  0.00    +0.000 C 
ATOM      7  C   UNL     1       3.619   5.597  18.450  0.00  0.00    +0.000 C 
ATOM      8  C   UNL     1       4.708   5.259  19.500  0.00  0.00    +0.000 C 
ATOM      9  C   UNL     1       2.640   6.903  18.581  0.00  0.00    +0.000 C 
ATOM     10  C   UNL     1       2.830   8.151  17.732  0.00  0.00    +0.000 C 
ATOM     11  C   UNL     1       2.095   7.090  20.006  0.00  0.00    +0.000 C 
ATOM     12  C   UNL     1       1.149   5.873  20.361  0.00  0.00    +0.000 C 
ATOM     13  C   UNL     1       1.934   4.481  20.255  0.00  0.00    +0.000 C 
ATOM     14  C   UNL     1       2.815   4.648  21.560  0.00  0.00    +0.000 C 
ENDROOT
BRANCH   7  15
ATOM     15  C   UNL     1       4.418   5.836  17.117  0.00  0.00    +0.000 C 
BRANCH  15  16
ATOM     16  C   UNL     1       5.912   5.490  16.879  0.00  0.00    +0.000 C 
BRANCH  16  17
ATOM     17  C   UNL     1       6.813   6.566  17.473  0.00  0.00    +0.000 C 
ATOM     18  C   UNL     1       6.946   7.858  17.098  0.00  0.00    +0.000 C 
ATOM     19  C   UNL     1       7.974   8.516  17.922  0.00  0.00    +0.000 C 
ATOM     20  O   UNL     1       8.530   7.484  18.745  0.00  0.00    +0.000 OA
ATOM     21  C   UNL     1       7.767   6.287  18.564  0.00  0.00    +0.000 C 
ENDBRANCH  16  17
ENDBRANCH  15  16
ENDBRANCH   7  15
TORSDOF 3
ENDMDL
MODEL 4
REMARK VINA RESULT:      -6.9      2.540      3.106
REMARK  Name = 
REMARK  7 active torsions:
REMARK  status: ('A' for Active; 'I' for Inactive)
REMARK    1  A    between atoms: C_1  and  C_2
REMARK    2  A    between atoms: C_7  and  C_8
REMARK    3  A    between atoms: C_7  and  C_9
REMARK    4  A    between atoms: C_9  and  C_10
REMARK    5  A    between atoms: C_10  and  C_11
REMARK    6  A    between atoms: C_16  and  C_17
REMARK    7  A    between atoms: C_20  and  C_21
REMARK                            x       y       z     vdW  Elec       q    Type
REMARK                         _______ _______ _______ _____ _____    ______ ____
ROOT
ATOM      1  C   UNL     1       0.971   3.109  21.093  0.00  0.00    +0.000 C 
ATOM      2  C   UNL     1       1.499   3.275  19.671  0.00  0.00    +0.000 C 
ATOM      3  C   UNL     1       1.500   2.120  18.979  0.00  0.00    +0.000 C 
ATOM      4  C   UNL     1       2.403   1.799  17.837  0.00  0.00    +0.000 C 
ATOM      5  C   UNL     1       3.750   2.493  18.052  0.00  0.00    +0.000 C 
ATOM      6  C   UNL     1       3.487   4.001  18.165  0.00  0.00    +0.000 C 
ATOM      7  C   UNL     1       4.713   4.954  17.995  0.00  0.00    +0.000 C 
ATOM      8  C   UNL     1       5.284   5.087  19.429  0.00  0.00    +0.000 C 
ATOM      9  C   UNL     1       3.904   6.167  17.249  0.00  0.00    +0.000 C 
ATOM     10  C   UNL     1       4.533   7.009  16.149  0.00  0.00    +0.000 C 
ATOM     11  C   UNL     1       2.887   6.853  18.174  0.00  0.00    +0.000 C 
ATOM     12  C   UNL     1       1.751   5.819  18.552  0.00  0.00    +0.000 C 
ATOM     13  C   UNL     1       2.363   4.527  19.275  0.00  0.00    +0.000 C 
ATOM     14  C   UNL     1       2.701   5.215  20.660  0.00  0.00    +0.000 C 
ENDROOT
BRANCH   7  15
ATOM     15  C   UNL     1       5.974   4.707  17.090  0.00  0.00    +0.000 C 
BRANCH  15  16
ATOM     16  C   UNL     1       7.453   4.913  17.516  0.00  0.00    +0.000 C 
BRANCH  16  17
ATOM     17  C   UNL     1       7.729   6.384  17.803  0.00  0.00    +0.000 C 
ATOM     18  C   UNL     1       7.504   7.455  17.011  0.00  0.00    +0.000 C 
ATOM     19  C   UNL     1       7.976   8.680  17.677  0.00  0.00    +0.000 C 
ATOM     20  O   UNL     1       8.609   8.245  18.886  0.00  0.00    +0.000 OA
ATOM     21  C   UNL     1       8.386   6.839  19.044  0.00  0.00    +0.000 C 
ENDBRANCH  16  17
ENDBRANCH  15  16
ENDBRANCH   7  15
TORSDOF 3
ENDMDL
MODEL 5
REMARK VINA RESULT:      -6.6      6.069      8.313
REMARK  Name = 
REMARK  7 active torsions:
REMARK  status: ('A' for Active; 'I' for Inactive)
REMARK    1  A    between atoms: C_1  and  C_2
REMARK    2  A    between atoms: C_7  and  C_8
REMARK    3  A    between atoms: C_7  and  C_9
REMARK    4  A    between atoms: C_9  and  C_10
REMARK    5  A    between atoms: C_10  and  C_11
REMARK    6  A    between atoms: C_16  and  C_17
REMARK    7  A    between atoms: C_20  and  C_21
REMARK                            x       y       z     vdW  Elec       q    Type
REMARK                         _______ _______ _______ _____ _____    ______ ____
ROOT
ATOM      1  C   UNL     1      -0.983  13.873  22.967  0.00  0.00    +0.000 C 
ATOM      2  C   UNL     1      -1.270  12.518  22.328  0.00  0.00    +0.000 C 
ATOM      3  C   UNL     1      -1.195  11.502  23.209  0.00  0.00    +0.000 C 
ATOM      4  C   UNL     1      -0.879  10.086  22.869  0.00  0.00    +0.000 C 
ATOM      5  C   UNL     1       0.083  10.059  21.678  0.00  0.00    +0.000 C 
ATOM      6  C   UNL     1      -0.597  10.789  20.511  0.00  0.00    +0.000 C 
ATOM      7  C   UNL     1      -0.002  10.562  19.085  0.00  0.00    +0.000 C 
ATOM      8  C   UNL     1       1.085  11.658  18.955  0.00  0.00    +0.000 C 
ATOM      9  C   UNL     1      -1.425  10.628  18.277  0.00  0.00    +0.000 C 
ATOM     10  C   UNL     1      -1.711   9.759  17.061  0.00  0.00    +0.000 C 
ATOM     11  C   UNL     1      -2.060  12.026  18.315  0.00  0.00    +0.000 C 
ATOM     12  C   UNL     1      -2.457  12.373  19.807  0.00  0.00    +0.000 C 
ATOM     13  C   UNL     1      -1.179  12.327  20.771  0.00  0.00    +0.000 C 
ATOM     14  C   UNL     1      -0.495  13.660  20.260  0.00  0.00    +0.000 C 
ENDROOT
BRANCH   7  15
ATOM     15  C   UNL     1       0.692   9.255  18.554  0.00  0.00    +0.000 C 
BRANCH  15  16
ATOM     16  C   UNL     1       2.031   9.190  17.772  0.00  0.00    +0.000 C 
BRANCH  16  17
ATOM     17  C   UNL     1       2.787   7.911  18.109  0.00  0.00    +0.000 C 
ATOM     18  C   UNL     1       3.794   7.321  17.429  0.00  0.00    +0.000 C 
ATOM     19  C   UNL     1       4.185   6.069  18.097  0.00  0.00    +0.000 C 
ATOM     20  O   UNL     1       3.253   5.894  19.170  0.00  0.00    +0.000 OA
ATOM     21  C   UNL     1       2.437   7.066  19.268  0.00  0.00    +0.000 C 
ENDBRANCH  16  17
ENDBRANCH  15  16
ENDBRANCH   7  15
TORSDOF 3
ENDMDL
MODEL 6
REMARK VINA RESULT:      -6.4      3.534      6.183
REMARK  Name = 
REMARK  7 active torsions:
REMARK  status: ('A' for Active; 'I' for Inactive)
REMARK    1  A    between atoms: C_1  and  C_2
REMARK    2  A    between atoms: C_7  and  C_8
REMARK    3  A    between atoms: C_7  and  C_9
REMARK    4  A    between atoms: C_9  and  C_10
REMARK    5  A    between atoms: C_10  and  C_11
REMARK    6  A    between atoms: C_16  and  C_17
REMARK    7  A    between atoms: C_20  and  C_21
REMARK                            x       y       z     vdW  Elec       q    Type
REMARK                         _______ _______ _______ _____ _____    ______ ____
ROOT
ATOM      1  C   UNL     1       1.176   1.506  19.308  0.00  0.00    +0.000 C 
ATOM      2  C   UNL     1       2.107   2.657  19.676  0.00  0.00    +0.000 C 
ATOM      3  C   UNL     1       2.035   2.986  20.979  0.00  0.00    +0.000 C 
ATOM      4  C   UNL     1       2.351   4.327  21.549  0.00  0.00    +0.000 C 
ATOM      5  C   UNL     1       1.982   5.406  20.528  0.00  0.00    +0.000 C 
ATOM      6  C   UNL     1       2.779   5.128  19.245  0.00  0.00    +0.000 C 
ATOM      7  C   UNL     1       2.882   6.288  18.204  0.00  0.00    +0.000 C 
ATOM      8  C   UNL     1       1.635   6.095  17.305  0.00  0.00    +0.000 C 
ATOM      9  C   UNL     1       4.401   5.947  17.695  0.00  0.00    +0.000 C 
ATOM     10  C   UNL     1       5.394   7.035  17.314  0.00  0.00    +0.000 C 
ATOM     11  C   UNL     1       4.482   4.613  16.937  0.00  0.00    +0.000 C 
ATOM     12  C   UNL     1       4.144   3.431  17.933  0.00  0.00    +0.000 C 
ATOM     13  C   UNL     1       2.684   3.610  18.568  0.00  0.00    +0.000 C 
ATOM     14  C   UNL     1       1.856   3.239  17.271  0.00  0.00    +0.000 C 
ENDROOT
BRANCH   7  15
ATOM     15  C   UNL     1       2.908   7.829  18.516  0.00  0.00    +0.000 C 
BRANCH  15  16
ATOM     16  C   UNL     1       2.014   8.907  17.845  0.00  0.00    +0.000 C 
BRANCH  16  17
ATOM     17  C   UNL     1       1.003   9.460  18.842  0.00  0.00    +0.000 C 
ATOM     18  C   UNL     1       0.919   9.238  20.172  0.00  0.00    +0.000 C 
ATOM     19  C   UNL     1      -0.252   9.938  20.725  0.00  0.00    +0.000 C 
ATOM     20  O   UNL     1      -0.933  10.505  19.599  0.00  0.00    +0.000 OA
ATOM     21  C   UNL     1      -0.129  10.313  18.430  0.00  0.00    +0.000 C 
ENDBRANCH  16  17
ENDBRANCH  15  16
ENDBRANCH   7  15
TORSDOF 3
ENDMDL
MODEL 7
REMARK VINA RESULT:      -6.3      2.461      3.203
REMARK  Name = 
REMARK  7 active torsions:
REMARK  status: ('A' for Active; 'I' for Inactive)
REMARK    1  A    between atoms: C_1  and  C_2
REMARK    2  A    between atoms: C_7  and  C_8
REMARK    3  A    between atoms: C_7  and  C_9
REMARK    4  A    between atoms: C_9  and  C_10
REMARK    5  A    between atoms: C_10  and  C_11
REMARK    6  A    between atoms: C_16  and  C_17
REMARK    7  A    between atoms: C_20  and  C_21
REMARK                            x       y       z     vdW  Elec       q    Type
REMARK                         _______ _______ _______ _____ _____    ______ ____
ROOT
ATOM      1  C   UNL     1       1.228   2.538  21.628  0.00  0.00    +0.000 C 
ATOM      2  C   UNL     1       1.105   3.360  20.349  0.00  0.00    +0.000 C 
ATOM      3  C   UNL     1       0.774   2.611  19.280  0.00  0.00    +0.000 C 
ATOM      4  C   UNL     1       1.092   2.942  17.862  0.00  0.00    +0.000 C 
ATOM      5  C   UNL     1       2.425   3.694  17.810  0.00  0.00    +0.000 C 
ATOM      6  C   UNL     1       2.284   4.956  18.673  0.00  0.00    +0.000 C 
ATOM      7  C   UNL     1       3.351   6.079  18.473  0.00  0.00    +0.000 C 
ATOM      8  C   UNL     1       4.483   5.698  19.461  0.00  0.00    +0.000 C 
ATOM      9  C   UNL     1       2.342   7.342  18.730  0.00  0.00    +0.000 C 
ATOM     10  C   UNL     1       2.469   8.653  17.968  0.00  0.00    +0.000 C 
ATOM     11  C   UNL     1       1.839   7.410  20.180  0.00  0.00    +0.000 C 
ATOM     12  C   UNL     1       0.939   6.142  20.475  0.00  0.00    +0.000 C 
ATOM     13  C   UNL     1       1.758   4.785  20.243  0.00  0.00    +0.000 C 
ATOM     14  C   UNL     1       2.676   4.885  21.529  0.00  0.00    +0.000 C 
ENDROOT
BRANCH   7  15
ATOM     15  C   UNL     1       4.098   6.436  17.137  0.00  0.00    +0.000 C 
BRANCH  15  16
ATOM     16  C   UNL     1       5.501   7.091  17.027  0.00  0.00    +0.000 C 
BRANCH  16  17
ATOM     17  C   UNL     1       6.588   6.099  17.421  0.00  0.00    +0.000 C 
ATOM     18  C   UNL     1       6.833   4.870  16.916  0.00  0.00    +0.000 C 
ATOM     19  C   UNL     1       7.953   4.244  17.638  0.00  0.00    +0.000 C 
ATOM     20  O   UNL     1       8.287   5.151  18.696  0.00  0.00    +0.000 OA
ATOM     21  C   UNL     1       7.529   6.354  18.530  0.00  0.00    +0.000 C 
ENDBRANCH  16  17
ENDBRANCH  15  16
ENDBRANCH   7  15
TORSDOF 3
ENDMDL
MODEL 8
REMARK VINA RESULT:      -6.1      5.646      7.770
REMARK  Name = 
REMARK  7 active torsions:
REMARK  status: ('A' for Active; 'I' for Inactive)
REMARK    1  A    between atoms: C_1  and  C_2
REMARK    2  A    between atoms: C_7  and  C_8
REMARK    3  A    between atoms: C_7  and  C_9
REMARK    4  A    between atoms: C_9  and  C_10
REMARK    5  A    between atoms: C_10  and  C_11
REMARK    6  A    between atoms: C_16  and  C_17
REMARK    7  A    between atoms: C_20  and  C_21
REMARK                            x       y       z     vdW  Elec       q    Type
REMARK                         _______ _______ _______ _____ _____    ______ ____
ROOT
ATOM      1  C   UNL     1      -4.293  12.338  19.695  0.00  0.00    +0.000 C 
ATOM      2  C   UNL     1      -3.204  11.999  18.682  0.00  0.00    +0.000 C 
ATOM      3  C   UNL     1      -3.677  11.331  17.613  0.00  0.00    +0.000 C 
ATOM      4  C   UNL     1      -2.885  10.406  16.753  0.00  0.00    +0.000 C 
ATOM      5  C   UNL     1      -1.828   9.706  17.611  0.00  0.00    +0.000 C 
ATOM      6  C   UNL     1      -0.946  10.791  18.246  0.00  0.00    +0.000 C 
ATOM      7  C   UNL     1       0.425  10.338  18.839  0.00  0.00    +0.000 C 
ATOM      8  C   UNL     1       0.090   9.950  20.302  0.00  0.00    +0.000 C 
ATOM      9  C   UNL     1       1.254  11.696  18.452  0.00  0.00    +0.000 C 
ATOM     10  C   UNL     1       2.713  11.665  18.022  0.00  0.00    +0.000 C 
ATOM     11  C   UNL     1       0.772  12.924  19.239  0.00  0.00    +0.000 C 
ATOM     12  C   UNL     1      -0.716  13.257  18.818  0.00  0.00    +0.000 C 
ATOM     13  C   UNL     1      -1.688  12.014  19.097  0.00  0.00    +0.000 C 
ATOM     14  C   UNL     1      -1.722  12.138  20.675  0.00  0.00    +0.000 C 
ENDROOT
BRANCH   7  15
ATOM     15  C   UNL     1       1.331   9.163  18.319  0.00  0.00    +0.000 C 
BRANCH  15  16
ATOM     16  C   UNL     1       1.925   8.020  19.186  0.00  0.00    +0.000 C 
BRANCH  16  17
ATOM     17  C   UNL     1       2.826   7.123  18.347  0.00  0.00    +0.000 C 
ATOM     18  C   UNL     1       3.830   7.476  17.515  0.00  0.00    +0.000 C 
ATOM     19  C   UNL     1       4.392   6.278  16.869  0.00  0.00    +0.000 C 
ATOM     20  O   UNL     1       3.567   5.186  17.293  0.00  0.00    +0.000 OA
ATOM     21  C   UNL     1       2.651   5.659  18.286  0.00  0.00    +0.000 C 
ENDBRANCH  16  17
ENDBRANCH  15  16
ENDBRANCH   7  15
TORSDOF 3
ENDMDL
MODEL 9
REMARK VINA RESULT:      -6.1      3.467      6.686
REMARK  Name = 
REMARK  7 active torsions:
REMARK  status: ('A' for Active; 'I' for Inactive)
REMARK    1  A    between atoms: C_1  and  C_2
REMARK    2  A    between atoms: C_7  and  C_8
REMARK    3  A    between atoms: C_7  and  C_9
REMARK    4  A    between atoms: C_9  and  C_10
REMARK    5  A    between atoms: C_10  and  C_11
REMARK    6  A    between atoms: C_16  and  C_17
REMARK    7  A    between atoms: C_20  and  C_21
REMARK                            x       y       z     vdW  Elec       q    Type
REMARK                         _______ _______ _______ _____ _____    ______ ____
ROOT
ATOM      1  C   UNL     1       8.037   4.365  17.748  0.00  0.00    +0.000 C 
ATOM      2  C   UNL     1       6.719   4.604  17.018  0.00  0.00    +0.000 C 
ATOM      3  C   UNL     1       6.870   5.337  15.899  0.00  0.00    +0.000 C 
ATOM      4  C   UNL     1       5.817   6.188  15.275  0.00  0.00    +0.000 C 
ATOM      5  C   UNL     1       4.917   6.758  16.374  0.00  0.00    +0.000 C 
ATOM      6  C   UNL     1       4.313   5.575  17.144  0.00  0.00    +0.000 C 
ATOM      7  C   UNL     1       3.073   5.870  18.046  0.00  0.00    +0.000 C 
ATOM      8  C   UNL     1       3.689   6.266  19.412  0.00  0.00    +0.000 C 
ATOM      9  C   UNL     1       2.317   4.439  17.798  0.00  0.00    +0.000 C 
ATOM     10  C   UNL     1       0.802   4.324  17.704  0.00  0.00    +0.000 C 
ATOM     11  C   UNL     1       3.083   3.255  18.408  0.00  0.00    +0.000 C 
ATOM     12  C   UNL     1       4.463   3.089  17.653  0.00  0.00    +0.000 C 
ATOM     13  C   UNL     1       5.345   4.422  17.759  0.00  0.00    +0.000 C 
ATOM     14  C   UNL     1       5.745   4.275  19.283  0.00  0.00    +0.000 C 
ENDROOT
BRANCH   7  15
ATOM     15  C   UNL     1       1.961   6.952  17.788  0.00  0.00    +0.000 C 
BRANCH  15  16
ATOM     16  C   UNL     1       2.168   8.491  17.807  0.00  0.00    +0.000 C 
BRANCH  16  17
ATOM     17  C   UNL     1       1.022   9.177  18.540  0.00  0.00    +0.000 C 
ATOM     18  C   UNL     1      -0.036   9.837  18.022  0.00  0.00    +0.000 C 
ATOM     19  C   UNL     1      -0.865  10.387  19.108  0.00  0.00    +0.000 C 
ATOM     20  O   UNL     1      -0.156  10.102  20.319  0.00  0.00    +0.000 OA
ATOM     21  C   UNL     1       0.965   9.267  20.012  0.00  0.00    +0.000 C 
ENDBRANCH  16  17
ENDBRANCH  15  16
ENDBRANCH   7  15
TORSDOF 3
ENDMDL
