MODEL 1
REMARK VINA RESULT:      -8.8      0.000      0.000
REMARK  Name = 
REMARK  5 active torsions:
REMARK  status: ('A' for Active; 'I' for Inactive)
REMARK    1  A    between atoms: N_2  and  C_4
REMARK    2  A    between atoms: C_9  and  S_10
REMARK    3  A    between atoms: S_10  and  N_13
REMARK    4  A    between atoms: N_13  and  C_14
REMARK    5  A    between atoms: C_17  and  C_18
REMARK                            x       y       z     vdW  Elec       q    Type
REMARK                         _______ _______ _______ _____ _____    ______ ____
ROOT
ATOM      1  C   UNL     1       2.605   5.729  19.256  0.00  0.00    +0.000 A 
ATOM      2  C   UNL     1       1.980   5.626  20.498  0.00  0.00    +0.000 A 
ATOM      3  C   UNL     1       1.369   6.756  21.064  0.00  0.00    +0.000 A 
ATOM      4  C   UNL     1       1.369   8.003  20.409  0.00  0.00    +0.000 A 
ATOM      5  C   UNL     1       1.977   8.057  19.139  0.00  0.00    +0.000 A 
ATOM      6  C   UNL     1       2.589   6.937  18.570  0.00  0.00    +0.000 A 
ENDROOT
BRANCH   4   7
ATOM      7  C   UNL     1       0.777   9.201  21.036  0.00  0.00    +0.000 A 
ATOM      8  C   UNL     1      -0.218   9.141  22.002  0.00  0.00    +0.000 A 
ATOM      9  C   UNL     1      -0.754  10.319  22.521  0.00  0.00    +0.000 A 
ATOM     10  C   UNL     1      -0.308  11.560  22.089  0.00  0.00    +0.000 A 
ATOM     11  N   UNL     1      -0.808  12.725  22.609  0.00  0.00    +0.000 N 
ATOM     12  C   UNL     1      -0.317  14.028  22.204  0.00  0.00    +0.000 C 
ATOM     13  C   UNL     1      -0.741  14.905  23.379  0.00  0.00    +0.000 C 
ATOM     14  C   UNL     1      -2.084  14.320  23.793  0.00  0.00    +0.000 C 
ATOM     15  C   UNL     1      -1.972  12.828  23.474  0.00  0.00    +0.000 C 
ATOM     16  N   UNL     1       0.664  11.583  21.153  0.00  0.00    +0.000 NA
ATOM     17  N   UNL     1       1.203  10.409  20.619  0.00  0.00    +0.000 NA
ENDBRANCH   4   7
BRANCH   1  18
ATOM     18  N   UNL     1       3.190   4.587  18.614  0.00  0.00    +0.000 N 
ATOM     19  H   UNL     1       3.041   4.625  17.597  0.00  0.00    +0.000 HD
BRANCH  18  20
ATOM     20  S   UNL     1       4.855   4.426  18.882  0.00  0.00    +0.000 S 
ATOM     21  O   UNL     1       5.156   3.074  19.286  0.00  0.00    +0.000 OA
ATOM     22  O   UNL     1       5.292   5.558  19.668  0.00  0.00    +0.000 OA
BRANCH  20  28
ATOM     23  C   UNL     1       6.875   5.042  17.063  0.00  0.00    +0.000 A 
ATOM     24  C   UNL     1       7.438   5.072  15.776  0.00  0.00    +0.000 A 
ATOM     25  C   UNL     1       6.674   4.678  14.680  0.00  0.00    +0.000 A 
ATOM     26  C   UNL     1       5.353   4.265  14.865  0.00  0.00    +0.000 A 
ATOM     27  C   UNL     1       4.789   4.250  16.144  0.00  0.00    +0.000 A 
ATOM     28  C   UNL     1       5.552   4.647  17.260  0.00  0.00    +0.000 A 
BRANCH  23  30
ATOM     29  O   UNL     1       8.307   4.550  18.789  0.00  0.00    +0.000 OA
ATOM     30  N   UNL     1       7.728   5.447  18.168  0.00  0.00    +0.000 N 
ATOM     31  O   UNL     1       7.857   6.662  18.370  0.00  0.00    +0.000 OA
ENDBRANCH  23  30
ENDBRANCH  20  28
ENDBRANCH  18  20
ENDBRANCH   1  18
TORSDOF 5
ENDMDL
MODEL 2
REMARK VINA RESULT:      -8.8      0.964      1.503
REMARK  Name = 
REMARK  5 active torsions:
REMARK  status: ('A' for Active; 'I' for Inactive)
REMARK    1  A    between atoms: N_2  and  C_4
REMARK    2  A    between atoms: C_9  and  S_10
REMARK    3  A    between atoms: S_10  and  N_13
REMARK    4  A    between atoms: N_13  and  C_14
REMARK    5  A    between atoms: C_17  and  C_18
REMARK                            x       y       z     vdW  Elec       q    Type
REMARK                         _______ _______ _______ _____ _____    ______ ____
ROOT
ATOM      1  C   UNL     1       2.597   5.768  19.088  0.00  0.00    +0.000 A 
ATOM      2  C   UNL     1       2.662   6.846  18.208  0.00  0.00    +0.000 A 
ATOM      3  C   UNL     1       2.104   8.080  18.577  0.00  0.00    +0.000 A 
ATOM      4  C   UNL     1       1.474   8.263  19.823  0.00  0.00    +0.000 A 
ATOM      5  C   UNL     1       1.461   7.162  20.700  0.00  0.00    +0.000 A 
ATOM      6  C   UNL     1       2.013   5.930  20.339  0.00  0.00    +0.000 A 
ENDROOT
BRANCH   4   7
ATOM      7  C   UNL     1       0.836   9.546  20.181  0.00  0.00    +0.000 A 
ATOM      8  C   UNL     1       0.120  10.318  19.277  0.00  0.00    +0.000 A 
ATOM      9  C   UNL     1      -0.421  11.538  19.681  0.00  0.00    +0.000 A 
ATOM     10  C   UNL     1      -0.259  11.998  20.980  0.00  0.00    +0.000 A 
ATOM     11  N   UNL     1      -0.807  13.182  21.398  0.00  0.00    +0.000 N 
ATOM     12  C   UNL     1      -0.690  13.652  22.765  0.00  0.00    +0.000 C 
ATOM     13  C   UNL     1      -1.850  14.637  22.863  0.00  0.00    +0.000 C 
ATOM     14  C   UNL     1      -1.889  15.279  21.482  0.00  0.00    +0.000 C 
ATOM     15  C   UNL     1      -1.411  14.181  20.530  0.00  0.00    +0.000 C 
ATOM     16  N   UNL     1       0.438  11.220  21.835  0.00  0.00    +0.000 NA
ATOM     17  N   UNL     1       0.992  10.000  21.439  0.00  0.00    +0.000 NA
ENDBRANCH   4   7
BRANCH   1  18
ATOM     18  N   UNL     1       3.205   4.507  18.777  0.00  0.00    +0.000 N 
ATOM     19  H   UNL     1       3.028   4.249  17.798  0.00  0.00    +0.000 HD
BRANCH  18  20
ATOM     20  S   UNL     1       4.883   4.475  19.020  0.00  0.00    +0.000 S 
ATOM     21  O   UNL     1       5.283   3.170  19.489  0.00  0.00    +0.000 OA
ATOM     22  O   UNL     1       5.253   5.675  19.735  0.00  0.00    +0.000 OA
BRANCH  20  28
ATOM     23  C   UNL     1       6.847   5.062  17.132  0.00  0.00    +0.000 A 
ATOM     24  C   UNL     1       7.377   5.059  15.831  0.00  0.00    +0.000 A 
ATOM     25  C   UNL     1       6.591   4.620  14.767  0.00  0.00    +0.000 A 
ATOM     26  C   UNL     1       5.282   4.194  14.998  0.00  0.00    +0.000 A 
ATOM     27  C   UNL     1       4.751   4.212  16.291  0.00  0.00    +0.000 A 
ATOM     28  C   UNL     1       5.535   4.654  17.375  0.00  0.00    +0.000 A 
BRANCH  23  30
ATOM     29  O   UNL     1       8.263   4.643  18.890  0.00  0.00    +0.000 OA
ATOM     30  N   UNL     1       7.721   5.513  18.202  0.00  0.00    +0.000 N 
ATOM     31  O   UNL     1       7.904   6.733  18.308  0.00  0.00    +0.000 OA
ENDBRANCH  23  30
ENDBRANCH  20  28
ENDBRANCH  18  20
ENDBRANCH   1  18
TORSDOF 5
ENDMDL
MODEL 3
REMARK VINA RESULT:      -8.6      1.515      2.030
REMARK  Name = 
REMARK  5 active torsions:
REMARK  status: ('A' for Active; 'I' for Inactive)
REMARK    1  A    between atoms: N_2  and  C_4
REMARK    2  A    between atoms: C_9  and  S_10
REMARK    3  A    between atoms: S_10  and  N_13
REMARK    4  A    between atoms: N_13  and  C_14
REMARK    5  A    between atoms: C_17  and  C_18
REMARK                            x       y       z     vdW  Elec       q    Type
REMARK                         _______ _______ _______ _____ _____    ______ ____
ROOT
ATOM      1  C   UNL     1       2.620   5.913  18.921  0.00  0.00    +0.000 A 
ATOM      2  C   UNL     1       2.640   6.832  17.874  0.00  0.00    +0.000 A 
ATOM      3  C   UNL     1       2.141   8.128  18.076  0.00  0.00    +0.000 A 
ATOM      4  C   UNL     1       1.616   8.532  19.319  0.00  0.00    +0.000 A 
ATOM      5  C   UNL     1       1.648   7.588  20.363  0.00  0.00    +0.000 A 
ATOM      6  C   UNL     1       2.141   6.295  20.168  0.00  0.00    +0.000 A 
ENDROOT
BRANCH   4   7
ATOM      7  C   UNL     1       1.038   9.878  19.508  0.00  0.00    +0.000 A 
ATOM      8  C   UNL     1       0.133  10.182  20.516  0.00  0.00    +0.000 A 
ATOM      9  C   UNL     1      -0.397  11.469  20.607  0.00  0.00    +0.000 A 
ATOM     10  C   UNL     1      -0.034  12.459  19.706  0.00  0.00    +0.000 A 
ATOM     11  N   UNL     1      -0.527  13.733  19.800  0.00  0.00    +0.000 N 
ATOM     12  C   UNL     1      -0.118  14.792  18.897  0.00  0.00    +0.000 C 
ATOM     13  C   UNL     1      -0.470  16.044  19.695  0.00  0.00    +0.000 C 
ATOM     14  C   UNL     1      -1.752  15.655  20.419  0.00  0.00    +0.000 C 
ATOM     15  C   UNL     1      -1.615  14.151  20.669  0.00  0.00    +0.000 C 
ATOM     16  N   UNL     1       0.853  12.131  18.743  0.00  0.00    +0.000 NA
ATOM     17  N   UNL     1       1.385  10.844  18.635  0.00  0.00    +0.000 NA
ENDBRANCH   4   7
BRANCH   1  18
ATOM     18  N   UNL     1       3.173   4.597  18.777  0.00  0.00    +0.000 N 
ATOM     19  H   UNL     1       2.976   4.220  17.841  0.00  0.00    +0.000 HD
BRANCH  18  20
ATOM     20  S   UNL     1       4.850   4.527  19.015  0.00  0.00    +0.000 S 
ATOM     21  O   UNL     1       5.216   3.228  19.525  0.00  0.00    +0.000 OA
ATOM     22  O   UNL     1       5.256   5.739  19.689  0.00  0.00    +0.000 OA
BRANCH  20  28
ATOM     23  C   UNL     1       6.816   5.015  17.101  0.00  0.00    +0.000 A 
ATOM     24  C   UNL     1       7.343   4.955  15.800  0.00  0.00    +0.000 A 
ATOM     25  C   UNL     1       6.549   4.485  14.756  0.00  0.00    +0.000 A 
ATOM     26  C   UNL     1       5.234   4.085  15.006  0.00  0.00    +0.000 A 
ATOM     27  C   UNL     1       4.707   4.160  16.299  0.00  0.00    +0.000 A 
ATOM     28  C   UNL     1       5.500   4.634  17.363  0.00  0.00    +0.000 A 
BRANCH  23  30
ATOM     29  O   UNL     1       7.814   6.720  18.271  0.00  0.00    +0.000 OA
ATOM     30  N   UNL     1       7.698   5.496  18.150  0.00  0.00    +0.000 N 
ATOM     31  O   UNL     1       8.224   4.648  18.884  0.00  0.00    +0.000 OA
ENDBRANCH  23  30
ENDBRANCH  20  28
ENDBRANCH  18  20
ENDBRANCH   1  18
TORSDOF 5
ENDMDL
MODEL 4
REMARK VINA RESULT:      -8.4      0.753      1.193
REMARK  Name = 
REMARK  5 active torsions:
REMARK  status: ('A' for Active; 'I' for Inactive)
REMARK    1  A    between atoms: N_2  and  C_4
REMARK    2  A    between atoms: C_9  and  S_10
REMARK    3  A    between atoms: S_10  and  N_13
REMARK    4  A    between atoms: N_13  and  C_14
REMARK    5  A    between atoms: C_17  and  C_18
REMARK                            x       y       z     vdW  Elec       q    Type
REMARK                         _______ _______ _______ _____ _____    ______ ____
ROOT
ATOM      1  C   UNL     1       2.586   5.915  19.131  0.00  0.00    +0.000 A 
ATOM      2  C   UNL     1       2.023   5.957  20.406  0.00  0.00    +0.000 A 
ATOM      3  C   UNL     1       1.436   7.145  20.868  0.00  0.00    +0.000 A 
ATOM      4  C   UNL     1       1.398   8.308  20.075  0.00  0.00    +0.000 A 
ATOM      5  C   UNL     1       1.942   8.215  18.779  0.00  0.00    +0.000 A 
ATOM      6  C   UNL     1       2.530   7.036  18.313  0.00  0.00    +0.000 A 
ENDROOT
BRANCH   4   7
ATOM      7  C   UNL     1       0.832   9.572  20.589  0.00  0.00    +0.000 A 
ATOM      8  C   UNL     1       1.197  10.820  20.106  0.00  0.00    +0.000 A 
ATOM      9  C   UNL     1       0.646  11.971  20.669  0.00  0.00    +0.000 A 
ATOM     10  C   UNL     1      -0.269  11.892  21.709  0.00  0.00    +0.000 A 
ATOM     11  N   UNL     1      -0.838  13.012  22.254  0.00  0.00    +0.000 N 
ATOM     12  C   UNL     1      -1.833  12.943  23.306  0.00  0.00    +0.000 C 
ATOM     13  C   UNL     1      -2.520  14.300  23.183  0.00  0.00    +0.000 C 
ATOM     14  C   UNL     1      -1.383  15.242  22.809  0.00  0.00    +0.000 C 
ATOM     15  C   UNL     1      -0.419  14.380  21.991  0.00  0.00    +0.000 C 
ATOM     16  N   UNL     1      -0.607  10.662  22.151  0.00  0.00    +0.000 NA
ATOM     17  N   UNL     1      -0.055   9.502  21.600  0.00  0.00    +0.000 NA
ENDBRANCH   4   7
BRANCH   1  18
ATOM     18  N   UNL     1       3.143   4.706  18.596  0.00  0.00    +0.000 N 
ATOM     19  H   UNL     1       3.005   4.661  17.579  0.00  0.00    +0.000 HD
BRANCH  18  20
ATOM     20  S   UNL     1       4.801   4.522  18.898  0.00  0.00    +0.000 S 
ATOM     21  O   UNL     1       5.066   3.181  19.359  0.00  0.00    +0.000 OA
ATOM     22  O   UNL     1       5.249   5.675  19.646  0.00  0.00    +0.000 OA
BRANCH  20  28
ATOM     23  C   UNL     1       6.852   5.055  17.087  0.00  0.00    +0.000 A 
ATOM     24  C   UNL     1       7.438   5.023  15.811  0.00  0.00    +0.000 A 
ATOM     25  C   UNL     1       6.695   4.572  14.722  0.00  0.00    +0.000 A 
ATOM     26  C   UNL     1       5.372   4.163  14.903  0.00  0.00    +0.000 A 
ATOM     27  C   UNL     1       4.785   4.210  16.171  0.00  0.00    +0.000 A 
ATOM     28  C   UNL     1       5.526   4.665  17.280  0.00  0.00    +0.000 A 
BRANCH  23  30
ATOM     29  O   UNL     1       8.206   4.654  18.897  0.00  0.00    +0.000 OA
ATOM     30  N   UNL     1       7.683   5.517  18.186  0.00  0.00    +0.000 N 
ATOM     31  O   UNL     1       7.852   6.739  18.294  0.00  0.00    +0.000 OA
ENDBRANCH  23  30
ENDBRANCH  20  28
ENDBRANCH  18  20
ENDBRANCH   1  18
TORSDOF 5
ENDMDL
MODEL 5
REMARK VINA RESULT:      -8.4      2.676      3.819
REMARK  Name = 
REMARK  5 active torsions:
REMARK  status: ('A' for Active; 'I' for Inactive)
REMARK    1  A    between atoms: N_2  and  C_4
REMARK    2  A    between atoms: C_9  and  S_10
REMARK    3  A    between atoms: S_10  and  N_13
REMARK    4  A    between atoms: N_13  and  C_14
REMARK    5  A    between atoms: C_17  and  C_18
REMARK                            x       y       z     vdW  Elec       q    Type
REMARK                         _______ _______ _______ _____ _____    ______ ____
ROOT
ATOM      1  C   UNL     1       2.872   6.490  18.520  0.00  0.00    +0.000 A 
ATOM      2  C   UNL     1       2.575   7.571  17.691  0.00  0.00    +0.000 A 
ATOM      3  C   UNL     1       1.875   8.672  18.207  0.00  0.00    +0.000 A 
ATOM      4  C   UNL     1       1.460   8.720  19.552  0.00  0.00    +0.000 A 
ATOM      5  C   UNL     1       1.811   7.627  20.368  0.00  0.00    +0.000 A 
ATOM      6  C   UNL     1       2.506   6.526  19.860  0.00  0.00    +0.000 A 
ENDROOT
BRANCH   4   7
ATOM      7  C   UNL     1       0.673   9.855  20.074  0.00  0.00    +0.000 A 
ATOM      8  C   UNL     1      -0.243  10.561  19.307  0.00  0.00    +0.000 A 
ATOM      9  C   UNL     1      -0.922  11.647  19.861  0.00  0.00    +0.000 A 
ATOM     10  C   UNL     1      -0.699  12.036  21.174  0.00  0.00    +0.000 A 
ATOM     11  N   UNL     1      -1.377  13.084  21.738  0.00  0.00    +0.000 N 
ATOM     12  C   UNL     1      -1.193  13.471  23.124  0.00  0.00    +0.000 C 
ATOM     13  C   UNL     1      -2.475  14.247  23.410  0.00  0.00    +0.000 C 
ATOM     14  C   UNL     1      -2.755  14.967  22.098  0.00  0.00    +0.000 C 
ATOM     15  C   UNL     1      -2.214  14.029  21.017  0.00  0.00    +0.000 C 
ATOM     16  N   UNL     1       0.194  11.324  21.893  0.00  0.00    +0.000 NA
ATOM     17  N   UNL     1       0.886  10.240  21.347  0.00  0.00    +0.000 NA
ENDBRANCH   4   7
BRANCH   1  18
ATOM     18  N   UNL     1       3.636   5.371  18.051  0.00  0.00    +0.000 N 
ATOM     19  H   UNL     1       4.336   5.090  18.748  0.00  0.00    +0.000 HD
BRANCH  18  20
ATOM     20  S   UNL     1       2.700   4.006  17.685  0.00  0.00    +0.000 S 
ATOM     21  O   UNL     1       3.513   3.024  17.009  0.00  0.00    +0.000 OA
ATOM     22  O   UNL     1       1.449   4.461  17.122  0.00  0.00    +0.000 OA
BRANCH  20  28
ATOM     23  C   UNL     1       3.293   2.850  20.151  0.00  0.00    +0.000 A 
ATOM     24  C   UNL     1       2.974   2.460  21.463  0.00  0.00    +0.000 A 
ATOM     25  C   UNL     1       1.664   2.585  21.920  0.00  0.00    +0.000 A 
ATOM     26  C   UNL     1       0.675   3.087  21.072  0.00  0.00    +0.000 A 
ATOM     27  C   UNL     1       0.991   3.461  19.762  0.00  0.00    +0.000 A 
ATOM     28  C   UNL     1       2.311   3.339  19.287  0.00  0.00    +0.000 A 
BRANCH  23  30
ATOM     29  O   UNL     1       5.087   1.571  19.507  0.00  0.00    +0.000 OA
ATOM     30  N   UNL     1       4.679   2.713  19.738  0.00  0.00    +0.000 N 
ATOM     31  O   UNL     1       5.333   3.755  19.592  0.00  0.00    +0.000 OA
ENDBRANCH  23  30
ENDBRANCH  20  28
ENDBRANCH  18  20
ENDBRANCH   1  18
TORSDOF 5
ENDMDL
MODEL 6
REMARK VINA RESULT:      -8.3      5.462      7.769
REMARK  Name = 
REMARK  5 active torsions:
REMARK  status: ('A' for Active; 'I' for Inactive)
REMARK    1  A    between atoms: N_2  and  C_4
REMARK    2  A    between atoms: C_9  and  S_10
REMARK    3  A    between atoms: S_10  and  N_13
REMARK    4  A    between atoms: N_13  and  C_14
REMARK    5  A    between atoms: C_17  and  C_18
REMARK                            x       y       z     vdW  Elec       q    Type
REMARK                         _______ _______ _______ _____ _____    ______ ____
ROOT
ATOM      1  C   UNL     1       7.041   5.754  17.817  0.00  0.00    +0.000 A 
ATOM      2  C   UNL     1       6.810   6.788  16.911  0.00  0.00    +0.000 A 
ATOM      3  C   UNL     1       7.376   8.052  17.141  0.00  0.00    +0.000 A 
ATOM      4  C   UNL     1       8.178   8.309  18.269  0.00  0.00    +0.000 A 
ATOM      5  C   UNL     1       8.420   7.230  19.140  0.00  0.00    +0.000 A 
ATOM      6  C   UNL     1       7.858   5.969  18.920  0.00  0.00    +0.000 A 
ENDROOT
BRANCH   4   7
ATOM      7  C   UNL     1       8.721   9.656  18.535  0.00  0.00    +0.000 A 
ATOM      8  C   UNL     1       9.458   9.968  19.669  0.00  0.00    +0.000 A 
ATOM      9  C   UNL     1       9.906  11.274  19.869  0.00  0.00    +0.000 A 
ATOM     10  C   UNL     1       9.629  12.274  18.948  0.00  0.00    +0.000 A 
ATOM     11  N   UNL     1      10.085  13.555  19.118  0.00  0.00    +0.000 N 
ATOM     12  C   UNL     1       9.847  14.599  18.140  0.00  0.00    +0.000 C 
ATOM     13  C   UNL     1      10.946  15.604  18.476  0.00  0.00    +0.000 C 
ATOM     14  C   UNL     1      11.048  15.526  19.993  0.00  0.00    +0.000 C 
ATOM     15  C   UNL     1      10.695  14.076  20.331  0.00  0.00    +0.000 C 
ATOM     16  N   UNL     1       8.916  11.936  17.854  0.00  0.00    +0.000 NA
ATOM     17  N   UNL     1       8.454  10.633  17.647  0.00  0.00    +0.000 NA
ENDBRANCH   4   7
BRANCH   1  18
ATOM     18  N   UNL     1       6.532   4.432  17.592  0.00  0.00    +0.000 N 
ATOM     19  H   UNL     1       6.404   3.934  18.482  0.00  0.00    +0.000 HD
BRANCH  18  20
ATOM     20  S   UNL     1       5.050   4.397  16.769  0.00  0.00    +0.000 S 
ATOM     21  O   UNL     1       4.652   3.029  16.540  0.00  0.00    +0.000 OA
ATOM     22  O   UNL     1       5.120   5.350  15.684  0.00  0.00    +0.000 OA
BRANCH  20  28
ATOM     23  C   UNL     1       3.613   4.432  19.157  0.00  0.00    +0.000 A 
ATOM     24  C   UNL     1       2.821   5.056  20.136  0.00  0.00    +0.000 A 
ATOM     25  C   UNL     1       2.343   6.345  19.916  0.00  0.00    +0.000 A 
ATOM     26  C   UNL     1       2.646   7.007  18.724  0.00  0.00    +0.000 A 
ATOM     27  C   UNL     1       3.422   6.379  17.746  0.00  0.00    +0.000 A 
ATOM     28  C   UNL     1       3.911   5.075  17.955  0.00  0.00    +0.000 A 
BRANCH  23  30
ATOM     29  O   UNL     1       5.246   2.996  19.895  0.00  0.00    +0.000 OA
ATOM     30  N   UNL     1       4.097   3.094  19.452  0.00  0.00    +0.000 N 
ATOM     31  O   UNL     1       3.305   2.156  19.292  0.00  0.00    +0.000 OA
ENDBRANCH  23  30
ENDBRANCH  20  28
ENDBRANCH  18  20
ENDBRANCH   1  18
TORSDOF 5
ENDMDL
MODEL 7
REMARK VINA RESULT:      -8.2      5.329      7.786
REMARK  Name = 
REMARK  5 active torsions:
REMARK  status: ('A' for Active; 'I' for Inactive)
REMARK    1  A    between atoms: N_2  and  C_4
REMARK    2  A    between atoms: C_9  and  S_10
REMARK    3  A    between atoms: S_10  and  N_13
REMARK    4  A    between atoms: N_13  and  C_14
REMARK    5  A    between atoms: C_17  and  C_18
REMARK                            x       y       z     vdW  Elec       q    Type
REMARK                         _______ _______ _______ _____ _____    ______ ____
ROOT
ATOM      1  C   UNL     1       6.990   5.591  17.799  0.00  0.00    +0.000 A 
ATOM      2  C   UNL     1       6.748   6.594  16.861  0.00  0.00    +0.000 A 
ATOM      3  C   UNL     1       7.289   7.874  17.058  0.00  0.00    +0.000 A 
ATOM      4  C   UNL     1       8.077   8.179  18.185  0.00  0.00    +0.000 A 
ATOM      5  C   UNL     1       8.331   7.130  19.089  0.00  0.00    +0.000 A 
ATOM      6  C   UNL     1       7.794   5.853  18.901  0.00  0.00    +0.000 A 
ENDROOT
BRANCH   4   7
ATOM      7  C   UNL     1       8.593   9.543  18.416  0.00  0.00    +0.000 A 
ATOM      8  C   UNL     1       8.335  10.608  17.565  0.00  0.00    +0.000 A 
ATOM      9  C   UNL     1       8.890  11.860  17.831  0.00  0.00    +0.000 A 
ATOM     10  C   UNL     1       9.699  12.063  18.939  0.00  0.00    +0.000 A 
ATOM     11  N   UNL     1      10.230  13.293  19.226  0.00  0.00    +0.000 N 
ATOM     12  C   UNL     1      11.035  13.534  20.409  0.00  0.00    +0.000 C 
ATOM     13  C   UNL     1      10.916  15.046  20.571  0.00  0.00    +0.000 C 
ATOM     14  C   UNL     1      10.894  15.557  19.137  0.00  0.00    +0.000 C 
ATOM     15  C   UNL     1      10.210  14.445  18.339  0.00  0.00    +0.000 C 
ATOM     16  N   UNL     1       9.925  11.008  19.750  0.00  0.00    +0.000 NA
ATOM     17  N   UNL     1       9.381   9.747  19.489  0.00  0.00    +0.000 NA
ENDBRANCH   4   7
BRANCH   1  18
ATOM     18  N   UNL     1       6.507   4.254  17.608  0.00  0.00    +0.000 N 
ATOM     19  H   UNL     1       6.410   3.770  18.510  0.00  0.00    +0.000 HD
BRANCH  18  20
ATOM     20  S   UNL     1       5.010   4.170  16.818  0.00  0.00    +0.000 S 
ATOM     21  O   UNL     1       4.605   2.791  16.685  0.00  0.00    +0.000 OA
ATOM     22  O   UNL     1       5.061   5.051  15.672  0.00  0.00    +0.000 OA
BRANCH  20  28
ATOM     23  C   UNL     1       3.608   4.354  19.219  0.00  0.00    +0.000 A 
ATOM     24  C   UNL     1       2.835   5.041  20.171  0.00  0.00    +0.000 A 
ATOM     25  C   UNL     1       2.368   6.322  19.886  0.00  0.00    +0.000 A 
ATOM     26  C   UNL     1       2.661   6.912  18.655  0.00  0.00    +0.000 A 
ATOM     27  C   UNL     1       3.417   6.222  17.702  0.00  0.00    +0.000 A 
ATOM     28  C   UNL     1       3.895   4.926  17.979  0.00  0.00    +0.000 A 
BRANCH  23  30
ATOM     29  O   UNL     1       5.249   2.939  19.976  0.00  0.00    +0.000 OA
ATOM     30  N   UNL     1       4.082   3.030  19.582  0.00  0.00    +0.000 N 
ATOM     31  O   UNL     1       3.266   2.100  19.525  0.00  0.00    +0.000 OA
ENDBRANCH  23  30
ENDBRANCH  20  28
ENDBRANCH  18  20
ENDBRANCH   1  18
TORSDOF 5
ENDMDL
MODEL 8
REMARK VINA RESULT:      -8.2      2.776      3.631
REMARK  Name = 
REMARK  5 active torsions:
REMARK  status: ('A' for Active; 'I' for Inactive)
REMARK    1  A    between atoms: N_2  and  C_4
REMARK    2  A    between atoms: C_9  and  S_10
REMARK    3  A    between atoms: S_10  and  N_13
REMARK    4  A    between atoms: N_13  and  C_14
REMARK    5  A    between atoms: C_17  and  C_18
REMARK                            x       y       z     vdW  Elec       q    Type
REMARK                         _______ _______ _______ _____ _____    ______ ____
ROOT
ATOM      1  C   UNL     1       2.662   7.023  18.683  0.00  0.00    +0.000 A 
ATOM      2  C   UNL     1       2.243   6.965  20.012  0.00  0.00    +0.000 A 
ATOM      3  C   UNL     1       1.468   8.008  20.542  0.00  0.00    +0.000 A 
ATOM      4  C   UNL     1       1.097   9.122  19.765  0.00  0.00    +0.000 A 
ATOM      5  C   UNL     1       1.506   9.126  18.418  0.00  0.00    +0.000 A 
ATOM      6  C   UNL     1       2.280   8.092  17.883  0.00  0.00    +0.000 A 
ENDROOT
BRANCH   4   7
ATOM      7  C   UNL     1       0.332  10.244  20.346  0.00  0.00    +0.000 A 
ATOM      8  C   UNL     1      -0.750  10.837  19.710  0.00  0.00    +0.000 A 
ATOM      9  C   UNL     1      -1.399  11.918  20.306  0.00  0.00    +0.000 A 
ATOM     10  C   UNL     1      -0.983  12.415  21.533  0.00  0.00    +0.000 A 
ATOM     11  N   UNL     1      -1.627  13.459  22.142  0.00  0.00    +0.000 N 
ATOM     12  C   UNL     1      -1.237  13.956  23.447  0.00  0.00    +0.000 C 
ATOM     13  C   UNL     1      -2.504  14.674  23.905  0.00  0.00    +0.000 C 
ATOM     14  C   UNL     1      -3.054  15.279  22.620  0.00  0.00    +0.000 C 
ATOM     15  C   UNL     1      -2.640  14.298  21.521  0.00  0.00    +0.000 C 
ATOM     16  N   UNL     1       0.067  11.811  22.127  0.00  0.00    +0.000 NA
ATOM     17  N   UNL     1       0.731  10.733  21.536  0.00  0.00    +0.000 NA
ENDBRANCH   4   7
BRANCH   1  18
ATOM     18  N   UNL     1       3.404   5.953  18.083  0.00  0.00    +0.000 N 
ATOM     19  H   UNL     1       4.146   5.625  18.714  0.00  0.00    +0.000 HD
BRANCH  18  20
ATOM     20  S   UNL     1       2.458   4.610  17.665  0.00  0.00    +0.000 S 
ATOM     21  O   UNL     1       3.196   3.753  16.769  0.00  0.00    +0.000 OA
ATOM     22  O   UNL     1       1.135   5.085  17.328  0.00  0.00    +0.000 OA
BRANCH  20  28
ATOM     23  C   UNL     1       3.393   3.438  20.014  0.00  0.00    +0.000 A 
ATOM     24  C   UNL     1       3.220   2.870  21.288  0.00  0.00    +0.000 A 
ATOM     25  C   UNL     1       1.935   2.616  21.761  0.00  0.00    +0.000 A 
ATOM     26  C   UNL     1       0.827   2.920  20.966  0.00  0.00    +0.000 A 
ATOM     27  C   UNL     1       1.001   3.471  19.693  0.00  0.00    +0.000 A 
ATOM     28  C   UNL     1       2.296   3.732  19.203  0.00  0.00    +0.000 A 
BRANCH  23  30
ATOM     29  O   UNL     1       5.235   4.801  19.864  0.00  0.00    +0.000 OA
ATOM     30  N   UNL     1       4.756   3.697  19.584  0.00  0.00    +0.000 N 
ATOM     31  O   UNL     1       5.358   2.772  19.021  0.00  0.00    +0.000 OA
ENDBRANCH  23  30
ENDBRANCH  20  28
ENDBRANCH  18  20
ENDBRANCH   1  18
TORSDOF 5
ENDMDL
MODEL 9
REMARK VINA RESULT:      -8.2      2.647      3.753
REMARK  Name = 
REMARK  5 active torsions:
REMARK  status: ('A' for Active; 'I' for Inactive)
REMARK    1  A    between atoms: N_2  and  C_4
REMARK    2  A    between atoms: C_9  and  S_10
REMARK    3  A    between atoms: S_10  and  N_13
REMARK    4  A    between atoms: N_13  and  C_14
REMARK    5  A    between atoms: C_17  and  C_18
REMARK                            x       y       z     vdW  Elec       q    Type
REMARK                         _______ _______ _______ _____ _____    ______ ____
ROOT
ATOM      1  C   UNL     1       2.877   6.390  18.570  0.00  0.00    +0.000 A 
ATOM      2  C   UNL     1       2.559   7.522  17.821  0.00  0.00    +0.000 A 
ATOM      3  C   UNL     1       1.867   8.583  18.425  0.00  0.00    +0.000 A 
ATOM      4  C   UNL     1       1.481   8.539  19.779  0.00  0.00    +0.000 A 
ATOM      5  C   UNL     1       1.854   7.396  20.512  0.00  0.00    +0.000 A 
ATOM      6  C   UNL     1       2.540   6.334  19.916  0.00  0.00    +0.000 A 
ENDROOT
BRANCH   4   7
ATOM      7  C   UNL     1       0.703   9.633  20.392  0.00  0.00    +0.000 A 
ATOM      8  C   UNL     1       0.385   9.676  21.742  0.00  0.00    +0.000 A 
ATOM      9  C   UNL     1      -0.387  10.725  22.241  0.00  0.00    +0.000 A 
ATOM     10  C   UNL     1      -0.846  11.735  21.409  0.00  0.00    +0.000 A 
ATOM     11  N   UNL     1      -1.584  12.785  21.889  0.00  0.00    +0.000 N 
ATOM     12  C   UNL     1      -2.027  13.874  21.041  0.00  0.00    +0.000 C 
ATOM     13  C   UNL     1      -2.288  14.982  22.058  0.00  0.00    +0.000 C 
ATOM     14  C   UNL     1      -2.844  14.234  23.263  0.00  0.00    +0.000 C 
ATOM     15  C   UNL     1      -2.153  12.870  23.225  0.00  0.00    +0.000 C 
ATOM     16  N   UNL     1      -0.514  11.666  20.102  0.00  0.00    +0.000 NA
ATOM     17  N   UNL     1       0.251  10.616  19.589  0.00  0.00    +0.000 NA
ENDBRANCH   4   7
BRANCH   1  18
ATOM     18  N   UNL     1       3.633   5.307  18.010  0.00  0.00    +0.000 N 
ATOM     19  H   UNL     1       4.387   5.022  18.647  0.00  0.00    +0.000 HD
BRANCH  18  20
ATOM     20  S   UNL     1       2.708   3.930  17.662  0.00  0.00    +0.000 S 
ATOM     21  O   UNL     1       3.532   2.941  17.011  0.00  0.00    +0.000 OA
ATOM     22  O   UNL     1       1.459   4.367  17.080  0.00  0.00    +0.000 OA
BRANCH  20  28
ATOM     23  C   UNL     1       3.288   2.843  20.162  0.00  0.00    +0.000 A 
ATOM     24  C   UNL     1       2.958   2.476  21.477  0.00  0.00    +0.000 A 
ATOM     25  C   UNL     1       1.639   2.582  21.913  0.00  0.00    +0.000 A 
ATOM     26  C   UNL     1       0.652   3.044  21.038  0.00  0.00    +0.000 A 
ATOM     27  C   UNL     1       0.980   3.394  19.725  0.00  0.00    +0.000 A 
ATOM     28  C   UNL     1       2.310   3.291  19.273  0.00  0.00    +0.000 A 
BRANCH  23  30
ATOM     29  O   UNL     1       5.321   3.779  19.647  0.00  0.00    +0.000 OA
ATOM     30  N   UNL     1       4.683   2.728  19.773  0.00  0.00    +0.000 N 
ATOM     31  O   UNL     1       5.146   1.586  19.652  0.00  0.00    +0.000 OA
ENDBRANCH  23  30
ENDBRANCH  20  28
ENDBRANCH  18  20
ENDBRANCH   1  18
TORSDOF 5
ENDMDL
