MODEL 1
REMARK VINA RESULT:      -7.8      0.000      0.000
REMARK  Name = 
REMARK  8 active torsions:
REMARK  status: ('A' for Active; 'I' for Inactive)
REMARK    1  A    between atoms: C_1  and  N_2
REMARK    2  A    between atoms: N_2  and  C_3
REMARK    3  A    between atoms: C_10  and  C_11
REMARK    4  A    between atoms: C_14  and  O_15
REMARK    5  A    between atoms: O_15  and  C_16
REMARK    6  A    between atoms: C_16  and  C_17
REMARK    7  A    between atoms: C_17  and  C_18
REMARK    8  A    between atoms: C_18  and  N_19
REMARK                            x       y       z     vdW  Elec       q    Type
REMARK                         _______ _______ _______ _____ _____    ______ ____
ROOT
ATOM      1  C   UNL     1       8.024   8.101  18.152  0.00  0.00    +0.000 A 
ATOM      2  C   UNL     1       7.171   7.921  17.066  0.00  0.00    +0.000 A 
ATOM      3  C   UNL     1       6.591   6.682  16.822  0.00  0.00    +0.000 A 
ATOM      4  C   UNL     1       6.860   5.601  17.662  0.00  0.00    +0.000 A 
ATOM      5  C   UNL     1       7.766   5.755  18.712  0.00  0.00    +0.000 A 
ATOM      6  C   UNL     1       8.353   7.001  18.953  0.00  0.00    +0.000 A 
ENDROOT
BRANCH   1  14
ATOM      7  C   UNL     1       9.149  12.913  18.204  0.00  0.00    +0.000 A 
ATOM      8  C   UNL     1      10.164  13.547  18.957  0.00  0.00    +0.000 A 
ATOM      9 BR   UNL     1      10.532  15.401  18.744  0.00  0.00    +0.000 Br
ATOM     10  C   UNL     1      10.901  12.839  19.911  0.00  0.00    +0.000 A 
ATOM     11  N   UNL     1      10.759  11.525  20.209  0.00  0.00    +0.000 NA
ATOM     12  C   UNL     1       9.821  10.952  19.441  0.00  0.00    +0.000 A 
ATOM     13  N   UNL     1       9.467   9.640  19.464  0.00  0.00    +0.000 N 
ATOM     14  C   UNL     1       8.522   9.428  18.487  0.00  0.00    +0.000 A 
ATOM     15  N   UNL     1       8.220  10.562  17.886  0.00  0.00    +0.000 NA
ATOM     16  C   UNL     1       9.024  11.527  18.462  0.00  0.00    +0.000 A 
ATOM     17  H   UNL     1       9.889   8.939  20.052  0.00  0.00    +0.000 HD
BRANCH   7  19
ATOM     18  C   UNL     1       7.081  14.051  17.612  0.00  0.00    +0.000 C 
ATOM     19  N   UNL     1       8.423  13.634  17.219  0.00  0.00    +0.000 N 
ATOM     20  H   UNL     1       8.977  14.420  16.888  0.00  0.00    +0.000 HD
ENDBRANCH   7  19
ENDBRANCH   1  14
BRANCH   4  21
ATOM     21  O   UNL     1       6.284   4.364  17.549  0.00  0.00    +0.000 OA
BRANCH  21  22
ATOM     22  C   UNL     1       4.938   4.369  17.077  0.00  0.00    +0.000 C 
BRANCH  22  23
ATOM     23  C   UNL     1       4.167   3.189  17.645  0.00  0.00    +0.000 C 
BRANCH  23  24
ATOM     24  C   UNL     1       4.172   3.210  19.175  0.00  0.00    +0.000 C 
BRANCH  24  25
ATOM     25  N   UNL     1       3.153   2.328  19.771  0.00  0.00    +0.000 NA
ATOM     26  C   UNL     1       1.897   2.385  18.985  0.00  0.00    +0.000 C 
ATOM     27  C   UNL     1       1.088   3.682  19.185  0.00  0.00    +0.000 C 
ATOM     28  O   UNL     1       0.836   3.954  20.571  0.00  0.00    +0.000 OA
ATOM     29  C   UNL     1       2.058   3.982  21.320  0.00  0.00    +0.000 C 
ATOM     30  C   UNL     1       2.815   2.656  21.172  0.00  0.00    +0.000 C 
ENDBRANCH  24  25
ENDBRANCH  23  24
ENDBRANCH  22  23
ENDBRANCH  21  22
ENDBRANCH   4  21
TORSDOF 7
ENDMDL
MODEL 2
REMARK VINA RESULT:      -7.7      0.756      1.299
REMARK  Name = 
REMARK  8 active torsions:
REMARK  status: ('A' for Active; 'I' for Inactive)
REMARK    1  A    between atoms: C_1  and  N_2
REMARK    2  A    between atoms: N_2  and  C_3
REMARK    3  A    between atoms: C_10  and  C_11
REMARK    4  A    between atoms: C_14  and  O_15
REMARK    5  A    between atoms: O_15  and  C_16
REMARK    6  A    between atoms: C_16  and  C_17
REMARK    7  A    between atoms: C_17  and  C_18
REMARK    8  A    between atoms: C_18  and  N_19
REMARK                            x       y       z     vdW  Elec       q    Type
REMARK                         _______ _______ _______ _____ _____    ______ ____
ROOT
ATOM      1  C   UNL     1       7.750   7.893  18.101  0.00  0.00    +0.000 A 
ATOM      2  C   UNL     1       8.185   6.767  18.797  0.00  0.00    +0.000 A 
ATOM      3  C   UNL     1       7.729   5.502  18.447  0.00  0.00    +0.000 A 
ATOM      4  C   UNL     1       6.827   5.344  17.393  0.00  0.00    +0.000 A 
ATOM      5  C   UNL     1       6.335   6.472  16.736  0.00  0.00    +0.000 A 
ATOM      6  C   UNL     1       6.790   7.745  17.093  0.00  0.00    +0.000 A 
ENDROOT
BRANCH   1  14
ATOM      7  C   UNL     1       9.083  12.650  18.001  0.00  0.00    +0.000 A 
ATOM      8  C   UNL     1      10.183  13.246  18.661  0.00  0.00    +0.000 A 
ATOM      9 BR   UNL     1      10.612  15.079  18.396  0.00  0.00    +0.000 Br
ATOM     10  C   UNL     1      10.963  12.515  19.562  0.00  0.00    +0.000 A 
ATOM     11  N   UNL     1      10.788  11.211  19.887  0.00  0.00    +0.000 NA
ATOM     12  C   UNL     1       9.767  10.673  19.204  0.00  0.00    +0.000 A 
ATOM     13  N   UNL     1       9.359   9.378  19.273  0.00  0.00    +0.000 N 
ATOM     14  C   UNL     1       8.330   9.200  18.377  0.00  0.00    +0.000 A 
ATOM     15  N   UNL     1       8.031  10.340  17.788  0.00  0.00    +0.000 NA
ATOM     16  C   UNL     1       8.919  11.274  18.286  0.00  0.00    +0.000 A 
ATOM     17  H   UNL     1       9.797   8.665  19.834  0.00  0.00    +0.000 HD
BRANCH   7  19
ATOM     18  C   UNL     1       7.076  13.964  17.593  0.00  0.00    +0.000 C 
ATOM     19  N   UNL     1       8.312  13.393  17.068  0.00  0.00    +0.000 N 
ATOM     20  H   UNL     1       8.893  14.102  16.626  0.00  0.00    +0.000 HD
ENDBRANCH   7  19
ENDBRANCH   1  14
BRANCH   4  21
ATOM     21  O   UNL     1       6.377   4.139  16.927  0.00  0.00    +0.000 OA
BRANCH  21  22
ATOM     22  C   UNL     1       5.099   4.179  16.294  0.00  0.00    +0.000 C 
BRANCH  22  23
ATOM     23  C   UNL     1       4.063   3.452  17.135  0.00  0.00    +0.000 C 
BRANCH  23  24
ATOM     24  C   UNL     1       3.348   4.415  18.087  0.00  0.00    +0.000 C 
BRANCH  24  25
ATOM     25  N   UNL     1       3.539   4.076  19.507  0.00  0.00    +0.000 NA
ATOM     26  C   UNL     1       3.311   2.627  19.729  0.00  0.00    +0.000 C 
ATOM     27  C   UNL     1       1.828   2.211  19.689  0.00  0.00    +0.000 C 
ATOM     28  O   UNL     1       1.021   2.997  20.577  0.00  0.00    +0.000 OA
ATOM     29  C   UNL     1       1.176   4.396  20.311  0.00  0.00    +0.000 C 
ATOM     30  C   UNL     1       2.648   4.811  20.430  0.00  0.00    +0.000 C 
ENDBRANCH  24  25
ENDBRANCH  23  24
ENDBRANCH  22  23
ENDBRANCH  21  22
ENDBRANCH   4  21
TORSDOF 7
ENDMDL
MODEL 3
REMARK VINA RESULT:      -7.6      6.837      8.478
REMARK  Name = 
REMARK  8 active torsions:
REMARK  status: ('A' for Active; 'I' for Inactive)
REMARK    1  A    between atoms: C_1  and  N_2
REMARK    2  A    between atoms: N_2  and  C_3
REMARK    3  A    between atoms: C_10  and  C_11
REMARK    4  A    between atoms: C_14  and  O_15
REMARK    5  A    between atoms: O_15  and  C_16
REMARK    6  A    between atoms: C_16  and  C_17
REMARK    7  A    between atoms: C_17  and  C_18
REMARK    8  A    between atoms: C_18  and  N_19
REMARK                            x       y       z     vdW  Elec       q    Type
REMARK                         _______ _______ _______ _____ _____    ______ ____
ROOT
ATOM      1  C   UNL     1       1.301   8.993  19.607  0.00  0.00    +0.000 A 
ATOM      2  C   UNL     1       1.734   9.167  18.295  0.00  0.00    +0.000 A 
ATOM      3  C   UNL     1       2.505   8.194  17.672  0.00  0.00    +0.000 A 
ATOM      4  C   UNL     1       2.858   7.029  18.355  0.00  0.00    +0.000 A 
ATOM      5  C   UNL     1       2.485   6.878  19.691  0.00  0.00    +0.000 A 
ATOM      6  C   UNL     1       1.715   7.861  20.320  0.00  0.00    +0.000 A 
ENDROOT
BRANCH   1  14
ATOM      7  C   UNL     1      -2.159  12.416  20.464  0.00  0.00    +0.000 A 
ATOM      8  C   UNL     1      -2.312  13.207  21.627  0.00  0.00    +0.000 A 
ATOM      9 BR   UNL     1      -3.634  14.571  21.719  0.00  0.00    +0.000 Br
ATOM     10  C   UNL     1      -1.524  12.982  22.759  0.00  0.00    +0.000 A 
ATOM     11  N   UNL     1      -0.554  12.043  22.877  0.00  0.00    +0.000 NA
ATOM     12  C   UNL     1      -0.409  11.348  21.739  0.00  0.00    +0.000 A 
ATOM     13  N   UNL     1       0.503  10.365  21.518  0.00  0.00    +0.000 N 
ATOM     14  C   UNL     1       0.382   9.946  20.213  0.00  0.00    +0.000 A 
ATOM     15  N   UNL     1      -0.607  10.582  19.617  0.00  0.00    +0.000 NA
ATOM     16  C   UNL     1      -1.112  11.467  20.549  0.00  0.00    +0.000 A 
ATOM     17  H   UNL     1       1.194  10.059  22.184  0.00  0.00    +0.000 HD
BRANCH   7  19
ATOM     18  C   UNL     1      -3.304  11.490  18.527  0.00  0.00    +0.000 C 
ATOM     19  N   UNL     1      -2.946  12.668  19.310  0.00  0.00    +0.000 N 
ATOM     20  H   UNL     1      -3.768  13.212  19.564  0.00  0.00    +0.000 HD
ENDBRANCH   7  19
ENDBRANCH   1  14
BRANCH   4  21
ATOM     21  O   UNL     1       3.550   5.983  17.808  0.00  0.00    +0.000 OA
BRANCH  21  22
ATOM     22  C   UNL     1       3.321   4.720  18.430  0.00  0.00    +0.000 C 
BRANCH  22  23
ATOM     23  C   UNL     1       4.634   4.096  18.873  0.00  0.00    +0.000 C 
BRANCH  23  24
ATOM     24  C   UNL     1       5.665   5.170  19.228  0.00  0.00    +0.000 C 
BRANCH  24  25
ATOM     25  N   UNL     1       7.028   4.839  18.776  0.00  0.00    +0.000 NA
ATOM     26  C   UNL     1       7.932   5.999  18.963  0.00  0.00    +0.000 C 
ATOM     27  C   UNL     1       7.721   7.133  17.939  0.00  0.00    +0.000 C 
ATOM     28  O   UNL     1       7.774   6.657  16.588  0.00  0.00    +0.000 OA
ATOM     29  C   UNL     1       6.841   5.589  16.380  0.00  0.00    +0.000 C 
ATOM     30  C   UNL     1       7.112   4.436  17.356  0.00  0.00    +0.000 C 
ENDBRANCH  24  25
ENDBRANCH  23  24
ENDBRANCH  22  23
ENDBRANCH  21  22
ENDBRANCH   4  21
TORSDOF 7
ENDMDL
MODEL 4
REMARK VINA RESULT:      -7.6      1.105      1.883
REMARK  Name = 
REMARK  8 active torsions:
REMARK  status: ('A' for Active; 'I' for Inactive)
REMARK    1  A    between atoms: C_1  and  N_2
REMARK    2  A    between atoms: N_2  and  C_3
REMARK    3  A    between atoms: C_10  and  C_11
REMARK    4  A    between atoms: C_14  and  O_15
REMARK    5  A    between atoms: O_15  and  C_16
REMARK    6  A    between atoms: C_16  and  C_17
REMARK    7  A    between atoms: C_17  and  C_18
REMARK    8  A    between atoms: C_18  and  N_19
REMARK                            x       y       z     vdW  Elec       q    Type
REMARK                         _______ _______ _______ _____ _____    ______ ____
ROOT
ATOM      1  C   UNL     1       8.134   8.027  18.277  0.00  0.00    +0.000 A 
ATOM      2  C   UNL     1       7.292   7.854  17.181  0.00  0.00    +0.000 A 
ATOM      3  C   UNL     1       6.639   6.645  16.978  0.00  0.00    +0.000 A 
ATOM      4  C   UNL     1       6.820   5.587  17.870  0.00  0.00    +0.000 A 
ATOM      5  C   UNL     1       7.714   5.730  18.932  0.00  0.00    +0.000 A 
ATOM      6  C   UNL     1       8.376   6.945  19.131  0.00  0.00    +0.000 A 
ENDROOT
BRANCH   1  14
ATOM      7  C   UNL     1       9.801  12.147  20.438  0.00  0.00    +0.000 A 
ATOM      8  C   UNL     1      10.051  13.396  19.824  0.00  0.00    +0.000 A 
ATOM      9 BR   UNL     1      10.569  14.910  20.851  0.00  0.00    +0.000 Br
ATOM     10  C   UNL     1       9.964  13.545  18.436  0.00  0.00    +0.000 A 
ATOM     11  N   UNL     1       9.633  12.573  17.553  0.00  0.00    +0.000 NA
ATOM     12  C   UNL     1       9.357  11.420  18.180  0.00  0.00    +0.000 A 
ATOM     13  N   UNL     1       8.955  10.267  17.583  0.00  0.00    +0.000 N 
ATOM     14  C   UNL     1       8.709   9.334  18.564  0.00  0.00    +0.000 A 
ATOM     15  N   UNL     1       8.996   9.830  19.752  0.00  0.00    +0.000 NA
ATOM     16  C   UNL     1       9.397  11.134  19.536  0.00  0.00    +0.000 A 
ATOM     17  H   UNL     1       8.796  10.154  16.595  0.00  0.00    +0.000 HD
BRANCH   7  19
ATOM     18  C   UNL     1       8.587  12.116  22.547  0.00  0.00    +0.000 C 
ATOM     19  N   UNL     1       9.865  12.011  21.851  0.00  0.00    +0.000 N 
ATOM     20  H   UNL     1      10.353  11.152  22.093  0.00  0.00    +0.000 HD
ENDBRANCH   7  19
ENDBRANCH   1  14
BRANCH   4  21
ATOM     21  O   UNL     1       6.169   4.386  17.798  0.00  0.00    +0.000 OA
BRANCH  21  22
ATOM     22  C   UNL     1       5.267   4.256  16.700  0.00  0.00    +0.000 C 
BRANCH  22  23
ATOM     23  C   UNL     1       3.862   3.955  17.194  0.00  0.00    +0.000 C 
BRANCH  23  24
ATOM     24  C   UNL     1       3.806   3.932  18.724  0.00  0.00    +0.000 C 
BRANCH  24  25
ATOM     25  N   UNL     1       3.466   2.608  19.273  0.00  0.00    +0.000 NA
ATOM     26  C   UNL     1       2.138   2.170  18.780  0.00  0.00    +0.000 C 
ATOM     27  C   UNL     1       0.950   2.899  19.439  0.00  0.00    +0.000 C 
ATOM     28  O   UNL     1       1.008   2.842  20.871  0.00  0.00    +0.000 OA
ATOM     29  C   UNL     1       2.260   3.343  21.356  0.00  0.00    +0.000 C 
ATOM     30  C   UNL     1       3.430   2.557  20.749  0.00  0.00    +0.000 C 
ENDBRANCH  24  25
ENDBRANCH  23  24
ENDBRANCH  22  23
ENDBRANCH  21  22
ENDBRANCH   4  21
TORSDOF 7
ENDMDL
MODEL 5
REMARK VINA RESULT:      -7.6      6.767      7.887
REMARK  Name = 
REMARK  8 active torsions:
REMARK  status: ('A' for Active; 'I' for Inactive)
REMARK    1  A    between atoms: C_1  and  N_2
REMARK    2  A    between atoms: N_2  and  C_3
REMARK    3  A    between atoms: C_10  and  C_11
REMARK    4  A    between atoms: C_14  and  O_15
REMARK    5  A    between atoms: O_15  and  C_16
REMARK    6  A    between atoms: C_16  and  C_17
REMARK    7  A    between atoms: C_17  and  C_18
REMARK    8  A    between atoms: C_18  and  N_19
REMARK                            x       y       z     vdW  Elec       q    Type
REMARK                         _______ _______ _______ _____ _____    ______ ____
ROOT
ATOM      1  C   UNL     1       1.292   8.986  19.615  0.00  0.00    +0.000 A 
ATOM      2  C   UNL     1       1.723   9.213  18.311  0.00  0.00    +0.000 A 
ATOM      3  C   UNL     1       2.498   8.268  17.650  0.00  0.00    +0.000 A 
ATOM      4  C   UNL     1       2.856   7.079  18.287  0.00  0.00    +0.000 A 
ATOM      5  C   UNL     1       2.485   6.874  19.617  0.00  0.00    +0.000 A 
ATOM      6  C   UNL     1       1.711   7.829  20.283  0.00  0.00    +0.000 A 
ENDROOT
BRANCH   1  14
ATOM      7  C   UNL     1      -2.093  12.449  20.605  0.00  0.00    +0.000 A 
ATOM      8  C   UNL     1      -2.295  13.123  21.831  0.00  0.00    +0.000 A 
ATOM      9 BR   UNL     1      -3.570  14.526  21.982  0.00  0.00    +0.000 Br
ATOM     10  C   UNL     1      -1.593  12.750  22.981  0.00  0.00    +0.000 A 
ATOM     11  N   UNL     1      -0.668  11.764  23.061  0.00  0.00    +0.000 NA
ATOM     12  C   UNL     1      -0.472  11.183  21.869  0.00  0.00    +0.000 A 
ATOM     13  N   UNL     1       0.417  10.189  21.605  0.00  0.00    +0.000 N 
ATOM     14  C   UNL     1       0.369   9.911  20.258  0.00  0.00    +0.000 A 
ATOM     15  N   UNL     1      -0.555  10.646  19.670  0.00  0.00    +0.000 NA
ATOM     16  C   UNL     1      -1.089  11.452  20.656  0.00  0.00    +0.000 A 
ATOM     17  H   UNL     1       1.050   9.788  22.277  0.00  0.00    +0.000 HD
BRANCH   7  19
ATOM     18  C   UNL     1      -3.894  11.983  19.037  0.00  0.00    +0.000 C 
ATOM     19  N   UNL     1      -2.791  12.851  19.435  0.00  0.00    +0.000 N 
ATOM     20  H   UNL     1      -3.091  13.819  19.528  0.00  0.00    +0.000 HD
ENDBRANCH   7  19
ENDBRANCH   1  14
BRANCH   4  21
ATOM     21  O   UNL     1       3.552   6.058  17.699  0.00  0.00    +0.000 OA
BRANCH  21  22
ATOM     22  C   UNL     1       4.769   5.704  18.355  0.00  0.00    +0.000 C 
BRANCH  22  23
ATOM     23  C   UNL     1       4.848   4.201  18.561  0.00  0.00    +0.000 C 
BRANCH  23  24
ATOM     24  C   UNL     1       3.510   3.528  18.244  0.00  0.00    +0.000 C 
BRANCH  24  25
ATOM     25  N   UNL     1       3.221   2.374  19.113  0.00  0.00    +0.000 NA
ATOM     26  C   UNL     1       1.821   1.923  18.926  0.00  0.00    +0.000 C 
ATOM     27  C   UNL     1       0.770   2.847  19.573  0.00  0.00    +0.000 C 
ATOM     28  O   UNL     1       1.047   3.092  20.959  0.00  0.00    +0.000 OA
ATOM     29  C   UNL     1       2.372   3.607  21.136  0.00  0.00    +0.000 C 
ATOM     30  C   UNL     1       3.411   2.640  20.555  0.00  0.00    +0.000 C 
ENDBRANCH  24  25
ENDBRANCH  23  24
ENDBRANCH  22  23
ENDBRANCH  21  22
ENDBRANCH   4  21
TORSDOF 7
ENDMDL
MODEL 6
REMARK VINA RESULT:      -7.5      6.366      7.607
REMARK  Name = 
REMARK  8 active torsions:
REMARK  status: ('A' for Active; 'I' for Inactive)
REMARK    1  A    between atoms: C_1  and  N_2
REMARK    2  A    between atoms: N_2  and  C_3
REMARK    3  A    between atoms: C_10  and  C_11
REMARK    4  A    between atoms: C_14  and  O_15
REMARK    5  A    between atoms: O_15  and  C_16
REMARK    6  A    between atoms: C_16  and  C_17
REMARK    7  A    between atoms: C_17  and  C_18
REMARK    8  A    between atoms: C_18  and  N_19
REMARK                            x       y       z     vdW  Elec       q    Type
REMARK                         _______ _______ _______ _____ _____    ______ ____
ROOT
ATOM      1  C   UNL     1       1.621   8.485  19.307  0.00  0.00    +0.000 A 
ATOM      2  C   UNL     1       2.087   7.340  19.949  0.00  0.00    +0.000 A 
ATOM      3  C   UNL     1       3.041   6.530  19.343  0.00  0.00    +0.000 A 
ATOM      4  C   UNL     1       3.542   6.855  18.082  0.00  0.00    +0.000 A 
ATOM      5  C   UNL     1       3.031   7.963  17.404  0.00  0.00    +0.000 A 
ATOM      6  C   UNL     1       2.066   8.772  18.012  0.00  0.00    +0.000 A 
ENDROOT
BRANCH   1  14
ATOM      7  C   UNL     1      -1.597  12.045  20.485  0.00  0.00    +0.000 A 
ATOM      8  C   UNL     1      -1.813  12.618  21.760  0.00  0.00    +0.000 A 
ATOM      9 BR   UNL     1      -3.010  14.077  21.992  0.00  0.00    +0.000 Br
ATOM     10  C   UNL     1      -1.183  12.101  22.897  0.00  0.00    +0.000 A 
ATOM     11  N   UNL     1      -0.321  11.056  22.920  0.00  0.00    +0.000 NA
ATOM     12  C   UNL     1      -0.108  10.574  21.686  0.00  0.00    +0.000 A 
ATOM     13  N   UNL     1       0.733   9.556  21.365  0.00  0.00    +0.000 N 
ATOM     14  C   UNL     1       0.726   9.403  19.998  0.00  0.00    +0.000 A 
ATOM     15  N   UNL     1      -0.127  10.243  19.446  0.00  0.00    +0.000 NA
ATOM     16  C   UNL     1      -0.656  10.988  20.482  0.00  0.00    +0.000 A 
ATOM     17  H   UNL     1       1.313   9.058  22.021  0.00  0.00    +0.000 HD
BRANCH   7  19
ATOM     18  C   UNL     1      -3.325  11.810  18.788  0.00  0.00    +0.000 C 
ATOM     19  N   UNL     1      -2.221  12.593  19.333  0.00  0.00    +0.000 N 
ATOM     20  H   UNL     1      -2.498  13.555  19.514  0.00  0.00    +0.000 HD
ENDBRANCH   7  19
ENDBRANCH   1  14
BRANCH   4  21
ATOM     21  O   UNL     1       4.532   6.166  17.435  0.00  0.00    +0.000 OA
BRANCH  21  22
ATOM     22  C   UNL     1       4.760   4.844  17.922  0.00  0.00    +0.000 C 
BRANCH  22  23
ATOM     23  C   UNL     1       4.089   3.820  17.022  0.00  0.00    +0.000 C 
BRANCH  23  24
ATOM     24  C   UNL     1       2.623   3.617  17.412  0.00  0.00    +0.000 C 
BRANCH  24  25
ATOM     25  N   UNL     1       2.353   2.288  17.987  0.00  0.00    +0.000 NA
ATOM     26  C   UNL     1       1.028   2.272  18.653  0.00  0.00    +0.000 C 
ATOM     27  C   UNL     1       0.994   3.014  20.004  0.00  0.00    +0.000 C 
ATOM     28  O   UNL     1       2.020   2.559  20.897  0.00  0.00    +0.000 OA
ATOM     29  C   UNL     1       3.312   2.653  20.286  0.00  0.00    +0.000 C 
ATOM     30  C   UNL     1       3.354   1.846  18.981  0.00  0.00    +0.000 C 
ENDBRANCH  24  25
ENDBRANCH  23  24
ENDBRANCH  22  23
ENDBRANCH  21  22
ENDBRANCH   4  21
TORSDOF 7
ENDMDL
MODEL 7
REMARK VINA RESULT:      -7.5      1.018      1.633
REMARK  Name = 
REMARK  8 active torsions:
REMARK  status: ('A' for Active; 'I' for Inactive)
REMARK    1  A    between atoms: C_1  and  N_2
REMARK    2  A    between atoms: N_2  and  C_3
REMARK    3  A    between atoms: C_10  and  C_11
REMARK    4  A    between atoms: C_14  and  O_15
REMARK    5  A    between atoms: O_15  and  C_16
REMARK    6  A    between atoms: C_16  and  C_17
REMARK    7  A    between atoms: C_17  and  C_18
REMARK    8  A    between atoms: C_18  and  N_19
REMARK                            x       y       z     vdW  Elec       q    Type
REMARK                         _______ _______ _______ _____ _____    ______ ____
ROOT
ATOM      1  C   UNL     1       8.146   8.226  18.357  0.00  0.00    +0.000 A 
ATOM      2  C   UNL     1       8.413   7.171  19.227  0.00  0.00    +0.000 A 
ATOM      3  C   UNL     1       8.046   5.873  18.895  0.00  0.00    +0.000 A 
ATOM      4  C   UNL     1       7.403   5.611  17.684  0.00  0.00    +0.000 A 
ATOM      5  C   UNL     1       7.072   6.670  16.838  0.00  0.00    +0.000 A 
ATOM      6  C   UNL     1       7.436   7.977  17.177  0.00  0.00    +0.000 A 
ENDROOT
BRANCH   1  14
ATOM      7  C   UNL     1       9.273  13.037  18.246  0.00  0.00    +0.000 A 
ATOM      8  C   UNL     1      10.304  13.692  18.958  0.00  0.00    +0.000 A 
ATOM      9 BR   UNL     1      10.668  15.538  18.684  0.00  0.00    +0.000 Br
ATOM     10  C   UNL     1      11.061  13.011  19.917  0.00  0.00    +0.000 A 
ATOM     11  N   UNL     1      10.924  11.707  20.256  0.00  0.00    +0.000 NA
ATOM     12  C   UNL     1       9.970  11.112  19.525  0.00  0.00    +0.000 A 
ATOM     13  N   UNL     1       9.616   9.801  19.594  0.00  0.00    +0.000 N 
ATOM     14  C   UNL     1       8.651   9.562  18.643  0.00  0.00    +0.000 A 
ATOM     15  N   UNL     1       8.337  10.679  18.015  0.00  0.00    +0.000 NA
ATOM     16  C   UNL     1       9.153  11.659  18.546  0.00  0.00    +0.000 A 
ATOM     17  H   UNL     1      10.050   9.117  20.192  0.00  0.00    +0.000 HD
BRANCH   7  19
ATOM     18  C   UNL     1       7.196  14.164  17.666  0.00  0.00    +0.000 C 
ATOM     19  N   UNL     1       8.527  13.729  17.255  0.00  0.00    +0.000 N 
ATOM     20  H   UNL     1       9.076  14.503  16.887  0.00  0.00    +0.000 HD
ENDBRANCH   7  19
ENDBRANCH   1  14
BRANCH   4  21
ATOM     21  O   UNL     1       7.068   4.362  17.234  0.00  0.00    +0.000 OA
BRANCH  21  22
ATOM     22  C   UNL     1       6.379   4.339  15.985  0.00  0.00    +0.000 C 
BRANCH  22  23
ATOM     23  C   UNL     1       5.104   3.519  16.092  0.00  0.00    +0.000 C 
BRANCH  23  24
ATOM     24  C   UNL     1       4.057   4.233  16.949  0.00  0.00    +0.000 C 
BRANCH  24  25
ATOM     25  N   UNL     1       2.854   3.419  17.194  0.00  0.00    +0.000 NA
ATOM     26  C   UNL     1       1.851   4.195  17.963  0.00  0.00    +0.000 C 
ATOM     27  C   UNL     1       2.202   4.371  19.454  0.00  0.00    +0.000 C 
ATOM     28  O   UNL     1       2.480   3.119  20.095  0.00  0.00    +0.000 OA
ATOM     29  C   UNL     1       3.509   2.402  19.401  0.00  0.00    +0.000 C 
ATOM     30  C   UNL     1       3.112   2.168  17.937  0.00  0.00    +0.000 C 
ENDBRANCH  24  25
ENDBRANCH  23  24
ENDBRANCH  22  23
ENDBRANCH  21  22
ENDBRANCH   4  21
TORSDOF 7
ENDMDL
MODEL 8
REMARK VINA RESULT:      -7.4      6.171      7.548
REMARK  Name = 
REMARK  8 active torsions:
REMARK  status: ('A' for Active; 'I' for Inactive)
REMARK    1  A    between atoms: C_1  and  N_2
REMARK    2  A    between atoms: N_2  and  C_3
REMARK    3  A    between atoms: C_10  and  C_11
REMARK    4  A    between atoms: C_14  and  O_15
REMARK    5  A    between atoms: O_15  and  C_16
REMARK    6  A    between atoms: C_16  and  C_17
REMARK    7  A    between atoms: C_17  and  C_18
REMARK    8  A    between atoms: C_18  and  N_19
REMARK                            x       y       z     vdW  Elec       q    Type
REMARK                         _______ _______ _______ _____ _____    ______ ____
ROOT
ATOM      1  C   UNL     1       2.002   8.452  18.789  0.00  0.00    +0.000 A 
ATOM      2  C   UNL     1       2.782   8.491  17.636  0.00  0.00    +0.000 A 
ATOM      3  C   UNL     1       3.643   7.444  17.331  0.00  0.00    +0.000 A 
ATOM      4  C   UNL     1       3.737   6.339  18.179  0.00  0.00    +0.000 A 
ATOM      5  C   UNL     1       3.010   6.324  19.370  0.00  0.00    +0.000 A 
ATOM      6  C   UNL     1       2.149   7.381  19.679  0.00  0.00    +0.000 A 
ENDROOT
BRANCH   1  14
ATOM      7  C   UNL     1      -1.079  11.731  20.835  0.00  0.00    +0.000 A 
ATOM      8  C   UNL     1      -2.221  12.319  20.243  0.00  0.00    +0.000 A 
ATOM      9 BR   UNL     1      -3.362  13.467  21.239  0.00  0.00    +0.000 Br
ATOM     10  C   UNL     1      -2.522  12.105  18.894  0.00  0.00    +0.000 A 
ATOM     11  N   UNL     1      -1.810  11.339  18.034  0.00  0.00    +0.000 NA
ATOM     12  C   UNL     1      -0.765  10.763  18.646  0.00  0.00    +0.000 A 
ATOM     13  N   UNL     1       0.120   9.906  18.071  0.00  0.00    +0.000 N 
ATOM     14  C   UNL     1       1.003   9.482  19.038  0.00  0.00    +0.000 A 
ATOM     15  N   UNL     1       0.750  10.081  20.185  0.00  0.00    +0.000 NA
ATOM     16  C   UNL     1      -0.354  10.881  19.965  0.00  0.00    +0.000 A 
ATOM     17  H   UNL     1       0.077   9.586  17.117  0.00  0.00    +0.000 HD
BRANCH   7  19
ATOM     18  C   UNL     1      -1.196  10.844  23.097  0.00  0.00    +0.000 C 
ATOM     19  N   UNL     1      -0.795  11.932  22.212  0.00  0.00    +0.000 N 
ATOM     20  H   UNL     1       0.188  12.168  22.331  0.00  0.00    +0.000 HD
ENDBRANCH   7  19
ENDBRANCH   1  14
BRANCH   4  21
ATOM     21  O   UNL     1       4.497   5.229  17.931  0.00  0.00    +0.000 OA
BRANCH  21  22
ATOM     22  C   UNL     1       3.871   4.242  17.112  0.00  0.00    +0.000 C 
BRANCH  22  23
ATOM     23  C   UNL     1       4.036   2.859  17.720  0.00  0.00    +0.000 C 
BRANCH  23  24
ATOM     24  C   UNL     1       4.126   2.933  19.246  0.00  0.00    +0.000 C 
BRANCH  24  25
ATOM     25  N   UNL     1       3.163   2.050  19.928  0.00  0.00    +0.000 NA
ATOM     26  C   UNL     1       1.867   2.043  19.206  0.00  0.00    +0.000 C 
ATOM     27  C   UNL     1       1.034   3.327  19.397  0.00  0.00    +0.000 C 
ATOM     28  O   UNL     1       0.846   3.648  20.782  0.00  0.00    +0.000 OA
ATOM     29  C   UNL     1       2.103   3.738  21.465  0.00  0.00    +0.000 C 
ATOM     30  C   UNL     1       2.887   2.426  21.331  0.00  0.00    +0.000 C 
ENDBRANCH  24  25
ENDBRANCH  23  24
ENDBRANCH  22  23
ENDBRANCH  21  22
ENDBRANCH   4  21
TORSDOF 7
ENDMDL
MODEL 9
REMARK VINA RESULT:      -7.3      7.129      8.686
REMARK  Name = 
REMARK  8 active torsions:
REMARK  status: ('A' for Active; 'I' for Inactive)
REMARK    1  A    between atoms: C_1  and  N_2
REMARK    2  A    between atoms: N_2  and  C_3
REMARK    3  A    between atoms: C_10  and  C_11
REMARK    4  A    between atoms: C_14  and  O_15
REMARK    5  A    between atoms: O_15  and  C_16
REMARK    6  A    between atoms: C_16  and  C_17
REMARK    7  A    between atoms: C_17  and  C_18
REMARK    8  A    between atoms: C_18  and  N_19
REMARK                            x       y       z     vdW  Elec       q    Type
REMARK                         _______ _______ _______ _____ _____    ______ ____
ROOT
ATOM      1  C   UNL     1       1.042   9.346  19.715  0.00  0.00    +0.000 A 
ATOM      2  C   UNL     1       1.437   9.500  18.389  0.00  0.00    +0.000 A 
ATOM      3  C   UNL     1       2.178   8.510  17.754  0.00  0.00    +0.000 A 
ATOM      4  C   UNL     1       2.537   7.349  18.440  0.00  0.00    +0.000 A 
ATOM      5  C   UNL     1       2.203   7.217  19.788  0.00  0.00    +0.000 A 
ATOM      6  C   UNL     1       1.463   8.217  20.428  0.00  0.00    +0.000 A 
ENDROOT
BRANCH   1  14
ATOM      7  C   UNL     1      -2.355  12.815  20.636  0.00  0.00    +0.000 A 
ATOM      8  C   UNL     1      -2.462  13.625  21.791  0.00  0.00    +0.000 A 
ATOM      9 BR   UNL     1      -3.767  15.003  21.907  0.00  0.00    +0.000 Br
ATOM     10  C   UNL     1      -1.637  13.410  22.898  0.00  0.00    +0.000 A 
ATOM     11  N   UNL     1      -0.672  12.463  22.998  0.00  0.00    +0.000 NA
ATOM     12  C   UNL     1      -0.572  11.750  21.866  0.00  0.00    +0.000 A 
ATOM     13  N   UNL     1       0.322  10.755  21.631  0.00  0.00    +0.000 N 
ATOM     14  C   UNL     1       0.153  10.317  20.337  0.00  0.00    +0.000 A 
ATOM     15  N   UNL     1      -0.851  10.953  19.765  0.00  0.00    +0.000 NA
ATOM     16  C   UNL     1      -1.315  11.857  20.700  0.00  0.00    +0.000 A 
ATOM     17  H   UNL     1       1.033  10.453  22.277  0.00  0.00    +0.000 HD
BRANCH   7  19
ATOM     18  C   UNL     1      -4.337  12.178  19.376  0.00  0.00    +0.000 C 
ATOM     19  N   UNL     1      -3.180  13.057  19.505  0.00  0.00    +0.000 N 
ATOM     20  H   UNL     1      -3.451  14.037  19.479  0.00  0.00    +0.000 HD
ENDBRANCH   7  19
ENDBRANCH   1  14
BRANCH   4  21
ATOM     21  O   UNL     1       3.199   6.288  17.884  0.00  0.00    +0.000 OA
BRANCH  21  22
ATOM     22  C   UNL     1       3.158   5.086  18.650  0.00  0.00    +0.000 C 
BRANCH  22  23
ATOM     23  C   UNL     1       3.525   3.889  17.788  0.00  0.00    +0.000 C 
BRANCH  23  24
ATOM     24  C   UNL     1       4.310   4.321  16.547  0.00  0.00    +0.000 C 
BRANCH  24  25
ATOM     25  N   UNL     1       5.663   3.743  16.485  0.00  0.00    +0.000 NA
ATOM     26  C   UNL     1       6.580   4.473  17.393  0.00  0.00    +0.000 C 
ATOM     27  C   UNL     1       7.003   5.862  16.875  0.00  0.00    +0.000 C 
ATOM     28  O   UNL     1       7.539   5.803  15.546  0.00  0.00    +0.000 OA
ATOM     29  C   UNL     1       6.619   5.171  14.647  0.00  0.00    +0.000 C 
ATOM     30  C   UNL     1       6.267   3.760  15.136  0.00  0.00    +0.000 C 
ENDBRANCH  24  25
ENDBRANCH  23  24
ENDBRANCH  22  23
ENDBRANCH  21  22
ENDBRANCH   4  21
TORSDOF 7
ENDMDL
