MODEL 1
REMARK VINA RESULT:      -8.9      0.000      0.000
REMARK  Name = 
REMARK  5 active torsions:
REMARK  status: ('A' for Active; 'I' for Inactive)
REMARK    1  A    between atoms: C_2  and  C_23
REMARK    2  A    between atoms: N_3  and  C_4
REMARK    3  A    between atoms: C_7  and  N_8
REMARK    4  A    between atoms: C_10  and  C_11
REMARK    5  A    between atoms: C_16  and  C_17
REMARK                            x       y       z     vdW  Elec       q    Type
REMARK                         _______ _______ _______ _____ _____    ______ ____
ROOT
ATOM      1  C   UNL     1       1.171   8.905  19.528  0.00  0.00    +0.000 A 
ATOM      2  C   UNL     1       1.744   9.018  18.258  0.00  0.00    +0.000 A 
ATOM      3  C   UNL     1       2.621   8.046  17.777  0.00  0.00    +0.000 A 
ATOM      4  C   UNL     1       2.914   6.922  18.554  0.00  0.00    +0.000 A 
ATOM      5  C   UNL     1       2.383   6.818  19.844  0.00  0.00    +0.000 A 
ATOM      6  C   UNL     1       1.515   7.810  20.328  0.00  0.00    +0.000 A 
ENDROOT
BRANCH   4   7
ATOM      7  N   UNL     1       3.770   5.929  18.007  0.00  0.00    +0.000 N 
ATOM      8  N   UNL     1       5.034   6.290  17.660  0.00  0.00    +0.000 NA
ATOM      9  C   UNL     1       5.675   5.147  17.361  0.00  0.00    +0.000 A 
ATOM     10  C   UNL     1       4.769   4.064  17.387  0.00  0.00    +0.000 A 
ATOM     11  C   UNL     1       3.546   4.595  17.754  0.00  0.00    +0.000 A 
BRANCH   9  12
ATOM     12  C   UNL     1       7.141   5.076  17.014  0.00  0.00    +0.000 C 
ATOM     13  F   UNL     1       7.399   4.456  15.835  0.00  0.00    +0.000 F 
ATOM     14  F   UNL     1       7.685   6.321  16.928  0.00  0.00    +0.000 F 
ATOM     15  F   UNL     1       7.847   4.417  17.971  0.00  0.00    +0.000 F 
ENDBRANCH   9  12
BRANCH  11  16
ATOM     16  C   UNL     1       2.231   3.932  17.775  0.00  0.00    +0.000 C 
ATOM     17  F   UNL     1       1.217   4.630  17.217  0.00  0.00    +0.000 F 
ATOM     18  F   UNL     1       2.280   2.749  17.107  0.00  0.00    +0.000 F 
ATOM     19  F   UNL     1       1.859   3.640  19.047  0.00  0.00    +0.000 F 
ENDBRANCH  11  16
ENDBRANCH   4   7
BRANCH   1  22
ATOM     20  O   UNL     1       1.296  10.282  22.103  0.00  0.00    +0.000 OA
ATOM     21  C   UNL     1       0.369  10.427  21.311  0.00  0.00    +0.000 C 
ATOM     22  N   UNL     1       0.279   9.867  20.050  0.00  0.00    +0.000 N 
ATOM     23  H   UNL     1      -0.399  10.264  19.406  0.00  0.00    +0.000 HD
BRANCH  21  24
ATOM     24  C   UNL     1      -0.724  11.328  21.725  0.00  0.00    +0.000 A 
ATOM     25  C   UNL     1      -1.249  11.158  23.005  0.00  0.00    +0.000 A 
ATOM     26  C   UNL     1      -2.338  11.922  23.367  0.00  0.00    +0.000 A 
ATOM     27  N   UNL     1      -2.918  12.825  22.547  0.00  0.00    +0.000 NA
ATOM     28  C   UNL     1      -2.396  12.959  21.308  0.00  0.00    +0.000 A 
ATOM     29  C   UNL     1      -1.301  12.246  20.848  0.00  0.00    +0.000 A 
ENDBRANCH  21  24
ENDBRANCH   1  22
TORSDOF 5
ENDMDL
MODEL 2
REMARK VINA RESULT:      -8.9      0.071      1.003
REMARK  Name = 
REMARK  5 active torsions:
REMARK  status: ('A' for Active; 'I' for Inactive)
REMARK    1  A    between atoms: C_2  and  C_23
REMARK    2  A    between atoms: N_3  and  C_4
REMARK    3  A    between atoms: C_7  and  N_8
REMARK    4  A    between atoms: C_10  and  C_11
REMARK    5  A    between atoms: C_16  and  C_17
REMARK                            x       y       z     vdW  Elec       q    Type
REMARK                         _______ _______ _______ _____ _____    ______ ____
ROOT
ATOM      1  C   UNL     1       1.191   8.916  19.521  0.00  0.00    +0.000 A 
ATOM      2  C   UNL     1       1.748   9.001  18.242  0.00  0.00    +0.000 A 
ATOM      3  C   UNL     1       2.615   8.015  17.770  0.00  0.00    +0.000 A 
ATOM      4  C   UNL     1       2.914   6.906  18.566  0.00  0.00    +0.000 A 
ATOM      5  C   UNL     1       2.399   6.831  19.864  0.00  0.00    +0.000 A 
ATOM      6  C   UNL     1       1.542   7.837  20.339  0.00  0.00    +0.000 A 
ENDROOT
BRANCH   4   7
ATOM      7  N   UNL     1       3.758   5.899  18.028  0.00  0.00    +0.000 N 
ATOM      8  N   UNL     1       5.022   6.247  17.663  0.00  0.00    +0.000 NA
ATOM      9  C   UNL     1       5.652   5.095  17.378  0.00  0.00    +0.000 A 
ATOM     10  C   UNL     1       4.741   4.017  17.432  0.00  0.00    +0.000 A 
ATOM     11  C   UNL     1       3.525   4.562  17.800  0.00  0.00    +0.000 A 
BRANCH   9  12
ATOM     12  C   UNL     1       7.116   5.009  17.018  0.00  0.00    +0.000 C 
ATOM     13  F   UNL     1       7.870   4.348  17.933  0.00  0.00    +0.000 F 
ATOM     14  F   UNL     1       7.292   4.369  15.830  0.00  0.00    +0.000 F 
ATOM     15  F   UNL     1       7.664   6.244  16.872  0.00  0.00    +0.000 F 
ENDBRANCH   9  12
BRANCH  11  16
ATOM     16  C   UNL     1       2.206   3.907  17.846  0.00  0.00    +0.000 C 
ATOM     17  F   UNL     1       1.712   3.676  19.083  0.00  0.00    +0.000 F 
ATOM     18  F   UNL     1       1.273   4.664  17.209  0.00  0.00    +0.000 F 
ATOM     19  F   UNL     1       2.239   2.713  17.203  0.00  0.00    +0.000 F 
ENDBRANCH  11  16
ENDBRANCH   4   7
BRANCH   1  22
ATOM     20  O   UNL     1       1.277  10.244  22.123  0.00  0.00    +0.000 OA
ATOM     21  C   UNL     1       0.378  10.428  21.308  0.00  0.00    +0.000 C 
ATOM     22  N   UNL     1       0.310   9.893  20.034  0.00  0.00    +0.000 N 
ATOM     23  H   UNL     1      -0.338  10.319  19.379  0.00  0.00    +0.000 HD
BRANCH  21  24
ATOM     24  C   UNL     1      -0.703  11.350  21.707  0.00  0.00    +0.000 A 
ATOM     25  C   UNL     1      -1.235  11.204  22.986  0.00  0.00    +0.000 A 
ATOM     26  C   UNL     1      -2.314  11.989  23.336  0.00  0.00    +0.000 A 
ATOM     27  N   UNL     1      -2.877  12.890  22.502  0.00  0.00    +0.000 NA
ATOM     28  C   UNL     1      -2.349  13.001  21.264  0.00  0.00    +0.000 A 
ATOM     29  C   UNL     1      -1.263  12.266  20.817  0.00  0.00    +0.000 A 
ENDBRANCH  21  24
ENDBRANCH   1  22
TORSDOF 5
ENDMDL
MODEL 3
REMARK VINA RESULT:      -8.8      0.242      1.132
REMARK  Name = 
REMARK  5 active torsions:
REMARK  status: ('A' for Active; 'I' for Inactive)
REMARK    1  A    between atoms: C_2  and  C_23
REMARK    2  A    between atoms: N_3  and  C_4
REMARK    3  A    between atoms: C_7  and  N_8
REMARK    4  A    between atoms: C_10  and  C_11
REMARK    5  A    between atoms: C_16  and  C_17
REMARK                            x       y       z     vdW  Elec       q    Type
REMARK                         _______ _______ _______ _____ _____    ______ ____
ROOT
ATOM      1  C   UNL     1       1.179   8.988  19.579  0.00  0.00    +0.000 A 
ATOM      2  C   UNL     1       1.561   7.860  20.310  0.00  0.00    +0.000 A 
ATOM      3  C   UNL     1       2.387   6.886  19.748  0.00  0.00    +0.000 A 
ATOM      4  C   UNL     1       2.871   7.045  18.447  0.00  0.00    +0.000 A 
ATOM      5  C   UNL     1       2.461   8.146  17.689  0.00  0.00    +0.000 A 
ATOM      6  C   UNL     1       1.614   9.112  18.256  0.00  0.00    +0.000 A 
ENDROOT
BRANCH   4   7
ATOM      7  N   UNL     1       3.752   6.058  17.930  0.00  0.00    +0.000 N 
ATOM      8  N   UNL     1       5.009   6.439  17.576  0.00  0.00    +0.000 NA
ATOM      9  C   UNL     1       5.676   5.303  17.312  0.00  0.00    +0.000 A 
ATOM     10  C   UNL     1       4.796   4.200  17.365  0.00  0.00    +0.000 A 
ATOM     11  C   UNL     1       3.560   4.712  17.713  0.00  0.00    +0.000 A 
BRANCH   9  12
ATOM     12  C   UNL     1       7.146   5.257  16.971  0.00  0.00    +0.000 C 
ATOM     13  F   UNL     1       7.838   4.302  17.644  0.00  0.00    +0.000 F 
ATOM     14  F   UNL     1       7.334   5.014  15.645  0.00  0.00    +0.000 F 
ATOM     15  F   UNL     1       7.754   6.444  17.231  0.00  0.00    +0.000 F 
ENDBRANCH   9  12
BRANCH  11  16
ATOM     16  C   UNL     1       2.261   4.019  17.750  0.00  0.00    +0.000 C 
ATOM     17  F   UNL     1       1.213   4.719  17.260  0.00  0.00    +0.000 F 
ATOM     18  F   UNL     1       2.311   2.870  17.026  0.00  0.00    +0.000 F 
ATOM     19  F   UNL     1       1.940   3.662  19.018  0.00  0.00    +0.000 F 
ENDBRANCH  11  16
ENDBRANCH   4   7
BRANCH   1  22
ATOM     20  O   UNL     1       1.309  10.232  22.220  0.00  0.00    +0.000 OA
ATOM     21  C   UNL     1       0.429  10.488  21.402  0.00  0.00    +0.000 C 
ATOM     22  N   UNL     1       0.346   9.995  20.113  0.00  0.00    +0.000 N 
ATOM     23  H   UNL     1      -0.272  10.474  19.465  0.00  0.00    +0.000 HD
BRANCH  21  24
ATOM     24  C   UNL     1      -0.604  11.455  21.819  0.00  0.00    +0.000 A 
ATOM     25  C   UNL     1      -1.295  11.191  23.000  0.00  0.00    +0.000 A 
ATOM     26  C   UNL     1      -2.333  12.030  23.348  0.00  0.00    +0.000 A 
ATOM     27  N   UNL     1      -2.711  13.091  22.604  0.00  0.00    +0.000 NA
ATOM     28  C   UNL     1      -2.033  13.315  21.457  0.00  0.00    +0.000 A 
ATOM     29  C   UNL     1      -0.971  12.539  21.022  0.00  0.00    +0.000 A 
ENDBRANCH  21  24
ENDBRANCH   1  22
TORSDOF 5
ENDMDL
MODEL 4
REMARK VINA RESULT:      -8.8      0.473      1.308
REMARK  Name = 
REMARK  5 active torsions:
REMARK  status: ('A' for Active; 'I' for Inactive)
REMARK    1  A    between atoms: C_2  and  C_23
REMARK    2  A    between atoms: N_3  and  C_4
REMARK    3  A    between atoms: C_7  and  N_8
REMARK    4  A    between atoms: C_10  and  C_11
REMARK    5  A    between atoms: C_16  and  C_17
REMARK                            x       y       z     vdW  Elec       q    Type
REMARK                         _______ _______ _______ _____ _____    ______ ____
ROOT
ATOM      1  C   UNL     1       1.300   8.849  19.685  0.00  0.00    +0.000 A 
ATOM      2  C   UNL     1       1.618   7.669  20.364  0.00  0.00    +0.000 A 
ATOM      3  C   UNL     1       2.408   6.688  19.765  0.00  0.00    +0.000 A 
ATOM      4  C   UNL     1       2.922   6.891  18.481  0.00  0.00    +0.000 A 
ATOM      5  C   UNL     1       2.575   8.047  17.775  0.00  0.00    +0.000 A 
ATOM      6  C   UNL     1       1.764   9.021  18.377  0.00  0.00    +0.000 A 
ENDROOT
BRANCH   4   7
ATOM      7  N   UNL     1       3.766   5.891  17.928  0.00  0.00    +0.000 N 
ATOM      8  N   UNL     1       5.025   6.246  17.556  0.00  0.00    +0.000 NA
ATOM      9  C   UNL     1       5.658   5.099  17.256  0.00  0.00    +0.000 A 
ATOM     10  C   UNL     1       4.750   4.018  17.307  0.00  0.00    +0.000 A 
ATOM     11  C   UNL     1       3.535   4.555  17.690  0.00  0.00    +0.000 A 
BRANCH   9  12
ATOM     12  C   UNL     1       7.118   5.022  16.885  0.00  0.00    +0.000 C 
ATOM     13  F   UNL     1       7.347   4.485  15.659  0.00  0.00    +0.000 F 
ATOM     14  F   UNL     1       7.690   6.257  16.883  0.00  0.00    +0.000 F 
ATOM     15  F   UNL     1       7.820   4.277  17.780  0.00  0.00    +0.000 F 
ENDBRANCH   9  12
BRANCH  11  16
ATOM     16  C   UNL     1       2.219   3.895  17.740  0.00  0.00    +0.000 C 
ATOM     17  F   UNL     1       1.182   4.628  17.277  0.00  0.00    +0.000 F 
ATOM     18  F   UNL     1       2.227   2.755  17.000  0.00  0.00    +0.000 F 
ATOM     19  F   UNL     1       1.911   3.530  19.009  0.00  0.00    +0.000 F 
ENDBRANCH  11  16
ENDBRANCH   4   7
BRANCH   1  22
ATOM     20  O   UNL     1       1.495  10.011  22.360  0.00  0.00    +0.000 OA
ATOM     21  C   UNL     1       0.615  10.317  21.560  0.00  0.00    +0.000 C 
ATOM     22  N   UNL     1       0.504   9.865  20.258  0.00  0.00    +0.000 N 
ATOM     23  H   UNL     1      -0.105  10.382  19.630  0.00  0.00    +0.000 HD
BRANCH  21  24
ATOM     24  C   UNL     1      -0.384  11.304  22.016  0.00  0.00    +0.000 A 
ATOM     25  C   UNL     1      -0.271  12.605  21.532  0.00  0.00    +0.000 A 
ATOM     26  C   UNL     1      -1.132  13.561  22.030  0.00  0.00    +0.000 A 
ATOM     27  N   UNL     1      -2.077  13.297  22.958  0.00  0.00    +0.000 NA
ATOM     28  C   UNL     1      -2.154  12.030  23.419  0.00  0.00    +0.000 A 
ATOM     29  C   UNL     1      -1.343  10.996  22.981  0.00  0.00    +0.000 A 
ENDBRANCH  21  24
ENDBRANCH   1  22
TORSDOF 5
ENDMDL
MODEL 5
REMARK VINA RESULT:      -8.8      0.173      1.366
REMARK  Name = 
REMARK  5 active torsions:
REMARK  status: ('A' for Active; 'I' for Inactive)
REMARK    1  A    between atoms: C_2  and  C_23
REMARK    2  A    between atoms: N_3  and  C_4
REMARK    3  A    between atoms: C_7  and  N_8
REMARK    4  A    between atoms: C_10  and  C_11
REMARK    5  A    between atoms: C_16  and  C_17
REMARK                            x       y       z     vdW  Elec       q    Type
REMARK                         _______ _______ _______ _____ _____    ______ ____
ROOT
ATOM      1  C   UNL     1       1.184   8.935  19.607  0.00  0.00    +0.000 A 
ATOM      2  C   UNL     1       1.592   7.825  20.353  0.00  0.00    +0.000 A 
ATOM      3  C   UNL     1       2.411   6.846  19.791  0.00  0.00    +0.000 A 
ATOM      4  C   UNL     1       2.862   6.981  18.475  0.00  0.00    +0.000 A 
ATOM      5  C   UNL     1       2.425   8.063  17.704  0.00  0.00    +0.000 A 
ATOM      6  C   UNL     1       1.586   9.035  18.271  0.00  0.00    +0.000 A 
ENDROOT
BRANCH   4   7
ATOM      7  N   UNL     1       3.737   5.988  17.957  0.00  0.00    +0.000 N 
ATOM      8  N   UNL     1       4.986   6.368  17.575  0.00  0.00    +0.000 NA
ATOM      9  C   UNL     1       5.653   5.231  17.316  0.00  0.00    +0.000 A 
ATOM     10  C   UNL     1       4.778   4.126  17.403  0.00  0.00    +0.000 A 
ATOM     11  C   UNL     1       3.547   4.639  17.765  0.00  0.00    +0.000 A 
BRANCH   9  12
ATOM     12  C   UNL     1       7.116   5.185  16.950  0.00  0.00    +0.000 C 
ATOM     13  F   UNL     1       7.696   6.408  16.844  0.00  0.00    +0.000 F 
ATOM     14  F   UNL     1       7.833   4.492  17.876  0.00  0.00    +0.000 F 
ATOM     15  F   UNL     1       7.312   4.550  15.764  0.00  0.00    +0.000 F 
ENDBRANCH   9  12
BRANCH  11  16
ATOM     16  C   UNL     1       2.251   3.942  17.835  0.00  0.00    +0.000 C 
ATOM     17  F   UNL     1       1.801   3.673  19.081  0.00  0.00    +0.000 F 
ATOM     18  F   UNL     1       1.277   4.681  17.240  0.00  0.00    +0.000 F 
ATOM     19  F   UNL     1       2.302   2.762  17.168  0.00  0.00    +0.000 F 
ENDBRANCH  11  16
ENDBRANCH   4   7
BRANCH   1  22
ATOM     20  O   UNL     1       1.160  10.009  22.325  0.00  0.00    +0.000 OA
ATOM     21  C   UNL     1       0.360  10.356  21.461  0.00  0.00    +0.000 C 
ATOM     22  N   UNL     1       0.356   9.948  20.141  0.00  0.00    +0.000 N 
ATOM     23  H   UNL     1      -0.186  10.495  19.479  0.00  0.00    +0.000 HD
BRANCH  21  24
ATOM     24  C   UNL     1      -0.660  11.346  21.860  0.00  0.00    +0.000 A 
ATOM     25  C   UNL     1      -1.326  11.135  23.065  0.00  0.00    +0.000 A 
ATOM     26  C   UNL     1      -2.353  11.993  23.401  0.00  0.00    +0.000 A 
ATOM     27  N   UNL     1      -2.740  13.026  22.621  0.00  0.00    +0.000 NA
ATOM     28  C   UNL     1      -2.085  13.199  21.453  0.00  0.00    +0.000 A 
ATOM     29  C   UNL     1      -1.038  12.399  21.027  0.00  0.00    +0.000 A 
ENDBRANCH  21  24
ENDBRANCH   1  22
TORSDOF 5
ENDMDL
MODEL 6
REMARK VINA RESULT:      -8.8      0.446      1.245
REMARK  Name = 
REMARK  5 active torsions:
REMARK  status: ('A' for Active; 'I' for Inactive)
REMARK    1  A    between atoms: C_2  and  C_23
REMARK    2  A    between atoms: N_3  and  C_4
REMARK    3  A    between atoms: C_7  and  N_8
REMARK    4  A    between atoms: C_10  and  C_11
REMARK    5  A    between atoms: C_16  and  C_17
REMARK                            x       y       z     vdW  Elec       q    Type
REMARK                         _______ _______ _______ _____ _____    ______ ____
ROOT
ATOM      1  C   UNL     1       0.950   9.009  19.580  0.00  0.00    +0.000 A 
ATOM      2  C   UNL     1       1.434   9.150  18.276  0.00  0.00    +0.000 A 
ATOM      3  C   UNL     1       2.357   8.244  17.752  0.00  0.00    +0.000 A 
ATOM      4  C   UNL     1       2.785   7.158  18.521  0.00  0.00    +0.000 A 
ATOM      5  C   UNL     1       2.342   7.031  19.841  0.00  0.00    +0.000 A 
ATOM      6  C   UNL     1       1.429   7.957  20.367  0.00  0.00    +0.000 A 
ENDROOT
BRANCH   4   7
ATOM      7  N   UNL     1       3.684   6.229  17.932  0.00  0.00    +0.000 N 
ATOM      8  N   UNL     1       4.897   6.683  17.516  0.00  0.00    +0.000 NA
ATOM      9  C   UNL     1       5.606   5.590  17.188  0.00  0.00    +0.000 A 
ATOM     10  C   UNL     1       4.788   4.441  17.266  0.00  0.00    +0.000 A 
ATOM     11  C   UNL     1       3.550   4.880  17.695  0.00  0.00    +0.000 A 
BRANCH   9  12
ATOM     12  C   UNL     1       7.054   5.628  16.763  0.00  0.00    +0.000 C 
ATOM     13  F   UNL     1       7.649   6.835  16.943  0.00  0.00    +0.000 F 
ATOM     14  F   UNL     1       7.793   4.721  17.458  0.00  0.00    +0.000 F 
ATOM     15  F   UNL     1       7.195   5.309  15.449  0.00  0.00    +0.000 F 
ENDBRANCH   9  12
BRANCH  11  16
ATOM     16  C   UNL     1       2.292   4.119  17.789  0.00  0.00    +0.000 C 
ATOM     17  F   UNL     1       1.196   4.743  17.303  0.00  0.00    +0.000 F 
ATOM     18  F   UNL     1       2.388   2.949  17.103  0.00  0.00    +0.000 F 
ATOM     19  F   UNL     1       2.023   3.790  19.077  0.00  0.00    +0.000 F 
ENDBRANCH  11  16
ENDBRANCH   4   7
BRANCH   1  22
ATOM     20  O   UNL     1       1.422  11.106  21.560  0.00  0.00    +0.000 OA
ATOM     21  C   UNL     1       0.305  10.830  21.131  0.00  0.00    +0.000 C 
ATOM     22  N   UNL     1       0.015   9.905  20.145  0.00  0.00    +0.000 N 
ATOM     23  H   UNL     1      -0.899   9.955  19.706  0.00  0.00    +0.000 HD
BRANCH  21  24
ATOM     24  C   UNL     1      -0.827  11.599  21.684  0.00  0.00    +0.000 A 
ATOM     25  C   UNL     1      -1.255  12.717  20.971  0.00  0.00    +0.000 A 
ATOM     26  C   UNL     1      -2.242  13.504  21.527  0.00  0.00    +0.000 A 
ATOM     27  N   UNL     1      -2.813  13.244  22.723  0.00  0.00    +0.000 NA
ATOM     28  C   UNL     1      -2.369  12.161  23.398  0.00  0.00    +0.000 A 
ATOM     29  C   UNL     1      -1.389  11.303  22.926  0.00  0.00    +0.000 A 
ENDBRANCH  21  24
ENDBRANCH   1  22
TORSDOF 5
ENDMDL
MODEL 7
REMARK VINA RESULT:      -8.8      0.601      1.203
REMARK  Name = 
REMARK  5 active torsions:
REMARK  status: ('A' for Active; 'I' for Inactive)
REMARK    1  A    between atoms: C_2  and  C_23
REMARK    2  A    between atoms: N_3  and  C_4
REMARK    3  A    between atoms: C_7  and  N_8
REMARK    4  A    between atoms: C_10  and  C_11
REMARK    5  A    between atoms: C_16  and  C_17
REMARK                            x       y       z     vdW  Elec       q    Type
REMARK                         _______ _______ _______ _____ _____    ______ ____
ROOT
ATOM      1  C   UNL     1       1.000   9.062  19.746  0.00  0.00    +0.000 A 
ATOM      2  C   UNL     1       1.431   9.210  18.425  0.00  0.00    +0.000 A 
ATOM      3  C   UNL     1       2.317   8.296  17.853  0.00  0.00    +0.000 A 
ATOM      4  C   UNL     1       2.761   7.196  18.591  0.00  0.00    +0.000 A 
ATOM      5  C   UNL     1       2.372   7.061  19.928  0.00  0.00    +0.000 A 
ATOM      6  C   UNL     1       1.495   7.995  20.502  0.00  0.00    +0.000 A 
ENDROOT
BRANCH   4   7
ATOM      7  N   UNL     1       3.619   6.260  17.956  0.00  0.00    +0.000 N 
ATOM      8  N   UNL     1       4.834   6.692  17.523  0.00  0.00    +0.000 NA
ATOM      9  C   UNL     1       5.505   5.590  17.147  0.00  0.00    +0.000 A 
ATOM     10  C   UNL     1       4.658   4.462  17.215  0.00  0.00    +0.000 A 
ATOM     11  C   UNL     1       3.443   4.922  17.686  0.00  0.00    +0.000 A 
BRANCH   9  12
ATOM     12  C   UNL     1       6.942   5.602  16.688  0.00  0.00    +0.000 C 
ATOM     13  F   UNL     1       7.587   6.772  16.927  0.00  0.00    +0.000 F 
ATOM     14  F   UNL     1       7.662   4.625  17.305  0.00  0.00    +0.000 F 
ATOM     15  F   UNL     1       7.040   5.362  15.354  0.00  0.00    +0.000 F 
ENDBRANCH   9  12
BRANCH  11  16
ATOM     16  C   UNL     1       2.168   4.192  17.791  0.00  0.00    +0.000 C 
ATOM     17  F   UNL     1       2.144   2.973  17.207  0.00  0.00    +0.000 F 
ATOM     18  F   UNL     1       1.839   3.987  19.093  0.00  0.00    +0.000 F 
ATOM     19  F   UNL     1       1.155   4.911  17.246  0.00  0.00    +0.000 F 
ENDBRANCH  11  16
ENDBRANCH   4   7
BRANCH   1  22
ATOM     20  O   UNL     1       1.616  11.550  21.151  0.00  0.00    +0.000 OA
ATOM     21  C   UNL     1       0.480  11.093  21.067  0.00  0.00    +0.000 C 
ATOM     22  N   UNL     1       0.104   9.965  20.360  0.00  0.00    +0.000 N 
ATOM     23  H   UNL     1      -0.884   9.843  20.159  0.00  0.00    +0.000 HD
BRANCH  21  24
ATOM     24  C   UNL     1      -0.593  11.852  21.739  0.00  0.00    +0.000 A 
ATOM     25  C   UNL     1      -1.255  11.233  22.797  0.00  0.00    +0.000 A 
ATOM     26  C   UNL     1      -2.327  11.888  23.366  0.00  0.00    +0.000 A 
ATOM     27  N   UNL     1      -2.764  13.096  22.950  0.00  0.00    +0.000 NA
ATOM     28  C   UNL     1      -2.112  13.667  21.914  0.00  0.00    +0.000 A 
ATOM     29  C   UNL     1      -1.021  13.097  21.278  0.00  0.00    +0.000 A 
ENDBRANCH  21  24
ENDBRANCH   1  22
TORSDOF 5
ENDMDL
MODEL 8
REMARK VINA RESULT:      -8.7      0.399      1.643
REMARK  Name = 
REMARK  5 active torsions:
REMARK  status: ('A' for Active; 'I' for Inactive)
REMARK    1  A    between atoms: C_2  and  C_23
REMARK    2  A    between atoms: N_3  and  C_4
REMARK    3  A    between atoms: C_7  and  N_8
REMARK    4  A    between atoms: C_10  and  C_11
REMARK    5  A    between atoms: C_16  and  C_17
REMARK                            x       y       z     vdW  Elec       q    Type
REMARK                         _______ _______ _______ _____ _____    ______ ____
ROOT
ATOM      1  C   UNL     1       1.285   8.833  19.666  0.00  0.00    +0.000 A 
ATOM      2  C   UNL     1       1.623   7.676  20.375  0.00  0.00    +0.000 A 
ATOM      3  C   UNL     1       2.426   6.691  19.799  0.00  0.00    +0.000 A 
ATOM      4  C   UNL     1       2.932   6.867  18.508  0.00  0.00    +0.000 A 
ATOM      5  C   UNL     1       2.566   7.998  17.773  0.00  0.00    +0.000 A 
ATOM      6  C   UNL     1       1.741   8.976  18.352  0.00  0.00    +0.000 A 
ENDROOT
BRANCH   4   7
ATOM      7  N   UNL     1       3.789   5.865  17.979  0.00  0.00    +0.000 N 
ATOM      8  N   UNL     1       5.051   6.224  17.618  0.00  0.00    +0.000 NA
ATOM      9  C   UNL     1       5.694   5.077  17.341  0.00  0.00    +0.000 A 
ATOM     10  C   UNL     1       4.792   3.991  17.395  0.00  0.00    +0.000 A 
ATOM     11  C   UNL     1       3.569   4.525  17.756  0.00  0.00    +0.000 A 
BRANCH   9  12
ATOM     12  C   UNL     1       7.159   5.004  16.989  0.00  0.00    +0.000 C 
ATOM     13  F   UNL     1       7.911   4.327  17.894  0.00  0.00    +0.000 F 
ATOM     14  F   UNL     1       7.345   4.389  15.789  0.00  0.00    +0.000 F 
ATOM     15  F   UNL     1       7.704   6.244  16.870  0.00  0.00    +0.000 F 
ENDBRANCH   9  12
BRANCH  11  16
ATOM     16  C   UNL     1       2.257   3.858  17.798  0.00  0.00    +0.000 C 
ATOM     17  F   UNL     1       2.182   2.678  17.143  0.00  0.00    +0.000 F 
ATOM     18  F   UNL     1       1.895   3.594  19.082  0.00  0.00    +0.000 F 
ATOM     19  F   UNL     1       1.292   4.659  17.283  0.00  0.00    +0.000 F 
ENDBRANCH  11  16
ENDBRANCH   4   7
BRANCH   1  22
ATOM     20  O   UNL     1       1.417  10.008  22.339  0.00  0.00    +0.000 OA
ATOM     21  C   UNL     1       0.556  10.311  21.516  0.00  0.00    +0.000 C 
ATOM     22  N   UNL     1       0.476   9.852  20.214  0.00  0.00    +0.000 N 
ATOM     23  H   UNL     1      -0.118  10.366  19.570  0.00  0.00    +0.000 HD
BRANCH  21  24
ATOM     24  C   UNL     1      -0.453  11.299  21.944  0.00  0.00    +0.000 A 
ATOM     25  C   UNL     1      -0.427  12.551  21.333  0.00  0.00    +0.000 A 
ATOM     26  C   UNL     1      -1.295  13.519  21.795  0.00  0.00    +0.000 A 
ATOM     27  N   UNL     1      -2.167  13.311  22.806  0.00  0.00    +0.000 NA
ATOM     28  C   UNL     1      -2.160  12.093  23.388  0.00  0.00    +0.000 A 
ATOM     29  C   UNL     1      -1.335  11.052  22.995  0.00  0.00    +0.000 A 
ENDBRANCH  21  24
ENDBRANCH   1  22
TORSDOF 5
ENDMDL
MODEL 9
REMARK VINA RESULT:      -8.7      1.041      1.471
REMARK  Name = 
REMARK  5 active torsions:
REMARK  status: ('A' for Active; 'I' for Inactive)
REMARK    1  A    between atoms: C_2  and  C_23
REMARK    2  A    between atoms: N_3  and  C_4
REMARK    3  A    between atoms: C_7  and  N_8
REMARK    4  A    between atoms: C_10  and  C_11
REMARK    5  A    between atoms: C_16  and  C_17
REMARK                            x       y       z     vdW  Elec       q    Type
REMARK                         _______ _______ _______ _____ _____    ______ ____
ROOT
ATOM      1  C   UNL     1       1.361   8.897  19.717  0.00  0.00    +0.000 A 
ATOM      2  C   UNL     1       1.831   9.006  18.405  0.00  0.00    +0.000 A 
ATOM      3  C   UNL     1       2.588   7.986  17.827  0.00  0.00    +0.000 A 
ATOM      4  C   UNL     1       2.858   6.821  18.549  0.00  0.00    +0.000 A 
ATOM      5  C   UNL     1       2.432   6.717  19.876  0.00  0.00    +0.000 A 
ATOM      6  C   UNL     1       1.687   7.756  20.457  0.00  0.00    +0.000 A 
ENDROOT
BRANCH   4   7
ATOM      7  N   UNL     1       3.587   5.784  17.905  0.00  0.00    +0.000 N 
ATOM      8  N   UNL     1       4.815   6.079  17.400  0.00  0.00    +0.000 NA
ATOM      9  C   UNL     1       5.353   4.904  17.032  0.00  0.00    +0.000 A 
ATOM     10  C   UNL     1       4.403   3.869  17.179  0.00  0.00    +0.000 A 
ATOM     11  C   UNL     1       3.265   4.463  17.692  0.00  0.00    +0.000 A 
BRANCH   9  12
ATOM     12  C   UNL     1       6.759   4.757  16.504  0.00  0.00    +0.000 C 
ATOM     13  F   UNL     1       7.630   4.223  17.398  0.00  0.00    +0.000 F 
ATOM     14  F   UNL     1       6.788   3.957  15.404  0.00  0.00    +0.000 F 
ATOM     15  F   UNL     1       7.272   5.955  16.118  0.00  0.00    +0.000 F 
ENDBRANCH   9  12
BRANCH  11  16
ATOM     16  C   UNL     1       1.931   3.869  17.883  0.00  0.00    +0.000 C 
ATOM     17  F   UNL     1       1.485   3.835  19.159  0.00  0.00    +0.000 F 
ATOM     18  F   UNL     1       0.994   4.560  17.181  0.00  0.00    +0.000 F 
ATOM     19  F   UNL     1       1.899   2.596  17.417  0.00  0.00    +0.000 F 
ENDBRANCH  11  16
ENDBRANCH   4   7
BRANCH   1  22
ATOM     20  O   UNL     1      -1.200  10.008  18.853  0.00  0.00    +0.000 OA
ATOM     21  C   UNL     1      -0.583  10.428  19.828  0.00  0.00    +0.000 C 
ATOM     22  N   UNL     1       0.592   9.906  20.337  0.00  0.00    +0.000 N 
ATOM     23  H   UNL     1       0.857  10.174  21.279  0.00  0.00    +0.000 HD
BRANCH  21  24
ATOM     24  C   UNL     1      -1.185  11.562  20.557  0.00  0.00    +0.000 A 
ATOM     25  C   UNL     1      -0.839  11.723  21.897  0.00  0.00    +0.000 A 
ATOM     26  C   UNL     1      -1.473  12.714  22.618  0.00  0.00    +0.000 A 
ATOM     27  N   UNL     1      -2.407  13.533  22.090  0.00  0.00    +0.000 NA
ATOM     28  C   UNL     1      -2.732  13.346  20.792  0.00  0.00    +0.000 A 
ATOM     29  C   UNL     1      -2.151  12.386  19.980  0.00  0.00    +0.000 A 
ENDBRANCH  21  24
ENDBRANCH   1  22
TORSDOF 5
ENDMDL
