MODEL 1
REMARK VINA RESULT:      -7.3      0.000      0.000
REMARK  Name = 
REMARK  4 active torsions:
REMARK  status: ('A' for Active; 'I' for Inactive)
REMARK    1  A    between atoms: C_1  and  C_2
REMARK    2  A    between atoms: C_5  and  C_6
REMARK    3  A    between atoms: C_13  and  C_14
REMARK    4  A    between atoms: C_18  and  S_19
REMARK                            x       y       z     vdW  Elec       q    Type
REMARK                         _______ _______ _______ _____ _____    ______ ____
ROOT
ATOM      1  C   UNL     1       4.557   1.754  19.931  0.00  0.00    +0.000 C 
ATOM      2  C   UNL     1       3.823   3.038  19.943  0.00  0.00    +0.000 A 
ATOM      3  O   UNL     1       2.660   3.052  20.650  0.00  0.00    +0.000 OA
ATOM      4  N   UNL     1       2.086   4.302  20.573  0.00  0.00    +0.000 NA
ATOM      5  C   UNL     1       2.887   5.042  19.790  0.00  0.00    +0.000 A 
ATOM      6  C   UNL     1       4.043   4.288  19.410  0.00  0.00    +0.000 A 
ENDROOT
BRANCH   5   7
ATOM      7  C   UNL     1       2.524   6.422  19.447  0.00  0.00    +0.000 A 
ATOM      8  C   UNL     1       2.806   6.939  18.174  0.00  0.00    +0.000 A 
ATOM      9  C   UNL     1       2.442   8.249  17.841  0.00  0.00    +0.000 A 
ATOM     10  C   UNL     1       1.785   9.047  18.775  0.00  0.00    +0.000 A 
ATOM     11 CL   UNL     1       1.339  10.656  18.369  0.00  0.00    +0.000 Cl
ATOM     12  C   UNL     1       1.495   8.550  20.042  0.00  0.00    +0.000 A 
ATOM     13  C   UNL     1       1.885   7.252  20.384  0.00  0.00    +0.000 A 
ENDBRANCH   5   7
BRANCH   6  14
ATOM     14  C   UNL     1       5.228   4.657  18.651  0.00  0.00    +0.000 A 
ATOM     15  C   UNL     1       6.250   5.371  19.242  0.00  0.00    +0.000 A 
ATOM     16  C   UNL     1       7.277   5.751  18.420  0.00  0.00    +0.000 A 
ATOM     17  N   UNL     1       7.332   5.429  17.116  0.00  0.00    +0.000 NA
ATOM     18  C   UNL     1       6.311   4.701  16.642  0.00  0.00    +0.000 A 
ATOM     19  N   UNL     1       5.245   4.301  17.353  0.00  0.00    +0.000 NA
BRANCH  18  20
ATOM     20  S   UNL     1       6.377   4.267  14.934  0.00  0.00    +0.000 S 
ATOM     21  H   UNL     1       5.417   3.340  15.053  0.00  0.00    +0.000 HD
ENDBRANCH  18  20
ENDBRANCH   6  14
TORSDOF 3
ENDMDL
MODEL 2
REMARK VINA RESULT:      -7.3      0.052      1.081
REMARK  Name = 
REMARK  4 active torsions:
REMARK  status: ('A' for Active; 'I' for Inactive)
REMARK    1  A    between atoms: C_1  and  C_2
REMARK    2  A    between atoms: C_5  and  C_6
REMARK    3  A    between atoms: C_13  and  C_14
REMARK    4  A    between atoms: C_18  and  S_19
REMARK                            x       y       z     vdW  Elec       q    Type
REMARK                         _______ _______ _______ _____ _____    ______ ____
ROOT
ATOM      1  C   UNL     1       4.629   1.754  19.994  0.00  0.00    +0.000 C 
ATOM      2  C   UNL     1       3.869   3.023  19.991  0.00  0.00    +0.000 A 
ATOM      3  O   UNL     1       2.709   3.024  20.702  0.00  0.00    +0.000 OA
ATOM      4  N   UNL     1       2.109   4.260  20.609  0.00  0.00    +0.000 NA
ATOM      5  C   UNL     1       2.892   5.005  19.812  0.00  0.00    +0.000 A 
ATOM      6  C   UNL     1       4.061   4.269  19.437  0.00  0.00    +0.000 A 
ENDROOT
BRANCH   5   7
ATOM      7  C   UNL     1       2.499   6.372  19.450  0.00  0.00    +0.000 A 
ATOM      8  C   UNL     1       1.876   7.207  20.388  0.00  0.00    +0.000 A 
ATOM      9  C   UNL     1       1.518   8.517  20.049  0.00  0.00    +0.000 A 
ATOM     10  C   UNL     1       1.791   9.003  18.772  0.00  0.00    +0.000 A 
ATOM     11 CL   UNL     1       1.351  10.612  18.352  0.00  0.00    +0.000 Cl
ATOM     12  C   UNL     1       2.410   8.190  17.829  0.00  0.00    +0.000 A 
ATOM     13  C   UNL     1       2.740   6.873  18.159  0.00  0.00    +0.000 A 
ENDBRANCH   5   7
BRANCH   6  14
ATOM     14  C   UNL     1       5.235   4.651  18.668  0.00  0.00    +0.000 A 
ATOM     15  C   UNL     1       6.250   5.385  19.247  0.00  0.00    +0.000 A 
ATOM     16  C   UNL     1       7.265   5.775  18.415  0.00  0.00    +0.000 A 
ATOM     17  N   UNL     1       7.317   5.444  17.113  0.00  0.00    +0.000 NA
ATOM     18  C   UNL     1       6.304   4.697  16.652  0.00  0.00    +0.000 A 
ATOM     19  N   UNL     1       5.249   4.285  17.373  0.00  0.00    +0.000 NA
BRANCH  18  20
ATOM     20  S   UNL     1       6.366   4.250  14.946  0.00  0.00    +0.000 S 
ATOM     21  H   UNL     1       5.346   5.055  14.619  0.00  0.00    +0.000 HD
ENDBRANCH  18  20
ENDBRANCH   6  14
TORSDOF 3
ENDMDL
MODEL 3
REMARK VINA RESULT:      -7.2      2.735      4.081
REMARK  Name = 
REMARK  4 active torsions:
REMARK  status: ('A' for Active; 'I' for Inactive)
REMARK    1  A    between atoms: C_1  and  C_2
REMARK    2  A    between atoms: C_5  and  C_6
REMARK    3  A    between atoms: C_13  and  C_14
REMARK    4  A    between atoms: C_18  and  S_19
REMARK                            x       y       z     vdW  Elec       q    Type
REMARK                         _______ _______ _______ _____ _____    ______ ____
ROOT
ATOM      1  C   UNL     1       6.265   3.861  15.449  0.00  0.00    +0.000 C 
ATOM      2  C   UNL     1       5.480   4.965  16.040  0.00  0.00    +0.000 A 
ATOM      3  O   UNL     1       5.764   6.213  15.578  0.00  0.00    +0.000 OA
ATOM      4  N   UNL     1       4.965   7.137  16.214  0.00  0.00    +0.000 NA
ATOM      5  C   UNL     1       4.213   6.452  17.090  0.00  0.00    +0.000 A 
ATOM      6  C   UNL     1       4.470   5.048  16.973  0.00  0.00    +0.000 A 
ENDROOT
BRANCH   5   7
ATOM      7  C   UNL     1       3.288   7.156  17.987  0.00  0.00    +0.000 A 
ATOM      8  C   UNL     1       2.665   8.344  17.579  0.00  0.00    +0.000 A 
ATOM      9  C   UNL     1       1.769   9.005  18.427  0.00  0.00    +0.000 A 
ATOM     10  C   UNL     1       1.482   8.476  19.684  0.00  0.00    +0.000 A 
ATOM     11 CL   UNL     1       0.383   9.287  20.727  0.00  0.00    +0.000 Cl
ATOM     12  C   UNL     1       2.089   7.297  20.104  0.00  0.00    +0.000 A 
ATOM     13  C   UNL     1       3.007   6.654  19.269  0.00  0.00    +0.000 A 
ENDBRANCH   5   7
BRANCH   6  14
ATOM     14  C   UNL     1       3.863   3.900  17.628  0.00  0.00    +0.000 A 
ATOM     15  C   UNL     1       2.646   3.407  17.203  0.00  0.00    +0.000 A 
ATOM     16  C   UNL     1       2.115   2.385  17.943  0.00  0.00    +0.000 A 
ATOM     17  N   UNL     1       2.739   1.846  19.005  0.00  0.00    +0.000 NA
ATOM     18  C   UNL     1       3.934   2.366  19.316  0.00  0.00    +0.000 A 
ATOM     19  N   UNL     1       4.531   3.384  18.676  0.00  0.00    +0.000 NA
BRANCH  18  20
ATOM     20  S   UNL     1       4.765   1.660  20.704  0.00  0.00    +0.000 S 
ATOM     21  H   UNL     1       3.625   1.448  21.375  0.00  0.00    +0.000 HD
ENDBRANCH  18  20
ENDBRANCH   6  14
TORSDOF 3
ENDMDL
MODEL 4
REMARK VINA RESULT:      -7.1      2.748      4.155
REMARK  Name = 
REMARK  4 active torsions:
REMARK  status: ('A' for Active; 'I' for Inactive)
REMARK    1  A    between atoms: C_1  and  C_2
REMARK    2  A    between atoms: C_5  and  C_6
REMARK    3  A    between atoms: C_13  and  C_14
REMARK    4  A    between atoms: C_18  and  S_19
REMARK                            x       y       z     vdW  Elec       q    Type
REMARK                         _______ _______ _______ _____ _____    ______ ____
ROOT
ATOM      1  C   UNL     1       6.278   3.935  15.390  0.00  0.00    +0.000 C 
ATOM      2  C   UNL     1       5.473   5.016  15.998  0.00  0.00    +0.000 A 
ATOM      3  O   UNL     1       5.732   6.275  15.551  0.00  0.00    +0.000 OA
ATOM      4  N   UNL     1       4.917   7.175  16.201  0.00  0.00    +0.000 NA
ATOM      5  C   UNL     1       4.180   6.464  17.069  0.00  0.00    +0.000 A 
ATOM      6  C   UNL     1       4.464   5.067  16.933  0.00  0.00    +0.000 A 
ENDROOT
BRANCH   5   7
ATOM      7  C   UNL     1       3.244   7.138  17.977  0.00  0.00    +0.000 A 
ATOM      8  C   UNL     1       2.964   6.600  19.242  0.00  0.00    +0.000 A 
ATOM      9  C   UNL     1       2.086   7.253  20.114  0.00  0.00    +0.000 A 
ATOM     10  C   UNL     1       1.490   8.453  19.732  0.00  0.00    +0.000 A 
ATOM     11 CL   UNL     1       0.410   9.256  20.802  0.00  0.00    +0.000 Cl
ATOM     12  C   UNL     1       1.758   9.003  18.483  0.00  0.00    +0.000 A 
ATOM     13  C   UNL     1       2.611   8.335  17.600  0.00  0.00    +0.000 A 
ENDBRANCH   5   7
BRANCH   6  14
ATOM     14  C   UNL     1       3.880   3.899  17.574  0.00  0.00    +0.000 A 
ATOM     15  C   UNL     1       2.687   3.371  17.126  0.00  0.00    +0.000 A 
ATOM     16  C   UNL     1       2.174   2.331  17.853  0.00  0.00    +0.000 A 
ATOM     17  N   UNL     1       2.794   1.807  18.925  0.00  0.00    +0.000 NA
ATOM     18  C   UNL     1       3.968   2.363  19.259  0.00  0.00    +0.000 A 
ATOM     19  N   UNL     1       4.544   3.401  18.633  0.00  0.00    +0.000 NA
BRANCH  18  20
ATOM     20  S   UNL     1       4.794   1.678  20.660  0.00  0.00    +0.000 S 
ATOM     21  H   UNL     1       4.057   0.559  20.643  0.00  0.00    +0.000 HD
ENDBRANCH  18  20
ENDBRANCH   6  14
TORSDOF 3
ENDMDL
MODEL 5
REMARK VINA RESULT:      -7.0      1.495      2.049
REMARK  Name = 
REMARK  4 active torsions:
REMARK  status: ('A' for Active; 'I' for Inactive)
REMARK    1  A    between atoms: C_1  and  C_2
REMARK    2  A    between atoms: C_5  and  C_6
REMARK    3  A    between atoms: C_13  and  C_14
REMARK    4  A    between atoms: C_18  and  S_19
REMARK                            x       y       z     vdW  Elec       q    Type
REMARK                         _______ _______ _______ _____ _____    ______ ____
ROOT
ATOM      1  C   UNL     1       4.355   2.457  19.542  0.00  0.00    +0.000 C 
ATOM      2  C   UNL     1       3.624   3.730  19.717  0.00  0.00    +0.000 A 
ATOM      3  O   UNL     1       2.723   3.764  20.735  0.00  0.00    +0.000 OA
ATOM      4  N   UNL     1       2.118   5.001  20.780  0.00  0.00    +0.000 NA
ATOM      5  C   UNL     1       2.632   5.712  19.764  0.00  0.00    +0.000 A 
ATOM      6  C   UNL     1       3.643   4.956  19.089  0.00  0.00    +0.000 A 
ENDROOT
BRANCH   5   7
ATOM      7  C   UNL     1       2.147   7.070  19.486  0.00  0.00    +0.000 A 
ATOM      8  C   UNL     1       1.592   7.852  20.509  0.00  0.00    +0.000 A 
ATOM      9  C   UNL     1       1.147   9.153  20.249  0.00  0.00    +0.000 A 
ATOM     10  C   UNL     1       1.264   9.684  18.966  0.00  0.00    +0.000 A 
ATOM     11 CL   UNL     1       0.717  11.282  18.643  0.00  0.00    +0.000 Cl
ATOM     12  C   UNL     1       1.815   8.924  17.939  0.00  0.00    +0.000 A 
ATOM     13  C   UNL     1       2.232   7.615  18.193  0.00  0.00    +0.000 A 
ENDBRANCH   5   7
BRANCH   6  14
ATOM     14  C   UNL     1       4.540   5.304  17.998  0.00  0.00    +0.000 A 
ATOM     15  C   UNL     1       4.403   4.715  16.758  0.00  0.00    +0.000 A 
ATOM     16  C   UNL     1       5.354   5.038  15.827  0.00  0.00    +0.000 A 
ATOM     17  N   UNL     1       6.352   5.905  16.066  0.00  0.00    +0.000 NA
ATOM     18  C   UNL     1       6.379   6.454  17.289  0.00  0.00    +0.000 A 
ATOM     19  N   UNL     1       5.515   6.187  18.281  0.00  0.00    +0.000 NA
BRANCH  18  20
ATOM     20  S   UNL     1       7.681   7.600  17.611  0.00  0.00    +0.000 S 
ATOM     21  H   UNL     1       6.901   8.666  17.392  0.00  0.00    +0.000 HD
ENDBRANCH  18  20
ENDBRANCH   6  14
TORSDOF 3
ENDMDL
MODEL 6
REMARK VINA RESULT:      -7.0      2.987      4.434
REMARK  Name = 
REMARK  4 active torsions:
REMARK  status: ('A' for Active; 'I' for Inactive)
REMARK    1  A    between atoms: C_1  and  C_2
REMARK    2  A    between atoms: C_5  and  C_6
REMARK    3  A    between atoms: C_13  and  C_14
REMARK    4  A    between atoms: C_18  and  S_19
REMARK                            x       y       z     vdW  Elec       q    Type
REMARK                         _______ _______ _______ _____ _____    ______ ____
ROOT
ATOM      1  C   UNL     1       5.283   3.920  16.683  0.00  0.00    +0.000 C 
ATOM      2  C   UNL     1       4.590   5.164  17.078  0.00  0.00    +0.000 A 
ATOM      3  O   UNL     1       5.141   6.322  16.622  0.00  0.00    +0.000 OA
ATOM      4  N   UNL     1       4.400   7.395  17.065  0.00  0.00    +0.000 NA
ATOM      5  C   UNL     1       3.411   6.889  17.820  0.00  0.00    +0.000 A 
ATOM      6  C   UNL     1       3.461   5.459  17.809  0.00  0.00    +0.000 A 
ENDROOT
BRANCH   5   7
ATOM      7  C   UNL     1       2.468   7.781  18.505  0.00  0.00    +0.000 A 
ATOM      8  C   UNL     1       2.156   7.585  19.858  0.00  0.00    +0.000 A 
ATOM      9  C   UNL     1       1.271   8.446  20.517  0.00  0.00    +0.000 A 
ATOM     10  C   UNL     1       0.701   9.516  19.829  0.00  0.00    +0.000 A 
ATOM     11 CL   UNL     1      -0.387  10.575  20.636  0.00  0.00    +0.000 Cl
ATOM     12  C   UNL     1       1.000   9.727  18.487  0.00  0.00    +0.000 A 
ATOM     13  C   UNL     1       1.861   8.849  17.823  0.00  0.00    +0.000 A 
ENDBRANCH   5   7
BRANCH   6  14
ATOM     14  C   UNL     1       2.579   4.459  18.391  0.00  0.00    +0.000 A 
ATOM     15  C   UNL     1       1.551   3.910  17.653  0.00  0.00    +0.000 A 
ATOM     16  C   UNL     1       0.720   3.050  18.319  0.00  0.00    +0.000 A 
ATOM     17  N   UNL     1       0.893   2.710  19.607  0.00  0.00    +0.000 NA
ATOM     18  C   UNL     1       1.943   3.266  20.229  0.00  0.00    +0.000 A 
ATOM     19  N   UNL     1       2.800   4.140  19.679  0.00  0.00    +0.000 NA
BRANCH  18  20
ATOM     20  S   UNL     1       2.185   2.821  21.919  0.00  0.00    +0.000 S 
ATOM     21  H   UNL     1       0.948   3.194  22.274  0.00  0.00    +0.000 HD
ENDBRANCH  18  20
ENDBRANCH   6  14
TORSDOF 3
ENDMDL
MODEL 7
REMARK VINA RESULT:      -7.0      2.993      4.356
REMARK  Name = 
REMARK  4 active torsions:
REMARK  status: ('A' for Active; 'I' for Inactive)
REMARK    1  A    between atoms: C_1  and  C_2
REMARK    2  A    between atoms: C_5  and  C_6
REMARK    3  A    between atoms: C_13  and  C_14
REMARK    4  A    between atoms: C_18  and  S_19
REMARK                            x       y       z     vdW  Elec       q    Type
REMARK                         _______ _______ _______ _____ _____    ______ ____
ROOT
ATOM      1  C   UNL     1       5.226   3.902  16.652  0.00  0.00    +0.000 C 
ATOM      2  C   UNL     1       4.554   5.157  17.050  0.00  0.00    +0.000 A 
ATOM      3  O   UNL     1       5.117   6.307  16.588  0.00  0.00    +0.000 OA
ATOM      4  N   UNL     1       4.394   7.391  17.036  0.00  0.00    +0.000 NA
ATOM      5  C   UNL     1       3.404   6.899  17.798  0.00  0.00    +0.000 A 
ATOM      6  C   UNL     1       3.434   5.468  17.790  0.00  0.00    +0.000 A 
ENDROOT
BRANCH   5   7
ATOM      7  C   UNL     1       2.478   7.805  18.490  0.00  0.00    +0.000 A 
ATOM      8  C   UNL     1       1.878   8.871  17.805  0.00  0.00    +0.000 A 
ATOM      9  C   UNL     1       0.981   9.723  18.460  0.00  0.00    +0.000 A 
ATOM     10  C   UNL     1       0.671   9.508  19.801  0.00  0.00    +0.000 A 
ATOM     11 CL   UNL     1      -0.430  10.554  20.608  0.00  0.00    +0.000 Cl
ATOM     12  C   UNL     1       1.255   8.454  20.496  0.00  0.00    +0.000 A 
ATOM     13  C   UNL     1       2.173   7.621  19.849  0.00  0.00    +0.000 A 
ENDBRANCH   5   7
BRANCH   6  14
ATOM     14  C   UNL     1       2.543   4.482  18.380  0.00  0.00    +0.000 A 
ATOM     15  C   UNL     1       1.476   3.977  17.665  0.00  0.00    +0.000 A 
ATOM     16  C   UNL     1       0.643   3.127  18.341  0.00  0.00    +0.000 A 
ATOM     17  N   UNL     1       0.848   2.755  19.616  0.00  0.00    +0.000 NA
ATOM     18  C   UNL     1       1.933   3.268  20.214  0.00  0.00    +0.000 A 
ATOM     19  N   UNL     1       2.797   4.129  19.654  0.00  0.00    +0.000 NA
BRANCH  18  20
ATOM     20  S   UNL     1       2.216   2.781  21.886  0.00  0.00    +0.000 S 
ATOM     21  H   UNL     1       3.245   3.626  22.038  0.00  0.00    +0.000 HD
ENDBRANCH  18  20
ENDBRANCH   6  14
TORSDOF 3
ENDMDL
MODEL 8
REMARK VINA RESULT:      -7.0      1.495      1.741
REMARK  Name = 
REMARK  4 active torsions:
REMARK  status: ('A' for Active; 'I' for Inactive)
REMARK    1  A    between atoms: C_1  and  C_2
REMARK    2  A    between atoms: C_5  and  C_6
REMARK    3  A    between atoms: C_13  and  C_14
REMARK    4  A    between atoms: C_18  and  S_19
REMARK                            x       y       z     vdW  Elec       q    Type
REMARK                         _______ _______ _______ _____ _____    ______ ____
ROOT
ATOM      1  C   UNL     1       4.207   2.391  19.430  0.00  0.00    +0.000 C 
ATOM      2  C   UNL     1       3.524   3.686  19.628  0.00  0.00    +0.000 A 
ATOM      3  O   UNL     1       2.612   3.730  20.637  0.00  0.00    +0.000 OA
ATOM      4  N   UNL     1       2.054   4.988  20.704  0.00  0.00    +0.000 NA
ATOM      5  C   UNL     1       2.607   5.703  19.712  0.00  0.00    +0.000 A 
ATOM      6  C   UNL     1       3.597   4.925  19.030  0.00  0.00    +0.000 A 
ENDROOT
BRANCH   5   7
ATOM      7  C   UNL     1       2.177   7.085  19.462  0.00  0.00    +0.000 A 
ATOM      8  C   UNL     1       2.283   7.644  18.180  0.00  0.00    +0.000 A 
ATOM      9  C   UNL     1       1.855   8.955  17.938  0.00  0.00    +0.000 A 
ATOM     10  C   UNL     1       1.311   9.711  18.974  0.00  0.00    +0.000 A 
ATOM     11 CL   UNL     1       0.786  11.321  18.679  0.00  0.00    +0.000 Cl
ATOM     12  C   UNL     1       1.196   9.172  20.251  0.00  0.00    +0.000 A 
ATOM     13  C   UNL     1       1.651   7.874  20.499  0.00  0.00    +0.000 A 
ENDBRANCH   5   7
BRANCH   6  14
ATOM     14  C   UNL     1       4.519   5.264  17.958  0.00  0.00    +0.000 A 
ATOM     15  C   UNL     1       4.442   4.630  16.735  0.00  0.00    +0.000 A 
ATOM     16  C   UNL     1       5.413   4.952  15.825  0.00  0.00    +0.000 A 
ATOM     17  N   UNL     1       6.377   5.857  16.067  0.00  0.00    +0.000 NA
ATOM     18  C   UNL     1       6.345   6.448  17.270  0.00  0.00    +0.000 A 
ATOM     19  N   UNL     1       5.457   6.187  18.242  0.00  0.00    +0.000 NA
BRANCH  18  20
ATOM     20  S   UNL     1       7.600   7.644  17.595  0.00  0.00    +0.000 S 
ATOM     21  H   UNL     1       6.815   8.358  18.413  0.00  0.00    +0.000 HD
ENDBRANCH  18  20
ENDBRANCH   6  14
TORSDOF 3
ENDMDL
MODEL 9
REMARK VINA RESULT:      -7.0      3.673      4.902
REMARK  Name = 
REMARK  4 active torsions:
REMARK  status: ('A' for Active; 'I' for Inactive)
REMARK    1  A    between atoms: C_1  and  C_2
REMARK    2  A    between atoms: C_5  and  C_6
REMARK    3  A    between atoms: C_13  and  C_14
REMARK    4  A    between atoms: C_18  and  S_19
REMARK                            x       y       z     vdW  Elec       q    Type
REMARK                         _______ _______ _______ _____ _____    ______ ____
ROOT
ATOM      1  C   UNL     1       7.863   5.283  13.860  0.00  0.00    +0.000 C 
ATOM      2  C   UNL     1       6.673   4.838  14.616  0.00  0.00    +0.000 A 
ATOM      3  O   UNL     1       5.759   4.113  13.916  0.00  0.00    +0.000 OA
ATOM      4  N   UNL     1       4.708   3.771  14.738  0.00  0.00    +0.000 NA
ATOM      5  C   UNL     1       4.970   4.317  15.937  0.00  0.00    +0.000 A 
ATOM      6  C   UNL     1       6.247   4.964  15.920  0.00  0.00    +0.000 A 
ENDROOT
BRANCH   5   7
ATOM      7  C   UNL     1       4.004   4.196  17.036  0.00  0.00    +0.000 A 
ATOM      8  C   UNL     1       3.375   5.334  17.562  0.00  0.00    +0.000 A 
ATOM      9  C   UNL     1       2.440   5.216  18.597  0.00  0.00    +0.000 A 
ATOM     10  C   UNL     1       2.121   3.958  19.106  0.00  0.00    +0.000 A 
ATOM     11 CL   UNL     1       0.975   3.811  20.378  0.00  0.00    +0.000 Cl
ATOM     12  C   UNL     1       2.734   2.819  18.595  0.00  0.00    +0.000 A 
ATOM     13  C   UNL     1       3.689   2.940  17.582  0.00  0.00    +0.000 A 
ENDBRANCH   5   7
BRANCH   6  14
ATOM     14  C   UNL     1       7.009   5.620  16.971  0.00  0.00    +0.000 A 
ATOM     15  C   UNL     1       7.488   4.902  18.048  0.00  0.00    +0.000 A 
ATOM     16  C   UNL     1       8.110   5.626  19.029  0.00  0.00    +0.000 A 
ATOM     17  N   UNL     1       8.293   6.956  18.957  0.00  0.00    +0.000 NA
ATOM     18  C   UNL     1       7.827   7.559  17.854  0.00  0.00    +0.000 A 
ATOM     19  N   UNL     1       7.179   6.949  16.849  0.00  0.00    +0.000 NA
BRANCH  18  20
ATOM     20  S   UNL     1       8.069   9.303  17.746  0.00  0.00    +0.000 S 
ATOM     21  H   UNL     1       9.136   9.183  16.945  0.00  0.00    +0.000 HD
ENDBRANCH  18  20
ENDBRANCH   6  14
TORSDOF 3
ENDMDL
