MODEL 1
REMARK VINA RESULT:      -7.6      0.000      0.000
REMARK  Name = 
REMARK  8 active torsions:
REMARK  status: ('A' for Active; 'I' for Inactive)
REMARK    1  A    between atoms: C_1  and  C_2
REMARK    2  A    between atoms: C_2  and  C_3
REMARK    3  A    between atoms: C_3  and  C_4
REMARK    4  A    between atoms: C_4  and  N_5
REMARK    5  A    between atoms: C_8  and  C_9
REMARK    6  A    between atoms: N_11  and  C_12
REMARK    7  A    between atoms: C_17  and  N_18
REMARK    8  A    between atoms: C_19  and  O_20
REMARK                            x       y       z     vdW  Elec       q    Type
REMARK                         _______ _______ _______ _____ _____    ______ ____
ROOT
ATOM      1  N   UNL     1       0.797  10.167  19.157  0.00  0.00    +0.000 N 
ATOM      2  C   UNL     1       1.518   9.235  18.404  0.00  0.00    +0.000 A 
ATOM      3  O   UNL     1       1.845   9.430  17.230  0.00  0.00    +0.000 OA
ATOM      4  C   UNL     1       1.939   7.965  19.061  0.00  0.00    +0.000 A 
ATOM      5  C   UNL     1       1.658   7.766  20.367  0.00  0.00    +0.000 A 
ATOM      6  C   UNL     1       0.918   8.761  21.148  0.00  0.00    +0.000 A 
ATOM      7  C   UNL     1       0.700   8.569  22.525  0.00  0.00    +0.000 A 
ATOM      8  C   UNL     1       0.014   9.513  23.283  0.00  0.00    +0.000 A 
ATOM      9  C   UNL     1      -0.505  10.637  22.659  0.00  0.00    +0.000 A 
ATOM     10  C   UNL     1      -0.315  10.824  21.288  0.00  0.00    +0.000 A 
ATOM     11  C   UNL     1       0.447   9.922  20.525  0.00  0.00    +0.000 A 
ENDROOT
BRANCH   4  12
ATOM     12  C   UNL     1       2.731   6.900  18.360  0.00  0.00    +0.000 C 
ATOM     13  O   UNL     1       2.301   5.741  18.387  0.00  0.00    +0.000 OA
ATOM     14  N   UNL     1       3.930   7.264  17.787  0.00  0.00    +0.000 N 
ATOM     15  H   UNL     1       4.224   8.235  17.879  0.00  0.00    +0.000 HD
BRANCH  14  16
ATOM     16  C   UNL     1       4.863   6.368  17.198  0.00  0.00    +0.000 A 
ATOM     17  C   UNL     1       5.112   6.367  15.816  0.00  0.00    +0.000 A 
ATOM     18  C   UNL     1       5.988   5.450  15.237  0.00  0.00    +0.000 A 
ATOM     19  C   UNL     1       6.660   4.541  16.039  0.00  0.00    +0.000 A 
ATOM     20  C   UNL     1       6.463   4.561  17.421  0.00  0.00    +0.000 A 
ATOM     21  C   UNL     1       5.538   5.435  18.015  0.00  0.00    +0.000 A 
BRANCH  21  22
ATOM     22  N   UNL     1       5.455   5.470  19.421  0.00  0.00    +0.000 N 
ATOM     23  H   UNL     1       6.362   5.551  19.872  0.00  0.00    +0.000 HD
ATOM     24  H   UNL     1       4.909   4.718  19.827  0.00  0.00    +0.000 HD
ENDBRANCH  21  22
ENDBRANCH  14  16
ENDBRANCH   4  12
BRANCH   5  25
ATOM     25  O   UNL     1       2.028   6.644  21.097  0.00  0.00    +0.000 OA
ATOM     26  H   UNL     1       2.980   6.456  20.922  0.00  0.00    +0.000 HD
ENDBRANCH   5  25
BRANCH   1  27
ATOM     27  C   UNL     1       0.532  11.480  18.552  0.00  0.00    +0.000 C 
BRANCH  27  28
ATOM     28  C   UNL     1      -0.928  11.703  18.116  0.00  0.00    +0.000 C 
BRANCH  28  30
ATOM     29  C   UNL     1      -2.471  10.653  16.440  0.00  0.00    +0.000 C 
ATOM     30  C   UNL     1      -1.657  10.426  17.705  0.00  0.00    +0.000 C 
ENDBRANCH  28  30
ENDBRANCH  27  28
ENDBRANCH   1  27
TORSDOF 7
ENDMDL
MODEL 2
REMARK VINA RESULT:      -7.5      1.058      1.540
REMARK  Name = 
REMARK  8 active torsions:
REMARK  status: ('A' for Active; 'I' for Inactive)
REMARK    1  A    between atoms: C_1  and  C_2
REMARK    2  A    between atoms: C_2  and  C_3
REMARK    3  A    between atoms: C_3  and  C_4
REMARK    4  A    between atoms: C_4  and  N_5
REMARK    5  A    between atoms: C_8  and  C_9
REMARK    6  A    between atoms: N_11  and  C_12
REMARK    7  A    between atoms: C_17  and  N_18
REMARK    8  A    between atoms: C_19  and  O_20
REMARK                            x       y       z     vdW  Elec       q    Type
REMARK                         _______ _______ _______ _____ _____    ______ ____
ROOT
ATOM      1  N   UNL     1       1.011  10.311  19.087  0.00  0.00    +0.000 N 
ATOM      2  C   UNL     1       1.713   9.351  18.351  0.00  0.00    +0.000 A 
ATOM      3  O   UNL     1       2.122   9.553  17.204  0.00  0.00    +0.000 OA
ATOM      4  C   UNL     1       2.008   8.040  18.994  0.00  0.00    +0.000 A 
ATOM      5  C   UNL     1       1.637   7.827  20.275  0.00  0.00    +0.000 A 
ATOM      6  C   UNL     1       0.918   8.850  21.040  0.00  0.00    +0.000 A 
ATOM      7  C   UNL     1       0.604   8.639  22.395  0.00  0.00    +0.000 A 
ATOM      8  C   UNL     1      -0.062   9.607  23.139  0.00  0.00    +0.000 A 
ATOM      9  C   UNL     1      -0.467  10.779  22.519  0.00  0.00    +0.000 A 
ATOM     10  C   UNL     1      -0.182  10.988  21.167  0.00  0.00    +0.000 A 
ATOM     11  C   UNL     1       0.564  10.056  20.425  0.00  0.00    +0.000 A 
ENDROOT
BRANCH   4  12
ATOM     12  C   UNL     1       2.769   6.941  18.310  0.00  0.00    +0.000 C 
ATOM     13  O   UNL     1       2.309   5.795  18.360  0.00  0.00    +0.000 OA
ATOM     14  N   UNL     1       3.976   7.263  17.727  0.00  0.00    +0.000 N 
ATOM     15  H   UNL     1       4.296   8.228  17.801  0.00  0.00    +0.000 HD
BRANCH  14  16
ATOM     16  C   UNL     1       4.882   6.332  17.151  0.00  0.00    +0.000 A 
ATOM     17  C   UNL     1       5.130   6.302  15.770  0.00  0.00    +0.000 A 
ATOM     18  C   UNL     1       5.979   5.352  15.204  0.00  0.00    +0.000 A 
ATOM     19  C   UNL     1       6.626   4.437  16.020  0.00  0.00    +0.000 A 
ATOM     20  C   UNL     1       6.431   4.484  17.401  0.00  0.00    +0.000 A 
ATOM     21  C   UNL     1       5.531   5.394  17.982  0.00  0.00    +0.000 A 
BRANCH  21  22
ATOM     22  N   UNL     1       5.452   5.453  19.388  0.00  0.00    +0.000 N 
ATOM     23  H   UNL     1       6.355   5.362  19.843  0.00  0.00    +0.000 HD
ATOM     24  H   UNL     1       4.771   4.821  19.795  0.00  0.00    +0.000 HD
ENDBRANCH  21  22
ENDBRANCH  14  16
ENDBRANCH   4  12
BRANCH   5  25
ATOM     25  O   UNL     1       1.887   6.664  20.992  0.00  0.00    +0.000 OA
ATOM     26  H   UNL     1       2.802   6.711  21.355  0.00  0.00    +0.000 HD
ENDBRANCH   5  25
BRANCH   1  27
ATOM     27  C   UNL     1       0.871  11.653  18.506  0.00  0.00    +0.000 C 
BRANCH  27  28
ATOM     28  C   UNL     1       2.027  12.616  18.829  0.00  0.00    +0.000 C 
BRANCH  28  30
ATOM     29  C   UNL     1       0.094  14.214  18.882  0.00  0.00    +0.000 C 
ATOM     30  C   UNL     1       1.581  14.041  19.151  0.00  0.00    +0.000 C 
ENDBRANCH  28  30
ENDBRANCH  27  28
ENDBRANCH   1  27
TORSDOF 7
ENDMDL
MODEL 3
REMARK VINA RESULT:      -7.4      2.939      5.290
REMARK  Name = 
REMARK  8 active torsions:
REMARK  status: ('A' for Active; 'I' for Inactive)
REMARK    1  A    between atoms: C_1  and  C_2
REMARK    2  A    between atoms: C_2  and  C_3
REMARK    3  A    between atoms: C_3  and  C_4
REMARK    4  A    between atoms: C_4  and  N_5
REMARK    5  A    between atoms: C_8  and  C_9
REMARK    6  A    between atoms: N_11  and  C_12
REMARK    7  A    between atoms: C_17  and  N_18
REMARK    8  A    between atoms: C_19  and  O_20
REMARK                            x       y       z     vdW  Elec       q    Type
REMARK                         _______ _______ _______ _____ _____    ______ ____
ROOT
ATOM      1  N   UNL     1       3.061   5.191  19.878  0.00  0.00    +0.000 N 
ATOM      2  C   UNL     1       3.905   4.547  18.966  0.00  0.00    +0.000 A 
ATOM      3  O   UNL     1       4.294   3.386  19.117  0.00  0.00    +0.000 OA
ATOM      4  C   UNL     1       4.324   5.288  17.743  0.00  0.00    +0.000 A 
ATOM      5  C   UNL     1       3.847   6.533  17.521  0.00  0.00    +0.000 A 
ATOM      6  C   UNL     1       2.949   7.186  18.477  0.00  0.00    +0.000 A 
ATOM      7  C   UNL     1       2.405   8.452  18.194  0.00  0.00    +0.000 A 
ATOM      8  C   UNL     1       1.536   9.077  19.083  0.00  0.00    +0.000 A 
ATOM      9  C   UNL     1       1.243   8.463  20.290  0.00  0.00    +0.000 A 
ATOM     10  C   UNL     1       1.798   7.216  20.592  0.00  0.00    +0.000 A 
ATOM     11  C   UNL     1       2.609   6.534  19.668  0.00  0.00    +0.000 A 
ENDROOT
BRANCH   4  12
ATOM     12  C   UNL     1       5.211   4.696  16.687  0.00  0.00    +0.000 C 
ATOM     13  O   UNL     1       6.286   4.197  17.042  0.00  0.00    +0.000 OA
ATOM     14  N   UNL     1       4.809   4.808  15.374  0.00  0.00    +0.000 N 
ATOM     15  H   UNL     1       3.935   5.297  15.185  0.00  0.00    +0.000 HD
BRANCH  14  16
ATOM     16  C   UNL     1       5.579   4.420  14.244  0.00  0.00    +0.000 A 
ATOM     17  C   UNL     1       5.045   3.612  13.229  0.00  0.00    +0.000 A 
ATOM     18  C   UNL     1       5.821   3.191  12.150  0.00  0.00    +0.000 A 
ATOM     19  C   UNL     1       7.140   3.605  12.051  0.00  0.00    +0.000 A 
ATOM     20  C   UNL     1       7.675   4.449  13.025  0.00  0.00    +0.000 A 
ATOM     21  C   UNL     1       6.926   4.833  14.151  0.00  0.00    +0.000 A 
BRANCH  21  22
ATOM     22  N   UNL     1       7.492   5.761  15.048  0.00  0.00    +0.000 N 
ATOM     23  H   UNL     1       6.831   6.101  15.739  0.00  0.00    +0.000 HD
ATOM     24  H   UNL     1       7.983   6.528  14.600  0.00  0.00    +0.000 HD
ENDBRANCH  21  22
ENDBRANCH  14  16
ENDBRANCH   4  12
BRANCH   5  25
ATOM     25  O   UNL     1       4.136   7.306  16.404  0.00  0.00    +0.000 OA
ATOM     26  H   UNL     1       3.905   6.790  15.598  0.00  0.00    +0.000 HD
ENDBRANCH   5  25
BRANCH   1  27
ATOM     27  C   UNL     1       2.523   4.397  20.992  0.00  0.00    +0.000 C 
BRANCH  27  28
ATOM     28  C   UNL     1       1.129   3.798  20.737  0.00  0.00    +0.000 C 
BRANCH  28  30
ATOM     29  C   UNL     1       0.891   2.409  18.661  0.00  0.00    +0.000 C 
ATOM     30  C   UNL     1       1.154   2.384  20.159  0.00  0.00    +0.000 C 
ENDBRANCH  28  30
ENDBRANCH  27  28
ENDBRANCH   1  27
TORSDOF 7
ENDMDL
MODEL 4
REMARK VINA RESULT:      -7.4      2.231      7.400
REMARK  Name = 
REMARK  8 active torsions:
REMARK  status: ('A' for Active; 'I' for Inactive)
REMARK    1  A    between atoms: C_1  and  C_2
REMARK    2  A    between atoms: C_2  and  C_3
REMARK    3  A    between atoms: C_3  and  C_4
REMARK    4  A    between atoms: C_4  and  N_5
REMARK    5  A    between atoms: C_8  and  C_9
REMARK    6  A    between atoms: N_11  and  C_12
REMARK    7  A    between atoms: C_17  and  N_18
REMARK    8  A    between atoms: C_19  and  O_20
REMARK                            x       y       z     vdW  Elec       q    Type
REMARK                         _______ _______ _______ _____ _____    ______ ____
ROOT
ATOM      1  N   UNL     1       3.896   5.377  17.510  0.00  0.00    +0.000 N 
ATOM      2  C   UNL     1       3.473   6.622  17.988  0.00  0.00    +0.000 A 
ATOM      3  O   UNL     1       3.854   7.691  17.504  0.00  0.00    +0.000 OA
ATOM      4  C   UNL     1       2.494   6.655  19.111  0.00  0.00    +0.000 A 
ATOM      5  C   UNL     1       2.006   5.496  19.604  0.00  0.00    +0.000 A 
ATOM      6  C   UNL     1       2.444   4.200  19.079  0.00  0.00    +0.000 A 
ATOM      7  C   UNL     1       1.871   3.007  19.555  0.00  0.00    +0.000 A 
ATOM      8  C   UNL     1       2.264   1.769  19.054  0.00  0.00    +0.000 A 
ATOM      9  C   UNL     1       3.274   1.712  18.106  0.00  0.00    +0.000 A 
ATOM     10  C   UNL     1       3.867   2.890  17.645  0.00  0.00    +0.000 A 
ATOM     11  C   UNL     1       3.423   4.151  18.080  0.00  0.00    +0.000 A 
ENDROOT
BRANCH   4  12
ATOM     12  C   UNL     1       1.955   7.929  19.695  0.00  0.00    +0.000 C 
ATOM     13  O   UNL     1       1.937   8.044  20.925  0.00  0.00    +0.000 OA
ATOM     14  N   UNL     1       1.445   8.868  18.825  0.00  0.00    +0.000 N 
ATOM     15  H   UNL     1       1.449   8.645  17.830  0.00  0.00    +0.000 HD
BRANCH  14  16
ATOM     16  C   UNL     1       0.785  10.067  19.207  0.00  0.00    +0.000 A 
ATOM     17  C   UNL     1      -0.306  10.059  20.091  0.00  0.00    +0.000 A 
ATOM     18  C   UNL     1      -0.983  11.232  20.420  0.00  0.00    +0.000 A 
ATOM     19  C   UNL     1      -0.555  12.442  19.897  0.00  0.00    +0.000 A 
ATOM     20  C   UNL     1       0.558  12.476  19.056  0.00  0.00    +0.000 A 
ATOM     21  C   UNL     1       1.215  11.297  18.664  0.00  0.00    +0.000 A 
BRANCH  21  22
ATOM     22  N   UNL     1       2.387  11.409  17.890  0.00  0.00    +0.000 N 
ATOM     23  H   UNL     1       2.215  11.760  16.953  0.00  0.00    +0.000 HD
ATOM     24  H   UNL     1       2.955  10.569  17.870  0.00  0.00    +0.000 HD
ENDBRANCH  21  22
ENDBRANCH  14  16
ENDBRANCH   4  12
BRANCH   5  25
ATOM     25  O   UNL     1       1.065   5.399  20.621  0.00  0.00    +0.000 OA
ATOM     26  H   UNL     1       0.585   4.544  20.523  0.00  0.00    +0.000 HD
ENDBRANCH   5  25
BRANCH   1  27
ATOM     27  C   UNL     1       4.731   5.355  16.301  0.00  0.00    +0.000 C 
BRANCH  27  28
ATOM     28  C   UNL     1       6.245   5.282  16.567  0.00  0.00    +0.000 C 
BRANCH  28  30
ATOM     29  C   UNL     1       6.184   3.971  14.429  0.00  0.00    +0.000 C 
ATOM     30  C   UNL     1       7.062   4.765  15.385  0.00  0.00    +0.000 C 
ENDBRANCH  28  30
ENDBRANCH  27  28
ENDBRANCH   1  27
TORSDOF 7
ENDMDL
MODEL 5
REMARK VINA RESULT:      -7.4      2.193      7.383
REMARK  Name = 
REMARK  8 active torsions:
REMARK  status: ('A' for Active; 'I' for Inactive)
REMARK    1  A    between atoms: C_1  and  C_2
REMARK    2  A    between atoms: C_2  and  C_3
REMARK    3  A    between atoms: C_3  and  C_4
REMARK    4  A    between atoms: C_4  and  N_5
REMARK    5  A    between atoms: C_8  and  C_9
REMARK    6  A    between atoms: N_11  and  C_12
REMARK    7  A    between atoms: C_17  and  N_18
REMARK    8  A    between atoms: C_19  and  O_20
REMARK                            x       y       z     vdW  Elec       q    Type
REMARK                         _______ _______ _______ _____ _____    ______ ____
ROOT
ATOM      1  N   UNL     1       4.010   5.457  17.520  0.00  0.00    +0.000 N 
ATOM      2  C   UNL     1       3.537   6.685  17.995  0.00  0.00    +0.000 A 
ATOM      3  O   UNL     1       3.885   7.768  17.517  0.00  0.00    +0.000 OA
ATOM      4  C   UNL     1       2.544   6.680  19.106  0.00  0.00    +0.000 A 
ATOM      5  C   UNL     1       2.092   5.503  19.591  0.00  0.00    +0.000 A 
ATOM      6  C   UNL     1       2.583   4.225  19.069  0.00  0.00    +0.000 A 
ATOM      7  C   UNL     1       2.047   3.011  19.536  0.00  0.00    +0.000 A 
ATOM      8  C   UNL     1       2.490   1.789  19.037  0.00  0.00    +0.000 A 
ATOM      9  C   UNL     1       3.512   1.770  18.100  0.00  0.00    +0.000 A 
ATOM     10  C   UNL     1       4.068   2.970  17.649  0.00  0.00    +0.000 A 
ATOM     11  C   UNL     1       3.574   4.213  18.081  0.00  0.00    +0.000 A 
ENDROOT
BRANCH   4  12
ATOM     12  C   UNL     1       1.953   7.932  19.686  0.00  0.00    +0.000 C 
ATOM     13  O   UNL     1       1.831   8.004  20.914  0.00  0.00    +0.000 OA
ATOM     14  N   UNL     1       1.514   8.901  18.809  0.00  0.00    +0.000 N 
ATOM     15  H   UNL     1       1.602   8.713  17.812  0.00  0.00    +0.000 HD
BRANCH  14  16
ATOM     16  C   UNL     1       0.819  10.085  19.176  0.00  0.00    +0.000 A 
ATOM     17  C   UNL     1      -0.283  10.055  20.045  0.00  0.00    +0.000 A 
ATOM     18  C   UNL     1      -0.993  11.212  20.358  0.00  0.00    +0.000 A 
ATOM     19  C   UNL     1      -0.588  12.429  19.835  0.00  0.00    +0.000 A 
ATOM     20  C   UNL     1       0.536  12.487  19.009  0.00  0.00    +0.000 A 
ATOM     21  C   UNL     1       1.226  11.323  18.632  0.00  0.00    +0.000 A 
BRANCH  21  22
ATOM     22  N   UNL     1       2.407  11.459  17.874  0.00  0.00    +0.000 N 
ATOM     23  H   UNL     1       3.235  11.133  18.364  0.00  0.00    +0.000 HD
ATOM     24  H   UNL     1       2.550  12.385  17.486  0.00  0.00    +0.000 HD
ENDBRANCH  21  22
ENDBRANCH  14  16
ENDBRANCH   4  12
BRANCH   5  25
ATOM     25  O   UNL     1       1.143   5.370  20.597  0.00  0.00    +0.000 OA
ATOM     26  H   UNL     1       1.392   4.603  21.162  0.00  0.00    +0.000 HD
ENDBRANCH   5  25
BRANCH   1  27
ATOM     27  C   UNL     1       4.858   5.468  16.320  0.00  0.00    +0.000 C 
BRANCH  27  28
ATOM     28  C   UNL     1       6.308   5.924  16.564  0.00  0.00    +0.000 C 
BRANCH  28  30
ATOM     29  C   UNL     1       7.498   5.677  18.759  0.00  0.00    +0.000 C 
ATOM     30  C   UNL     1       7.114   4.985  17.459  0.00  0.00    +0.000 C 
ENDBRANCH  28  30
ENDBRANCH  27  28
ENDBRANCH   1  27
TORSDOF 7
ENDMDL
MODEL 6
REMARK VINA RESULT:      -7.3      2.278      7.610
REMARK  Name = 
REMARK  8 active torsions:
REMARK  status: ('A' for Active; 'I' for Inactive)
REMARK    1  A    between atoms: C_1  and  C_2
REMARK    2  A    between atoms: C_2  and  C_3
REMARK    3  A    between atoms: C_3  and  C_4
REMARK    4  A    between atoms: C_4  and  N_5
REMARK    5  A    between atoms: C_8  and  C_9
REMARK    6  A    between atoms: N_11  and  C_12
REMARK    7  A    between atoms: C_17  and  N_18
REMARK    8  A    between atoms: C_19  and  O_20
REMARK                            x       y       z     vdW  Elec       q    Type
REMARK                         _______ _______ _______ _____ _____    ______ ____
ROOT
ATOM      1  N   UNL     1       2.770   5.500  19.697  0.00  0.00    +0.000 N 
ATOM      2  C   UNL     1       1.964   6.571  20.098  0.00  0.00    +0.000 A 
ATOM      3  O   UNL     1       1.306   6.561  21.141  0.00  0.00    +0.000 OA
ATOM      4  C   UNL     1       1.927   7.790  19.241  0.00  0.00    +0.000 A 
ATOM      5  C   UNL     1       2.700   7.852  18.135  0.00  0.00    +0.000 A 
ATOM      6  C   UNL     1       3.554   6.728  17.739  0.00  0.00    +0.000 A 
ATOM      7  C   UNL     1       4.407   6.839  16.625  0.00  0.00    +0.000 A 
ATOM      8  C   UNL     1       5.236   5.787  16.247  0.00  0.00    +0.000 A 
ATOM      9  C   UNL     1       5.183   4.594  16.951  0.00  0.00    +0.000 A 
ATOM     10  C   UNL     1       4.321   4.467  18.044  0.00  0.00    +0.000 A 
ATOM     11  C   UNL     1       3.539   5.547  18.489  0.00  0.00    +0.000 A 
ENDROOT
BRANCH   4  12
ATOM     12  C   UNL     1       1.115   9.007  19.578  0.00  0.00    +0.000 C 
ATOM     13  O   UNL     1       0.546   9.601  18.655  0.00  0.00    +0.000 OA
ATOM     14  N   UNL     1       1.109   9.433  20.889  0.00  0.00    +0.000 N 
ATOM     15  H   UNL     1       1.667   8.907  21.561  0.00  0.00    +0.000 HD
BRANCH  14  16
ATOM     16  C   UNL     1       0.503  10.628  21.360  0.00  0.00    +0.000 A 
ATOM     17  C   UNL     1       0.778  11.875  20.777  0.00  0.00    +0.000 A 
ATOM     18  C   UNL     1       0.221  13.051  21.278  0.00  0.00    +0.000 A 
ATOM     19  C   UNL     1      -0.653  12.993  22.352  0.00  0.00    +0.000 A 
ATOM     20  C   UNL     1      -0.978  11.757  22.913  0.00  0.00    +0.000 A 
ATOM     21  C   UNL     1      -0.379  10.569  22.462  0.00  0.00    +0.000 A 
BRANCH  21  22
ATOM     22  N   UNL     1      -0.820   9.346  23.006  0.00  0.00    +0.000 N 
ATOM     23  H   UNL     1      -0.545   9.219  23.975  0.00  0.00    +0.000 HD
ATOM     24  H   UNL     1      -0.588   8.532  22.448  0.00  0.00    +0.000 HD
ENDBRANCH  21  22
ENDBRANCH  14  16
ENDBRANCH   4  12
BRANCH   5  25
ATOM     25  O   UNL     1       2.779   8.944  17.281  0.00  0.00    +0.000 OA
ATOM     26  H   UNL     1       3.663   9.365  17.392  0.00  0.00    +0.000 HD
ENDBRANCH   5  25
BRANCH   1  27
ATOM     27  C   UNL     1       2.927   4.375  20.629  0.00  0.00    +0.000 C 
BRANCH  27  28
ATOM     28  C   UNL     1       1.672   3.499  20.793  0.00  0.00    +0.000 C 
BRANCH  28  30
ATOM     29  C   UNL     1       1.388   2.210  18.659  0.00  0.00    +0.000 C 
ATOM     30  C   UNL     1       0.848   3.345  19.517  0.00  0.00    +0.000 C 
ENDBRANCH  28  30
ENDBRANCH  27  28
ENDBRANCH   1  27
TORSDOF 7
ENDMDL
MODEL 7
REMARK VINA RESULT:      -7.3      1.180      1.967
REMARK  Name = 
REMARK  8 active torsions:
REMARK  status: ('A' for Active; 'I' for Inactive)
REMARK    1  A    between atoms: C_1  and  C_2
REMARK    2  A    between atoms: C_2  and  C_3
REMARK    3  A    between atoms: C_3  and  C_4
REMARK    4  A    between atoms: C_4  and  N_5
REMARK    5  A    between atoms: C_8  and  C_9
REMARK    6  A    between atoms: N_11  and  C_12
REMARK    7  A    between atoms: C_17  and  N_18
REMARK    8  A    between atoms: C_19  and  O_20
REMARK                            x       y       z     vdW  Elec       q    Type
REMARK                         _______ _______ _______ _____ _____    ______ ____
ROOT
ATOM      1  N   UNL     1       0.995  10.146  18.955  0.00  0.00    +0.000 N 
ATOM      2  C   UNL     1       1.790   9.198  18.303  0.00  0.00    +0.000 A 
ATOM      3  O   UNL     1       2.247   9.371  17.169  0.00  0.00    +0.000 OA
ATOM      4  C   UNL     1       2.127   7.938  19.023  0.00  0.00    +0.000 A 
ATOM      5  C   UNL     1       1.701   7.762  20.293  0.00  0.00    +0.000 A 
ATOM      6  C   UNL     1       0.885   8.774  20.970  0.00  0.00    +0.000 A 
ATOM      7  C   UNL     1       0.513   8.606  22.316  0.00  0.00    +0.000 A 
ATOM      8  C   UNL     1      -0.247   9.566  22.978  0.00  0.00    +0.000 A 
ATOM      9  C   UNL     1      -0.686  10.682  22.282  0.00  0.00    +0.000 A 
ATOM     10  C   UNL     1      -0.343  10.845  20.937  0.00  0.00    +0.000 A 
ATOM     11  C   UNL     1       0.494   9.927  20.279  0.00  0.00    +0.000 A 
ENDROOT
BRANCH   4  12
ATOM     12  C   UNL     1       2.985   6.857  18.433  0.00  0.00    +0.000 C 
ATOM     13  O   UNL     1       2.522   5.713  18.373  0.00  0.00    +0.000 OA
ATOM     14  N   UNL     1       4.269   7.190  18.057  0.00  0.00    +0.000 N 
ATOM     15  H   UNL     1       4.574   8.151  18.210  0.00  0.00    +0.000 HD
BRANCH  14  16
ATOM     16  C   UNL     1       5.254   6.274  17.601  0.00  0.00    +0.000 A 
ATOM     17  C   UNL     1       5.911   5.399  18.481  0.00  0.00    +0.000 A 
ATOM     18  C   UNL     1       6.914   4.540  18.037  0.00  0.00    +0.000 A 
ATOM     19  C   UNL     1       7.252   4.515  16.693  0.00  0.00    +0.000 A 
ATOM     20  C   UNL     1       6.575   5.341  15.795  0.00  0.00    +0.000 A 
ATOM     21  C   UNL     1       5.605   6.258  16.234  0.00  0.00    +0.000 A 
BRANCH  21  22
ATOM     22  N   UNL     1       4.892   6.995  15.266  0.00  0.00    +0.000 N 
ATOM     23  H   UNL     1       4.000   6.576  15.023  0.00  0.00    +0.000 HD
ATOM     24  H   UNL     1       5.429   7.224  14.437  0.00  0.00    +0.000 HD
ENDBRANCH  21  22
ENDBRANCH  14  16
ENDBRANCH   4  12
BRANCH   5  25
ATOM     25  O   UNL     1       1.980   6.651  21.078  0.00  0.00    +0.000 OA
ATOM     26  H   UNL     1       1.465   5.886  20.732  0.00  0.00    +0.000 HD
ENDBRANCH   5  25
BRANCH   1  27
ATOM     27  C   UNL     1       0.808  11.449  18.302  0.00  0.00    +0.000 C 
BRANCH  27  28
ATOM     28  C   UNL     1       1.883  12.497  18.641  0.00  0.00    +0.000 C 
BRANCH  28  30
ATOM     29  C   UNL     1      -0.161  13.948  18.742  0.00  0.00    +0.000 C 
ATOM     30  C   UNL     1       1.322  13.851  19.069  0.00  0.00    +0.000 C 
ENDBRANCH  28  30
ENDBRANCH  27  28
ENDBRANCH   1  27
TORSDOF 7
ENDMDL
MODEL 8
REMARK VINA RESULT:      -7.2      3.195      5.085
REMARK  Name = 
REMARK  8 active torsions:
REMARK  status: ('A' for Active; 'I' for Inactive)
REMARK    1  A    between atoms: C_1  and  C_2
REMARK    2  A    between atoms: C_2  and  C_3
REMARK    3  A    between atoms: C_3  and  C_4
REMARK    4  A    between atoms: C_4  and  N_5
REMARK    5  A    between atoms: C_8  and  C_9
REMARK    6  A    between atoms: N_11  and  C_12
REMARK    7  A    between atoms: C_17  and  N_18
REMARK    8  A    between atoms: C_19  and  O_20
REMARK                            x       y       z     vdW  Elec       q    Type
REMARK                         _______ _______ _______ _____ _____    ______ ____
ROOT
ATOM      1  N   UNL     1       2.892   5.888  18.708  0.00  0.00    +0.000 N 
ATOM      2  C   UNL     1       3.821   5.739  17.672  0.00  0.00    +0.000 A 
ATOM      3  O   UNL     1       4.254   6.691  17.018  0.00  0.00    +0.000 OA
ATOM      4  C   UNL     1       4.333   4.372  17.370  0.00  0.00    +0.000 A 
ATOM      5  C   UNL     1       3.929   3.327  18.125  0.00  0.00    +0.000 A 
ATOM      6  C   UNL     1       2.971   3.503  19.219  0.00  0.00    +0.000 A 
ATOM      7  C   UNL     1       2.619   2.416  20.040  0.00  0.00    +0.000 A 
ATOM      8  C   UNL     1       1.723   2.571  21.094  0.00  0.00    +0.000 A 
ATOM      9  C   UNL     1       1.131   3.807  21.305  0.00  0.00    +0.000 A 
ATOM     10  C   UNL     1       1.455   4.886  20.479  0.00  0.00    +0.000 A 
ATOM     11  C   UNL     1       2.420   4.766  19.464  0.00  0.00    +0.000 A 
ENDROOT
BRANCH   4  12
ATOM     12  C   UNL     1       5.343   4.092  16.295  0.00  0.00    +0.000 C 
ATOM     13  O   UNL     1       6.479   3.748  16.639  0.00  0.00    +0.000 OA
ATOM     14  N   UNL     1       4.964   4.307  14.987  0.00  0.00    +0.000 N 
ATOM     15  H   UNL     1       4.022   4.655  14.817  0.00  0.00    +0.000 HD
BRANCH  14  16
ATOM     16  C   UNL     1       5.824   4.216  13.859  0.00  0.00    +0.000 A 
ATOM     17  C   UNL     1       5.493   3.436  12.740  0.00  0.00    +0.000 A 
ATOM     18  C   UNL     1       6.364   3.308  11.660  0.00  0.00    +0.000 A 
ATOM     19  C   UNL     1       7.570   3.991  11.666  0.00  0.00    +0.000 A 
ATOM     20  C   UNL     1       7.895   4.811  12.748  0.00  0.00    +0.000 A 
ATOM     21  C   UNL     1       7.057   4.903  13.872  0.00  0.00    +0.000 A 
BRANCH  21  22
ATOM     22  N   UNL     1       7.396   5.820  14.888  0.00  0.00    +0.000 N 
ATOM     23  H   UNL     1       8.086   6.504  14.593  0.00  0.00    +0.000 HD
ATOM     24  H   UNL     1       7.658   5.390  15.768  0.00  0.00    +0.000 HD
ENDBRANCH  21  22
ENDBRANCH  14  16
ENDBRANCH   4  12
BRANCH   5  25
ATOM     25  O   UNL     1       4.363   2.018  17.964  0.00  0.00    +0.000 OA
ATOM     26  H   UNL     1       5.337   2.026  17.820  0.00  0.00    +0.000 HD
ENDBRANCH   5  25
BRANCH   1  27
ATOM     27  C   UNL     1       2.521   7.254  19.104  0.00  0.00    +0.000 C 
BRANCH  27  28
ATOM     28  C   UNL     1       1.729   8.037  18.042  0.00  0.00    +0.000 C 
BRANCH  28  30
ATOM     29  C   UNL     1       0.263  10.028  18.471  0.00  0.00    +0.000 C 
ATOM     30  C   UNL     1       1.693   9.545  18.277  0.00  0.00    +0.000 C 
ENDBRANCH  28  30
ENDBRANCH  27  28
ENDBRANCH   1  27
TORSDOF 7
ENDMDL
MODEL 9
REMARK VINA RESULT:      -7.2      2.180      7.462
REMARK  Name = 
REMARK  8 active torsions:
REMARK  status: ('A' for Active; 'I' for Inactive)
REMARK    1  A    between atoms: C_1  and  C_2
REMARK    2  A    between atoms: C_2  and  C_3
REMARK    3  A    between atoms: C_3  and  C_4
REMARK    4  A    between atoms: C_4  and  N_5
REMARK    5  A    between atoms: C_8  and  C_9
REMARK    6  A    between atoms: N_11  and  C_12
REMARK    7  A    between atoms: C_17  and  N_18
REMARK    8  A    between atoms: C_19  and  O_20
REMARK                            x       y       z     vdW  Elec       q    Type
REMARK                         _______ _______ _______ _____ _____    ______ ____
ROOT
ATOM      1  N   UNL     1       3.944   5.591  17.662  0.00  0.00    +0.000 N 
ATOM      2  C   UNL     1       3.422   6.763  18.220  0.00  0.00    +0.000 A 
ATOM      3  O   UNL     1       3.738   7.890  17.830  0.00  0.00    +0.000 OA
ATOM      4  C   UNL     1       2.415   6.641  19.311  0.00  0.00    +0.000 A 
ATOM      5  C   UNL     1       1.998   5.416  19.700  0.00  0.00    +0.000 A 
ATOM      6  C   UNL     1       2.540   4.198  19.092  0.00  0.00    +0.000 A 
ATOM      7  C   UNL     1       2.041   2.935  19.458  0.00  0.00    +0.000 A 
ATOM      8  C   UNL     1       2.534   1.770  18.877  0.00  0.00    +0.000 A 
ATOM      9  C   UNL     1       3.568   1.856  17.959  0.00  0.00    +0.000 A 
ATOM     10  C   UNL     1       4.088   3.104  17.607  0.00  0.00    +0.000 A 
ATOM     11  C   UNL     1       3.545   4.294  18.122  0.00  0.00    +0.000 A 
ENDROOT
BRANCH   4  12
ATOM     12  C   UNL     1       1.773   7.825  19.974  0.00  0.00    +0.000 C 
ATOM     13  O   UNL     1       1.570   7.773  21.192  0.00  0.00    +0.000 OA
ATOM     14  N   UNL     1       1.381   8.875  19.171  0.00  0.00    +0.000 N 
ATOM     15  H   UNL     1       1.536   8.788  18.167  0.00  0.00    +0.000 HD
BRANCH  14  16
ATOM     16  C   UNL     1       0.650  10.012  19.607  0.00  0.00    +0.000 A 
ATOM     17  C   UNL     1       0.947  10.661  20.816  0.00  0.00    +0.000 A 
ATOM     18  C   UNL     1       0.192  11.743  21.265  0.00  0.00    +0.000 A 
ATOM     19  C   UNL     1      -0.854  12.219  20.490  0.00  0.00    +0.000 A 
ATOM     20  C   UNL     1      -1.133  11.619  19.261  0.00  0.00    +0.000 A 
ATOM     21  C   UNL     1      -0.423  10.489  18.822  0.00  0.00    +0.000 A 
BRANCH  21  22
ATOM     22  N   UNL     1      -0.689   9.988  17.532  0.00  0.00    +0.000 N 
ATOM     23  H   UNL     1      -0.051   9.251  17.250  0.00  0.00    +0.000 HD
ATOM     24  H   UNL     1      -0.766  10.702  16.815  0.00  0.00    +0.000 HD
ENDBRANCH  21  22
ENDBRANCH  14  16
ENDBRANCH   4  12
BRANCH   5  25
ATOM     25  O   UNL     1       1.041   5.176  20.678  0.00  0.00    +0.000 OA
ATOM     26  H   UNL     1       0.756   6.040  21.055  0.00  0.00    +0.000 HD
ENDBRANCH   5  25
BRANCH   1  27
ATOM     27  C   UNL     1       4.808   5.721  16.480  0.00  0.00    +0.000 C 
BRANCH  27  28
ATOM     28  C   UNL     1       6.229   6.232  16.777  0.00  0.00    +0.000 C 
BRANCH  28  30
ATOM     29  C   UNL     1       7.734   6.121  18.781  0.00  0.00    +0.000 C 
ATOM     30  C   UNL     1       7.042   5.317  17.691  0.00  0.00    +0.000 C 
ENDBRANCH  28  30
ENDBRANCH  27  28
ENDBRANCH   1  27
TORSDOF 7
ENDMDL
