MODEL 1
REMARK VINA RESULT:      -7.0      0.000      0.000
REMARK  Name = 
REMARK  3 active torsions:
REMARK  status: ('A' for Active; 'I' for Inactive)
REMARK    1  A    between atoms: C_1  and  N_2
REMARK    2  A    between atoms: C_9  and  N_10
REMARK    3  A    between atoms: C_11  and  C_13
REMARK                            x       y       z     vdW  Elec       q    Type
REMARK                         _______ _______ _______ _____ _____    ______ ____
ROOT
ATOM      1  C   UNL     1       5.434   3.517  13.317  0.00  0.00    +0.000 C 
ATOM      2  N   UNL     1       6.159   4.321  14.272  0.00  0.00    +0.000 N 
ATOM      3  C   UNL     1       7.280   5.151  14.044  0.00  0.00    +0.000 A 
ATOM      4  S   UNL     1       8.107   5.455  12.642  0.00  0.00    +0.000 S 
ATOM      5  N   UNL     1       7.616   5.728  15.279  0.00  0.00    +0.000 N 
ATOM      6  C   UNL     1       6.720   5.277  16.241  0.00  0.00    +0.000 A 
ATOM      7  C   UNL     1       6.666   5.589  17.576  0.00  0.00    +0.000 A 
ATOM      8  C   UNL     1       5.634   5.001  18.319  0.00  0.00    +0.000 A 
ATOM      9  C   UNL     1       4.691   4.131  17.725  0.00  0.00    +0.000 A 
ATOM     10  C   UNL     1       4.801   3.809  16.360  0.00  0.00    +0.000 A 
ATOM     11  C   UNL     1       5.819   4.407  15.637  0.00  0.00    +0.000 A 
ATOM     12  H   UNL     1       8.376   6.375  15.422  0.00  0.00    +0.000 HD
ENDROOT
BRANCH   9  13
ATOM     13  N   UNL     1       3.629   3.550  18.457  0.00  0.00    +0.000 N 
ATOM     14  C   UNL     1       3.753   2.647  19.508  0.00  0.00    +0.000 C 
ATOM     15  O   UNL     1       4.811   2.283  20.019  0.00  0.00    +0.000 OA
ATOM     16  H   UNL     1       2.703   3.915  18.276  0.00  0.00    +0.000 HD
BRANCH  14  17
ATOM     17  C   UNL     1       2.390   2.160  20.063  0.00  0.00    +0.000 C 
ATOM     18  C   UNL     1       2.210   2.460  21.540  0.00  0.00    +0.000 C 
ATOM     19  C   UNL     1       1.761   3.911  21.550  0.00  0.00    +0.000 C 
ATOM     20  C   UNL     1       1.034   4.102  20.228  0.00  0.00    +0.000 C 
ATOM     21  N   UNL     1       1.263   2.888  19.437  0.00  0.00    +0.000 NA
ATOM     22  H   UNL     1       1.540   3.157  18.487  0.00  0.00    +0.000 HD
ENDBRANCH  14  17
ENDBRANCH   9  13
TORSDOF 2
ENDMDL
MODEL 2
REMARK VINA RESULT:      -6.9      5.797      7.282
REMARK  Name = 
REMARK  3 active torsions:
REMARK  status: ('A' for Active; 'I' for Inactive)
REMARK    1  A    between atoms: C_1  and  N_2
REMARK    2  A    between atoms: C_9  and  N_10
REMARK    3  A    between atoms: C_11  and  C_13
REMARK                            x       y       z     vdW  Elec       q    Type
REMARK                         _______ _______ _______ _____ _____    ______ ____
ROOT
ATOM      1  C   UNL     1      -0.333  10.672  21.978  0.00  0.00    +0.000 C 
ATOM      2  N   UNL     1       0.156  10.764  20.623  0.00  0.00    +0.000 N 
ATOM      3  C   UNL     1       0.034  11.844  19.720  0.00  0.00    +0.000 A 
ATOM      4  S   UNL     1      -0.699  13.316  19.921  0.00  0.00    +0.000 S 
ATOM      5  N   UNL     1       0.677  11.458  18.534  0.00  0.00    +0.000 N 
ATOM      6  C   UNL     1       1.193  10.178  18.703  0.00  0.00    +0.000 A 
ATOM      7  C   UNL     1       1.904   9.415  17.811  0.00  0.00    +0.000 A 
ATOM      8  C   UNL     1       2.325   8.155  18.255  0.00  0.00    +0.000 A 
ATOM      9  C   UNL     1       2.037   7.691  19.558  0.00  0.00    +0.000 A 
ATOM     10  C   UNL     1       1.275   8.489  20.432  0.00  0.00    +0.000 A 
ATOM     11  C   UNL     1       0.877   9.735  19.982  0.00  0.00    +0.000 A 
ATOM     12  H   UNL     1       0.756  12.034  17.710  0.00  0.00    +0.000 HD
ENDROOT
BRANCH   9  13
ATOM     13  N   UNL     1       2.477   6.431  20.029  0.00  0.00    +0.000 N 
ATOM     14  C   UNL     1       2.726   5.305  19.251  0.00  0.00    +0.000 C 
ATOM     15  O   UNL     1       2.687   5.259  18.023  0.00  0.00    +0.000 OA
ATOM     16  H   UNL     1       2.746   6.382  21.003  0.00  0.00    +0.000 HD
BRANCH  14  17
ATOM     17  C   UNL     1       3.148   4.066  20.083  0.00  0.00    +0.000 C 
ATOM     18  C   UNL     1       2.290   3.859  21.317  0.00  0.00    +0.000 C 
ATOM     19  C   UNL     1       1.063   3.148  20.774  0.00  0.00    +0.000 C 
ATOM     20  C   UNL     1       1.565   2.375  19.565  0.00  0.00    +0.000 C 
ATOM     21  N   UNL     1       2.943   2.813  19.323  0.00  0.00    +0.000 NA
ATOM     22  H   UNL     1       3.057   3.017  18.324  0.00  0.00    +0.000 HD
ENDBRANCH  14  17
ENDBRANCH   9  13
TORSDOF 2
ENDMDL
MODEL 3
REMARK VINA RESULT:      -6.9      1.037      1.135
REMARK  Name = 
REMARK  3 active torsions:
REMARK  status: ('A' for Active; 'I' for Inactive)
REMARK    1  A    between atoms: C_1  and  N_2
REMARK    2  A    between atoms: C_9  and  N_10
REMARK    3  A    between atoms: C_11  and  C_13
REMARK                            x       y       z     vdW  Elec       q    Type
REMARK                         _______ _______ _______ _____ _____    ______ ____
ROOT
ATOM      1  C   UNL     1       5.184   3.469  13.169  0.00  0.00    +0.000 C 
ATOM      2  N   UNL     1       6.103   4.215  13.994  0.00  0.00    +0.000 N 
ATOM      3  C   UNL     1       7.174   5.042  13.584  0.00  0.00    +0.000 A 
ATOM      4  S   UNL     1       7.710   5.404  12.059  0.00  0.00    +0.000 S 
ATOM      5  N   UNL     1       7.763   5.553  14.750  0.00  0.00    +0.000 N 
ATOM      6  C   UNL     1       7.069   5.066  15.852  0.00  0.00    +0.000 A 
ATOM      7  C   UNL     1       7.290   5.311  17.183  0.00  0.00    +0.000 A 
ATOM      8  C   UNL     1       6.416   4.701  18.091  0.00  0.00    +0.000 A 
ATOM      9  C   UNL     1       5.355   3.873  17.660  0.00  0.00    +0.000 A 
ATOM     10  C   UNL     1       5.181   3.617  16.287  0.00  0.00    +0.000 A 
ATOM     11  C   UNL     1       6.046   4.237  15.403  0.00  0.00    +0.000 A 
ATOM     12  H   UNL     1       8.551   6.182  14.767  0.00  0.00    +0.000 HD
ENDROOT
BRANCH   9  13
ATOM     13  N   UNL     1       4.449   3.269  18.563  0.00  0.00    +0.000 N 
ATOM     14  C   UNL     1       3.807   3.896  19.626  0.00  0.00    +0.000 C 
ATOM     15  O   UNL     1       3.862   5.097  19.888  0.00  0.00    +0.000 OA
ATOM     16  H   UNL     1       4.153   2.326  18.344  0.00  0.00    +0.000 HD
BRANCH  14  17
ATOM     17  C   UNL     1       2.916   2.938  20.457  0.00  0.00    +0.000 C 
ATOM     18  C   UNL     1       1.859   3.664  21.269  0.00  0.00    +0.000 C 
ATOM     19  C   UNL     1       0.751   3.911  20.259  0.00  0.00    +0.000 C 
ATOM     20  C   UNL     1       0.870   2.766  19.264  0.00  0.00    +0.000 C 
ATOM     21  N   UNL     1       2.113   2.055  19.582  0.00  0.00    +0.000 NA
ATOM     22  H   UNL     1       2.637   1.896  18.715  0.00  0.00    +0.000 HD
ENDBRANCH  14  17
ENDBRANCH   9  13
TORSDOF 2
ENDMDL
MODEL 4
REMARK VINA RESULT:      -6.9      1.293      1.443
REMARK  Name = 
REMARK  3 active torsions:
REMARK  status: ('A' for Active; 'I' for Inactive)
REMARK    1  A    between atoms: C_1  and  N_2
REMARK    2  A    between atoms: C_9  and  N_10
REMARK    3  A    between atoms: C_11  and  C_13
REMARK                            x       y       z     vdW  Elec       q    Type
REMARK                         _______ _______ _______ _____ _____    ______ ____
ROOT
ATOM      1  C   UNL     1       5.449   3.618  13.050  0.00  0.00    +0.000 C 
ATOM      2  N   UNL     1       6.162   4.345  14.072  0.00  0.00    +0.000 N 
ATOM      3  C   UNL     1       7.311   5.157  13.928  0.00  0.00    +0.000 A 
ATOM      4  S   UNL     1       8.189   5.520  12.572  0.00  0.00    +0.000 S 
ATOM      5  N   UNL     1       7.622   5.652  15.204  0.00  0.00    +0.000 N 
ATOM      6  C   UNL     1       6.685   5.169  16.111  0.00  0.00    +0.000 A 
ATOM      7  C   UNL     1       6.596   5.403  17.459  0.00  0.00    +0.000 A 
ATOM      8  C   UNL     1       5.527   4.801  18.135  0.00  0.00    +0.000 A 
ATOM      9  C   UNL     1       4.582   3.993  17.462  0.00  0.00    +0.000 A 
ATOM     10  C   UNL     1       4.728   3.748  16.084  0.00  0.00    +0.000 A 
ATOM     11  C   UNL     1       5.782   4.360  15.430  0.00  0.00    +0.000 A 
ATOM     12  H   UNL     1       8.393   6.268  15.409  0.00  0.00    +0.000 HD
ENDROOT
BRANCH   9  13
ATOM     13  N   UNL     1       3.484   3.398  18.127  0.00  0.00    +0.000 N 
ATOM     14  C   UNL     1       2.231   3.971  18.319  0.00  0.00    +0.000 C 
ATOM     15  O   UNL     1       1.859   5.051  17.861  0.00  0.00    +0.000 OA
ATOM     16  H   UNL     1       3.584   2.423  18.381  0.00  0.00    +0.000 HD
BRANCH  14  17
ATOM     17  C   UNL     1       1.264   3.074  19.134  0.00  0.00    +0.000 C 
ATOM     18  C   UNL     1       1.969   1.936  19.848  0.00  0.00    +0.000 C 
ATOM     19  C   UNL     1       2.509   2.595  21.106  0.00  0.00    +0.000 C 
ATOM     20  C   UNL     1       1.537   3.727  21.400  0.00  0.00    +0.000 C 
ATOM     21  N   UNL     1       0.639   3.827  20.244  0.00  0.00    +0.000 NA
ATOM     22  H   UNL     1       0.562   4.811  19.966  0.00  0.00    +0.000 HD
ENDBRANCH  14  17
ENDBRANCH   9  13
TORSDOF 2
ENDMDL
MODEL 5
REMARK VINA RESULT:      -6.8      5.467      7.332
REMARK  Name = 
REMARK  3 active torsions:
REMARK  status: ('A' for Active; 'I' for Inactive)
REMARK    1  A    between atoms: C_1  and  N_2
REMARK    2  A    between atoms: C_9  and  N_10
REMARK    3  A    between atoms: C_11  and  C_13
REMARK                            x       y       z     vdW  Elec       q    Type
REMARK                         _______ _______ _______ _____ _____    ______ ____
ROOT
ATOM      1  C   UNL     1       0.376   9.380  22.763  0.00  0.00    +0.000 C 
ATOM      2  N   UNL     1       0.490   9.767  21.378  0.00  0.00    +0.000 N 
ATOM      3  C   UNL     1       0.034  10.954  20.760  0.00  0.00    +0.000 A 
ATOM      4  S   UNL     1      -0.764  12.250  21.413  0.00  0.00    +0.000 S 
ATOM      5  N   UNL     1       0.388  10.868  19.404  0.00  0.00    +0.000 N 
ATOM      6  C   UNL     1       1.054   9.667  19.191  0.00  0.00    +0.000 A 
ATOM      7  C   UNL     1       1.584   9.175  18.026  0.00  0.00    +0.000 A 
ATOM      8  C   UNL     1       2.227   7.933  18.101  0.00  0.00    +0.000 A 
ATOM      9  C   UNL     1       2.329   7.220  19.317  0.00  0.00    +0.000 A 
ATOM     10  C   UNL     1       1.742   7.742  20.485  0.00  0.00    +0.000 A 
ATOM     11  C   UNL     1       1.121   8.975  20.396  0.00  0.00    +0.000 A 
ATOM     12  H   UNL     1       0.196  11.579  18.715  0.00  0.00    +0.000 HD
ENDROOT
BRANCH   9  13
ATOM     13  N   UNL     1       2.997   5.976  19.413  0.00  0.00    +0.000 N 
ATOM     14  C   UNL     1       2.415   4.752  19.724  0.00  0.00    +0.000 C 
ATOM     15  O   UNL     1       1.211   4.549  19.875  0.00  0.00    +0.000 OA
ATOM     16  H   UNL     1       3.964   5.959  19.115  0.00  0.00    +0.000 HD
BRANCH  14  17
ATOM     17  C   UNL     1       3.436   3.588  19.799  0.00  0.00    +0.000 C 
ATOM     18  C   UNL     1       2.848   2.254  19.374  0.00  0.00    +0.000 C 
ATOM     19  C   UNL     1       2.930   2.304  17.858  0.00  0.00    +0.000 C 
ATOM     20  C   UNL     1       4.127   3.194  17.562  0.00  0.00    +0.000 C 
ATOM     21  N   UNL     1       4.545   3.782  18.839  0.00  0.00    +0.000 NA
ATOM     22  H   UNL     1       4.689   4.789  18.710  0.00  0.00    +0.000 HD
ENDBRANCH  14  17
ENDBRANCH   9  13
TORSDOF 2
ENDMDL
MODEL 6
REMARK VINA RESULT:      -6.8      5.654      7.665
REMARK  Name = 
REMARK  3 active torsions:
REMARK  status: ('A' for Active; 'I' for Inactive)
REMARK    1  A    between atoms: C_1  and  N_2
REMARK    2  A    between atoms: C_9  and  N_10
REMARK    3  A    between atoms: C_11  and  C_13
REMARK                            x       y       z     vdW  Elec       q    Type
REMARK                         _______ _______ _______ _____ _____    ______ ____
ROOT
ATOM      1  C   UNL     1      -0.074   9.291  22.653  0.00  0.00    +0.000 C 
ATOM      2  N   UNL     1       0.139   9.806  21.322  0.00  0.00    +0.000 N 
ATOM      3  C   UNL     1      -0.332  11.017  20.765  0.00  0.00    +0.000 A 
ATOM      4  S   UNL     1      -1.265  12.204  21.446  0.00  0.00    +0.000 S 
ATOM      5  N   UNL     1       0.146  11.072  19.447  0.00  0.00    +0.000 N 
ATOM      6  C   UNL     1       0.902   9.932  19.198  0.00  0.00    +0.000 A 
ATOM      7  C   UNL     1       1.564   9.576  18.051  0.00  0.00    +0.000 A 
ATOM      8  C   UNL     1       2.275   8.369  18.082  0.00  0.00    +0.000 A 
ATOM      9  C   UNL     1       2.312   7.557  19.239  0.00  0.00    +0.000 A 
ATOM     10  C   UNL     1       1.591   7.940  20.385  0.00  0.00    +0.000 A 
ATOM     11  C   UNL     1       0.904   9.141  20.341  0.00  0.00    +0.000 A 
ATOM     12  H   UNL     1      -0.027  11.830  18.805  0.00  0.00    +0.000 HD
ENDROOT
BRANCH   9  13
ATOM     13  N   UNL     1       3.045   6.348  19.293  0.00  0.00    +0.000 N 
ATOM     14  C   UNL     1       2.723   5.161  18.644  0.00  0.00    +0.000 C 
ATOM     15  O   UNL     1       1.795   5.008  17.850  0.00  0.00    +0.000 OA
ATOM     16  H   UNL     1       3.947   6.387  19.752  0.00  0.00    +0.000 HD
BRANCH  14  17
ATOM     17  C   UNL     1       3.708   4.005  18.953  0.00  0.00    +0.000 C 
ATOM     18  C   UNL     1       3.848   3.022  17.806  0.00  0.00    +0.000 C 
ATOM     19  C   UNL     1       4.846   3.701  16.884  0.00  0.00    +0.000 C 
ATOM     20  C   UNL     1       5.714   4.545  17.805  0.00  0.00    +0.000 C 
ATOM     21  N   UNL     1       5.089   4.508  19.131  0.00  0.00    +0.000 NA
ATOM     22  H   UNL     1       5.041   5.461  19.504  0.00  0.00    +0.000 HD
ENDBRANCH  14  17
ENDBRANCH   9  13
TORSDOF 2
ENDMDL
MODEL 7
REMARK VINA RESULT:      -6.8      5.136      6.795
REMARK  Name = 
REMARK  3 active torsions:
REMARK  status: ('A' for Active; 'I' for Inactive)
REMARK    1  A    between atoms: C_1  and  N_2
REMARK    2  A    between atoms: C_9  and  N_10
REMARK    3  A    between atoms: C_11  and  C_13
REMARK                            x       y       z     vdW  Elec       q    Type
REMARK                         _______ _______ _______ _____ _____    ______ ____
ROOT
ATOM      1  C   UNL     1       0.484   9.757  22.281  0.00  0.00    +0.000 C 
ATOM      2  N   UNL     1       0.848   9.866  20.889  0.00  0.00    +0.000 N 
ATOM      3  C   UNL     1       0.752  10.995  20.045  0.00  0.00    +0.000 A 
ATOM      4  S   UNL     1       0.196  12.520  20.374  0.00  0.00    +0.000 S 
ATOM      5  N   UNL     1       1.237  10.606  18.787  0.00  0.00    +0.000 N 
ATOM      6  C   UNL     1       1.634   9.275  18.854  0.00  0.00    +0.000 A 
ATOM      7  C   UNL     1       2.175   8.490  17.868  0.00  0.00    +0.000 A 
ATOM      8  C   UNL     1       2.506   7.175  18.219  0.00  0.00    +0.000 A 
ATOM      9  C   UNL     1       2.297   6.679  19.526  0.00  0.00    +0.000 A 
ATOM     10  C   UNL     1       1.707   7.505  20.501  0.00  0.00    +0.000 A 
ATOM     11  C   UNL     1       1.397   8.804  20.141  0.00  0.00    +0.000 A 
ATOM     12  H   UNL     1       1.296  11.210  17.982  0.00  0.00    +0.000 HD
ENDROOT
BRANCH   9  13
ATOM     13  N   UNL     1       2.649   5.361  19.901  0.00  0.00    +0.000 N 
ATOM     14  C   UNL     1       3.738   4.635  19.430  0.00  0.00    +0.000 C 
ATOM     15  O   UNL     1       4.614   5.063  18.679  0.00  0.00    +0.000 OA
ATOM     16  H   UNL     1       2.128   4.955  20.668  0.00  0.00    +0.000 HD
BRANCH  14  17
ATOM     17  C   UNL     1       3.812   3.197  20.004  0.00  0.00    +0.000 C 
ATOM     18  C   UNL     1       2.447   2.568  20.208  0.00  0.00    +0.000 C 
ATOM     19  C   UNL     1       2.087   2.058  18.823  0.00  0.00    +0.000 C 
ATOM     20  C   UNL     1       3.422   1.749  18.163  0.00  0.00    +0.000 C 
ATOM     21  N   UNL     1       4.466   2.271  19.052  0.00  0.00    +0.000 NA
ATOM     22  H   UNL     1       5.142   2.803  18.495  0.00  0.00    +0.000 HD
ENDBRANCH  14  17
ENDBRANCH   9  13
TORSDOF 2
ENDMDL
MODEL 8
REMARK VINA RESULT:      -6.6      4.612      7.041
REMARK  Name = 
REMARK  3 active torsions:
REMARK  status: ('A' for Active; 'I' for Inactive)
REMARK    1  A    between atoms: C_1  and  N_2
REMARK    2  A    between atoms: C_9  and  N_10
REMARK    3  A    between atoms: C_11  and  C_13
REMARK                            x       y       z     vdW  Elec       q    Type
REMARK                         _______ _______ _______ _____ _____    ______ ____
ROOT
ATOM      1  C   UNL     1       1.761  10.291  18.125  0.00  0.00    +0.000 C 
ATOM      2  N   UNL     1       1.413   9.461  19.254  0.00  0.00    +0.000 N 
ATOM      3  C   UNL     1       0.604   9.791  20.366  0.00  0.00    +0.000 A 
ATOM      4  S   UNL     1      -0.181  11.204  20.724  0.00  0.00    +0.000 S 
ATOM      5  N   UNL     1       0.558   8.653  21.187  0.00  0.00    +0.000 N 
ATOM      6  C   UNL     1       1.308   7.644  20.594  0.00  0.00    +0.000 A 
ATOM      7  C   UNL     1       1.531   6.366  21.039  0.00  0.00    +0.000 A 
ATOM      8  C   UNL     1       2.317   5.542  20.224  0.00  0.00    +0.000 A 
ATOM      9  C   UNL     1       2.855   6.001  19.000  0.00  0.00    +0.000 A 
ATOM     10  C   UNL     1       2.633   7.331  18.594  0.00  0.00    +0.000 A 
ATOM     11  C   UNL     1       1.845   8.127  19.405  0.00  0.00    +0.000 A 
ATOM     12  H   UNL     1       0.047   8.591  22.053  0.00  0.00    +0.000 HD
ENDROOT
BRANCH   9  13
ATOM     13  N   UNL     1       3.631   5.173  18.154  0.00  0.00    +0.000 N 
ATOM     14  C   UNL     1       4.974   4.854  18.323  0.00  0.00    +0.000 C 
ATOM     15  O   UNL     1       5.670   5.172  19.287  0.00  0.00    +0.000 OA
ATOM     16  H   UNL     1       3.131   4.677  17.427  0.00  0.00    +0.000 HD
BRANCH  14  17
ATOM     17  C   UNL     1       5.540   3.962  17.189  0.00  0.00    +0.000 C 
ATOM     18  C   UNL     1       4.913   4.251  15.838  0.00  0.00    +0.000 C 
ATOM     19  C   UNL     1       5.684   5.464  15.347  0.00  0.00    +0.000 C 
ATOM     20  C   UNL     1       7.058   5.338  15.988  0.00  0.00    +0.000 C 
ATOM     21  N   UNL     1       6.976   4.237  16.954  0.00  0.00    +0.000 NA
ATOM     22  H   UNL     1       7.397   4.539  17.839  0.00  0.00    +0.000 HD
ENDBRANCH  14  17
ENDBRANCH   9  13
TORSDOF 2
ENDMDL
MODEL 9
REMARK VINA RESULT:      -6.5      5.532      7.648
REMARK  Name = 
REMARK  3 active torsions:
REMARK  status: ('A' for Active; 'I' for Inactive)
REMARK    1  A    between atoms: C_1  and  N_2
REMARK    2  A    between atoms: C_9  and  N_10
REMARK    3  A    between atoms: C_11  and  C_13
REMARK                            x       y       z     vdW  Elec       q    Type
REMARK                         _______ _______ _______ _____ _____    ______ ____
ROOT
ATOM      1  C   UNL     1       0.563   9.183  22.612  0.00  0.00    +0.000 C 
ATOM      2  N   UNL     1       0.609   9.690  21.262  0.00  0.00    +0.000 N 
ATOM      3  C   UNL     1       0.116  10.921  20.771  0.00  0.00    +0.000 A 
ATOM      4  S   UNL     1      -0.661  12.145  21.571  0.00  0.00    +0.000 S 
ATOM      5  N   UNL     1       0.407  10.958  19.399  0.00  0.00    +0.000 N 
ATOM      6  C   UNL     1       1.072   9.788  19.051  0.00  0.00    +0.000 A 
ATOM      7  C   UNL     1       1.551   9.405  17.825  0.00  0.00    +0.000 A 
ATOM      8  C   UNL     1       2.208   8.170  17.761  0.00  0.00    +0.000 A 
ATOM      9  C   UNL     1       2.372   7.355  18.905  0.00  0.00    +0.000 A 
ATOM     10  C   UNL     1       1.835   7.766  20.139  0.00  0.00    +0.000 A 
ATOM     11  C   UNL     1       1.200   8.995  20.187  0.00  0.00    +0.000 A 
ATOM     12  H   UNL     1       0.178  11.724  18.784  0.00  0.00    +0.000 HD
ENDROOT
BRANCH   9  13
ATOM     13  N   UNL     1       3.054   6.116  18.861  0.00  0.00    +0.000 N 
ATOM     14  C   UNL     1       4.356   5.909  18.418  0.00  0.00    +0.000 C 
ATOM     15  O   UNL     1       5.145   6.790  18.079  0.00  0.00    +0.000 OA
ATOM     16  H   UNL     1       2.591   5.330  19.301  0.00  0.00    +0.000 HD
BRANCH  14  17
ATOM     17  C   UNL     1       4.787   4.421  18.451  0.00  0.00    +0.000 C 
ATOM     18  C   UNL     1       4.232   3.616  17.291  0.00  0.00    +0.000 C 
ATOM     19  C   UNL     1       5.193   3.928  16.157  0.00  0.00    +0.000 C 
ATOM     20  C   UNL     1       6.520   4.218  16.841  0.00  0.00    +0.000 C 
ATOM     21  N   UNL     1       6.251   4.281  18.281  0.00  0.00    +0.000 NA
ATOM     22  H   UNL     1       6.703   5.115  18.669  0.00  0.00    +0.000 HD
ENDBRANCH  14  17
ENDBRANCH   9  13
TORSDOF 2
ENDMDL
