MODEL 1
REMARK VINA RESULT:      -8.4      0.000      0.000
REMARK  Name = 
REMARK  9 active torsions:
REMARK  status: ('A' for Active; 'I' for Inactive)
REMARK    1  A    between atoms: C_1  and  O_2
REMARK    2  A    between atoms: O_2  and  C_3
REMARK    3  A    between atoms: C_6  and  O_7
REMARK    4  A    between atoms: O_7  and  C_8
REMARK    5  A    between atoms: C_11  and  O_12
REMARK    6  A    between atoms: C_13  and  C_14
REMARK    7  A    between atoms: C_14  and  C_15
REMARK    8  A    between atoms: C_15  and  N_16
REMARK    9  A    between atoms: C_17  and  C_19
REMARK                            x       y       z     vdW  Elec       q    Type
REMARK                         _______ _______ _______ _____ _____    ______ ____
ROOT
ATOM      1  C   UNL     1       3.040   6.669  17.979  0.00  0.00    +0.000 A 
ATOM      2  C   UNL     1       1.992   5.767  18.136  0.00  0.00    +0.000 A 
ATOM      3  C   UNL     1       2.219   4.401  17.979  0.00  0.00    +0.000 A 
ATOM      4  C   UNL     1       3.498   3.925  17.657  0.00  0.00    +0.000 A 
ATOM      5  C   UNL     1       4.576   4.808  17.492  0.00  0.00    +0.000 A 
ATOM      6  N   UNL     1       5.804   4.342  17.183  0.00  0.00    +0.000 NA
ATOM      7  C   UNL     1       6.808   5.218  17.060  0.00  0.00    +0.000 A 
ATOM      8  C   UNL     1       6.709   6.582  17.213  0.00  0.00    +0.000 A 
ATOM      9  C   UNL     1       5.433   7.068  17.505  0.00  0.00    +0.000 A 
ATOM     10  C   UNL     1       4.336   6.196  17.655  0.00  0.00    +0.000 A 
ENDROOT
BRANCH   1  12
ATOM     11  C   UNL     1       1.809   8.510  18.863  0.00  0.00    +0.000 C 
ATOM     12  O   UNL     1       2.890   8.032  18.073  0.00  0.00    +0.000 OA
ENDBRANCH   1  12
BRANCH   4  13
ATOM     13  O   UNL     1       3.796   2.591  17.485  0.00  0.00    +0.000 OA
ATOM     14  C   UNL     1       3.519   1.703  18.557  0.00  0.00    +0.000 C 
ENDBRANCH   4  13
BRANCH   7  15
ATOM     15  O   UNL     1       7.987   4.618  16.761  0.00  0.00    +0.000 OA
ATOM     16  H   UNL     1       7.949   3.885  17.404  0.00  0.00    +0.000 HD
ENDBRANCH   7  15
BRANCH   8  17
ATOM     17  C   UNL     1       7.877   7.509  17.102  0.00  0.00    +0.000 C 
BRANCH  17  18
ATOM     18  C   UNL     1       8.097   8.372  18.345  0.00  0.00    +0.000 C 
BRANCH  18  19
ATOM     19  N   UNL     1       8.635   9.669  17.979  0.00  0.00    +0.000 N 
ATOM     20  C   UNL     1       9.231  10.449  18.943  0.00  0.00    +0.000 C 
ATOM     21  O   UNL     1       9.271  10.136  20.129  0.00  0.00    +0.000 OA
ATOM     22  H   UNL     1       8.824   9.845  17.002  0.00  0.00    +0.000 HD
BRANCH  20  23
ATOM     23  C   UNL     1       9.863  11.715  18.500  0.00  0.00    +0.000 A 
ATOM     24  C   UNL     1      10.980  11.742  17.634  0.00  0.00    +0.000 A 
ATOM     25  C   UNL     1      11.428  12.957  17.102  0.00  0.00    +0.000 A 
ATOM     26  C   UNL     1      10.724  14.096  17.430  0.00  0.00    +0.000 A 
ATOM     27  C   UNL     1       9.661  14.069  18.304  0.00  0.00    +0.000 A 
ATOM     28  C   UNL     1       9.218  12.902  18.873  0.00  0.00    +0.000 A 
ATOM     29  O   UNL     1       9.082  15.290  18.455  0.00  0.00    +0.000 OA
ATOM     30  C   UNL     1       9.719  15.996  17.374  0.00  0.00    +0.000 C 
ATOM     31  O   UNL     1      10.920  15.339  16.912  0.00  0.00    +0.000 OA
ENDBRANCH  20  23
ENDBRANCH  18  19
ENDBRANCH  17  18
ENDBRANCH   8  17
TORSDOF 7
ENDMDL
MODEL 2
REMARK VINA RESULT:      -8.3      5.460      7.431
REMARK  Name = 
REMARK  9 active torsions:
REMARK  status: ('A' for Active; 'I' for Inactive)
REMARK    1  A    between atoms: C_1  and  O_2
REMARK    2  A    between atoms: O_2  and  C_3
REMARK    3  A    between atoms: C_6  and  O_7
REMARK    4  A    between atoms: O_7  and  C_8
REMARK    5  A    between atoms: C_11  and  O_12
REMARK    6  A    between atoms: C_13  and  C_14
REMARK    7  A    between atoms: C_14  and  C_15
REMARK    8  A    between atoms: C_15  and  N_16
REMARK    9  A    between atoms: C_17  and  C_19
REMARK                            x       y       z     vdW  Elec       q    Type
REMARK                         _______ _______ _______ _____ _____    ______ ____
ROOT
ATOM      1  C   UNL     1       6.518   5.179  18.541  0.00  0.00    +0.000 A 
ATOM      2  C   UNL     1       7.219   5.741  17.478  0.00  0.00    +0.000 A 
ATOM      3  C   UNL     1       6.839   5.460  16.167  0.00  0.00    +0.000 A 
ATOM      4  C   UNL     1       5.757   4.608  15.908  0.00  0.00    +0.000 A 
ATOM      5  C   UNL     1       5.029   4.026  16.957  0.00  0.00    +0.000 A 
ATOM      6  N   UNL     1       3.987   3.208  16.699  0.00  0.00    +0.000 NA
ATOM      7  C   UNL     1       3.306   2.695  17.730  0.00  0.00    +0.000 A 
ATOM      8  C   UNL     1       3.574   2.918  19.062  0.00  0.00    +0.000 A 
ATOM      9  C   UNL     1       4.669   3.741  19.329  0.00  0.00    +0.000 A 
ATOM     10  C   UNL     1       5.422   4.319  18.287  0.00  0.00    +0.000 A 
ENDROOT
BRANCH   1  12
ATOM     11  C   UNL     1       8.232   5.582  20.149  0.00  0.00    +0.000 C 
ATOM     12  O   UNL     1       6.857   5.370  19.859  0.00  0.00    +0.000 OA
ENDBRANCH   1  12
BRANCH   4  13
ATOM     13  O   UNL     1       5.325   4.285  14.640  0.00  0.00    +0.000 OA
ATOM     14  C   UNL     1       6.306   4.035  13.645  0.00  0.00    +0.000 C 
ENDBRANCH   4  13
BRANCH   7  15
ATOM     15  O   UNL     1       2.280   1.903  17.332  0.00  0.00    +0.000 OA
ATOM     16  H   UNL     1       1.817   1.818  18.186  0.00  0.00    +0.000 HD
ENDBRANCH   7  15
BRANCH   8  17
ATOM     17  C   UNL     1       2.751   2.347  20.172  0.00  0.00    +0.000 C 
BRANCH  17  18
ATOM     18  C   UNL     1       1.388   3.020  20.334  0.00  0.00    +0.000 C 
BRANCH  18  19
ATOM     19  N   UNL     1       1.408   4.360  19.776  0.00  0.00    +0.000 N 
ATOM     20  C   UNL     1       1.944   5.390  20.514  0.00  0.00    +0.000 C 
ATOM     21  O   UNL     1       2.349   5.252  21.664  0.00  0.00    +0.000 OA
ATOM     22  H   UNL     1       1.304   4.458  18.776  0.00  0.00    +0.000 HD
BRANCH  20  23
ATOM     23  C   UNL     1       2.043   6.716  19.860  0.00  0.00    +0.000 A 
ATOM     24  C   UNL     1       2.568   6.882  18.557  0.00  0.00    +0.000 A 
ATOM     25  C   UNL     1       2.475   8.123  17.915  0.00  0.00    +0.000 A 
ATOM     26  C   UNL     1       1.833   9.142  18.584  0.00  0.00    +0.000 A 
ATOM     27  C   UNL     1       1.358   8.986  19.866  0.00  0.00    +0.000 A 
ATOM     28  C   UNL     1       1.465   7.796  20.540  0.00  0.00    +0.000 A 
ATOM     29  O   UNL     1       0.722  10.098  20.323  0.00  0.00    +0.000 OA
ATOM     30  C   UNL     1       0.612  10.838  19.092  0.00  0.00    +0.000 C 
ATOM     31  O   UNL     1       1.527  10.368  18.078  0.00  0.00    +0.000 OA
ENDBRANCH  20  23
ENDBRANCH  18  19
ENDBRANCH  17  18
ENDBRANCH   8  17
TORSDOF 7
ENDMDL
MODEL 3
REMARK VINA RESULT:      -8.0      1.370      1.453
REMARK  Name = 
REMARK  9 active torsions:
REMARK  status: ('A' for Active; 'I' for Inactive)
REMARK    1  A    between atoms: C_1  and  O_2
REMARK    2  A    between atoms: O_2  and  C_3
REMARK    3  A    between atoms: C_6  and  O_7
REMARK    4  A    between atoms: O_7  and  C_8
REMARK    5  A    between atoms: C_11  and  O_12
REMARK    6  A    between atoms: C_13  and  C_14
REMARK    7  A    between atoms: C_14  and  C_15
REMARK    8  A    between atoms: C_15  and  N_16
REMARK    9  A    between atoms: C_17  and  C_19
REMARK                            x       y       z     vdW  Elec       q    Type
REMARK                         _______ _______ _______ _____ _____    ______ ____
ROOT
ATOM      1  C   UNL     1       3.047   6.369  18.251  0.00  0.00    +0.000 A 
ATOM      2  C   UNL     1       1.963   5.499  18.173  0.00  0.00    +0.000 A 
ATOM      3  C   UNL     1       2.173   4.147  17.906  0.00  0.00    +0.000 A 
ATOM      4  C   UNL     1       3.470   3.655  17.705  0.00  0.00    +0.000 A 
ATOM      5  C   UNL     1       4.583   4.506  17.777  0.00  0.00    +0.000 A 
ATOM      6  N   UNL     1       5.829   4.024  17.585  0.00  0.00    +0.000 NA
ATOM      7  C   UNL     1       6.864   4.865  17.688  0.00  0.00    +0.000 A 
ATOM      8  C   UNL     1       6.782   6.211  17.970  0.00  0.00    +0.000 A 
ATOM      9  C   UNL     1       5.491   6.716  18.140  0.00  0.00    +0.000 A 
ATOM     10  C   UNL     1       4.361   5.879  18.053  0.00  0.00    +0.000 A 
ENDROOT
BRANCH   1  12
ATOM     11  C   UNL     1       1.918   8.403  17.727  0.00  0.00    +0.000 C 
ATOM     12  O   UNL     1       2.922   7.720  18.467  0.00  0.00    +0.000 OA
ENDBRANCH   1  12
BRANCH   4  13
ATOM     13  O   UNL     1       3.753   2.334  17.436  0.00  0.00    +0.000 OA
ATOM     14  C   UNL     1       3.615   1.394  18.490  0.00  0.00    +0.000 C 
ENDBRANCH   4  13
BRANCH   7  15
ATOM     15  O   UNL     1       8.055   4.252  17.485  0.00  0.00    +0.000 OA
ATOM     16  H   UNL     1       7.735   3.445  17.042  0.00  0.00    +0.000 HD
ENDBRANCH   7  15
BRANCH   8  17
ATOM     17  C   UNL     1       7.979   7.095  18.111  0.00  0.00    +0.000 C 
BRANCH  17  18
ATOM     18  C   UNL     1       7.739   8.531  17.643  0.00  0.00    +0.000 C 
BRANCH  18  19
ATOM     19  N   UNL     1       8.716   9.430  18.231  0.00  0.00    +0.000 N 
ATOM     20  C   UNL     1       8.607  10.783  18.008  0.00  0.00    +0.000 C 
ATOM     21  O   UNL     1       7.758  11.276  17.271  0.00  0.00    +0.000 OA
ATOM     22  H   UNL     1       9.265   9.090  19.007  0.00  0.00    +0.000 HD
BRANCH  20  23
ATOM     23  C   UNL     1       9.560  11.669  18.718  0.00  0.00    +0.000 A 
ATOM     24  C   UNL     1      10.716  11.176  19.365  0.00  0.00    +0.000 A 
ATOM     25  C   UNL     1      11.676  12.064  19.864  0.00  0.00    +0.000 A 
ATOM     26  C   UNL     1      11.460  13.412  19.670  0.00  0.00    +0.000 A 
ATOM     27  C   UNL     1      10.315  13.888  19.074  0.00  0.00    +0.000 A 
ATOM     28  C   UNL     1       9.336  13.048  18.607  0.00  0.00    +0.000 A 
ATOM     29  O   UNL     1      10.323  15.242  18.943  0.00  0.00    +0.000 OA
ATOM     30  C   UNL     1      11.702  15.509  19.258  0.00  0.00    +0.000 C 
ATOM     31  O   UNL     1      12.333  14.416  19.961  0.00  0.00    +0.000 OA
ENDBRANCH  20  23
ENDBRANCH  18  19
ENDBRANCH  17  18
ENDBRANCH   8  17
TORSDOF 7
ENDMDL
MODEL 4
REMARK VINA RESULT:      -7.9      0.862      1.180
REMARK  Name = 
REMARK  9 active torsions:
REMARK  status: ('A' for Active; 'I' for Inactive)
REMARK    1  A    between atoms: C_1  and  O_2
REMARK    2  A    between atoms: O_2  and  C_3
REMARK    3  A    between atoms: C_6  and  O_7
REMARK    4  A    between atoms: O_7  and  C_8
REMARK    5  A    between atoms: C_11  and  O_12
REMARK    6  A    between atoms: C_13  and  C_14
REMARK    7  A    between atoms: C_14  and  C_15
REMARK    8  A    between atoms: C_15  and  N_16
REMARK    9  A    between atoms: C_17  and  C_19
REMARK                            x       y       z     vdW  Elec       q    Type
REMARK                         _______ _______ _______ _____ _____    ______ ____
ROOT
ATOM      1  C   UNL     1       3.007   6.709  17.933  0.00  0.00    +0.000 A 
ATOM      2  C   UNL     1       1.930   5.846  18.117  0.00  0.00    +0.000 A 
ATOM      3  C   UNL     1       2.107   4.471  17.976  0.00  0.00    +0.000 A 
ATOM      4  C   UNL     1       3.363   3.946  17.641  0.00  0.00    +0.000 A 
ATOM      5  C   UNL     1       4.468   4.788  17.449  0.00  0.00    +0.000 A 
ATOM      6  N   UNL     1       5.675   4.275  17.128  0.00  0.00    +0.000 NA
ATOM      7  C   UNL     1       6.707   5.113  16.979  0.00  0.00    +0.000 A 
ATOM      8  C   UNL     1       6.659   6.482  17.115  0.00  0.00    +0.000 A 
ATOM      9  C   UNL     1       5.405   7.016  17.419  0.00  0.00    +0.000 A 
ATOM     10  C   UNL     1       4.280   6.186  17.597  0.00  0.00    +0.000 A 
ENDROOT
BRANCH   1  12
ATOM     11  C   UNL     1       1.601   8.635  17.923  0.00  0.00    +0.000 C 
ATOM     12  O   UNL     1       2.906   8.076  18.011  0.00  0.00    +0.000 OA
ENDBRANCH   1  12
BRANCH   4  13
ATOM     13  O   UNL     1       3.612   2.600  17.484  0.00  0.00    +0.000 OA
ATOM     14  C   UNL     1       3.420   1.751  18.605  0.00  0.00    +0.000 C 
ENDBRANCH   4  13
BRANCH   7  15
ATOM     15  O   UNL     1       7.859   4.468  16.671  0.00  0.00    +0.000 OA
ATOM     16  H   UNL     1       8.427   5.245  16.513  0.00  0.00    +0.000 HD
ENDBRANCH   7  15
BRANCH   8  17
ATOM     17  C   UNL     1       7.857   7.365  16.975  0.00  0.00    +0.000 C 
BRANCH  17  18
ATOM     18  C   UNL     1       8.186   8.159  18.240  0.00  0.00    +0.000 C 
BRANCH  18  19
ATOM     19  N   UNL     1       8.197   9.583  17.961  0.00  0.00    +0.000 N 
ATOM     20  C   UNL     1       9.003  10.411  18.708  0.00  0.00    +0.000 C 
ATOM     21  O   UNL     1       9.672  10.017  19.658  0.00  0.00    +0.000 OA
ATOM     22  H   UNL     1       7.851   9.893  17.064  0.00  0.00    +0.000 HD
BRANCH  20  23
ATOM     23  C   UNL     1       9.063  11.839  18.315  0.00  0.00    +0.000 A 
ATOM     24  C   UNL     1       8.038  12.464  17.568  0.00  0.00    +0.000 A 
ATOM     25  C   UNL     1       8.053  13.851  17.377  0.00  0.00    +0.000 A 
ATOM     26  C   UNL     1       9.075  14.565  17.966  0.00  0.00    +0.000 A 
ATOM     27  C   UNL     1      10.091  13.948  18.659  0.00  0.00    +0.000 A 
ATOM     28  C   UNL     1      10.128  12.588  18.834  0.00  0.00    +0.000 A 
ATOM     29  O   UNL     1      10.969  14.837  19.194  0.00  0.00    +0.000 OA
ATOM     30  C   UNL     1      10.231  16.057  18.997  0.00  0.00    +0.000 C 
ATOM     31  O   UNL     1       9.187  15.921  18.007  0.00  0.00    +0.000 OA
ENDBRANCH  20  23
ENDBRANCH  18  19
ENDBRANCH  17  18
ENDBRANCH   8  17
TORSDOF 7
ENDMDL
MODEL 5
REMARK VINA RESULT:      -7.9      1.216      1.586
REMARK  Name = 
REMARK  9 active torsions:
REMARK  status: ('A' for Active; 'I' for Inactive)
REMARK    1  A    between atoms: C_1  and  O_2
REMARK    2  A    between atoms: O_2  and  C_3
REMARK    3  A    between atoms: C_6  and  O_7
REMARK    4  A    between atoms: O_7  and  C_8
REMARK    5  A    between atoms: C_11  and  O_12
REMARK    6  A    between atoms: C_13  and  C_14
REMARK    7  A    between atoms: C_14  and  C_15
REMARK    8  A    between atoms: C_15  and  N_16
REMARK    9  A    between atoms: C_17  and  C_19
REMARK                            x       y       z     vdW  Elec       q    Type
REMARK                         _______ _______ _______ _____ _____    ______ ____
ROOT
ATOM      1  C   UNL     1       2.768   6.256  19.171  0.00  0.00    +0.000 A 
ATOM      2  C   UNL     1       1.881   5.354  19.753  0.00  0.00    +0.000 A 
ATOM      3  C   UNL     1       2.252   4.021  19.920  0.00  0.00    +0.000 A 
ATOM      4  C   UNL     1       3.512   3.576  19.499  0.00  0.00    +0.000 A 
ATOM      5  C   UNL     1       4.430   4.459  18.910  0.00  0.00    +0.000 A 
ATOM      6  N   UNL     1       5.642   4.022  18.508  0.00  0.00    +0.000 NA
ATOM      7  C   UNL     1       6.495   4.904  17.974  0.00  0.00    +0.000 A 
ATOM      8  C   UNL     1       6.249   6.245  17.781  0.00  0.00    +0.000 A 
ATOM      9  C   UNL     1       4.984   6.691  18.169  0.00  0.00    +0.000 A 
ATOM     10  C   UNL     1       4.045   5.814  18.746  0.00  0.00    +0.000 A 
ENDROOT
BRANCH   1  12
ATOM     11  C   UNL     1       1.845   8.297  19.988  0.00  0.00    +0.000 C 
ATOM     12  O   UNL     1       2.463   7.573  18.932  0.00  0.00    +0.000 OA
ENDBRANCH   1  12
BRANCH   4  13
ATOM     13  O   UNL     1       3.946   2.275  19.631  0.00  0.00    +0.000 OA
ATOM     14  C   UNL     1       3.502   1.324  18.675  0.00  0.00    +0.000 C 
ENDBRANCH   4  13
BRANCH   7  15
ATOM     15  O   UNL     1       7.677   4.339  17.628  0.00  0.00    +0.000 OA
ATOM     16  H   UNL     1       8.276   5.044  17.937  0.00  0.00    +0.000 HD
ENDBRANCH   7  15
BRANCH   8  17
ATOM     17  C   UNL     1       7.258   7.192  17.214  0.00  0.00    +0.000 C 
BRANCH  17  18
ATOM     18  C   UNL     1       8.045   7.960  18.276  0.00  0.00    +0.000 C 
BRANCH  18  19
ATOM     19  N   UNL     1       8.265   9.332  17.857  0.00  0.00    +0.000 N 
ATOM     20  C   UNL     1       9.107  10.135  18.592  0.00  0.00    +0.000 C 
ATOM     21  O   UNL     1       9.636   9.772  19.638  0.00  0.00    +0.000 OA
ATOM     22  H   UNL     1       8.040   9.578  16.904  0.00  0.00    +0.000 HD
BRANCH  20  23
ATOM     23  C   UNL     1       9.387  11.491  18.064  0.00  0.00    +0.000 A 
ATOM     24  C   UNL     1       8.364  12.434  17.815  0.00  0.00    +0.000 A 
ATOM     25  C   UNL     1       8.690  13.757  17.490  0.00  0.00    +0.000 A 
ATOM     26  C   UNL     1      10.026  14.095  17.457  0.00  0.00    +0.000 A 
ATOM     27  C   UNL     1      11.018  13.164  17.662  0.00  0.00    +0.000 A 
ATOM     28  C   UNL     1      10.736  11.852  17.945  0.00  0.00    +0.000 A 
ATOM     29  O   UNL     1      12.261  13.715  17.629  0.00  0.00    +0.000 OA
ATOM     30  C   UNL     1      11.909  15.111  17.666  0.00  0.00    +0.000 C 
ATOM     31  O   UNL     1      10.534  15.347  17.294  0.00  0.00    +0.000 OA
ENDBRANCH  20  23
ENDBRANCH  18  19
ENDBRANCH  17  18
ENDBRANCH   8  17
TORSDOF 7
ENDMDL
MODEL 6
REMARK VINA RESULT:      -7.9      6.053      9.250
REMARK  Name = 
REMARK  9 active torsions:
REMARK  status: ('A' for Active; 'I' for Inactive)
REMARK    1  A    between atoms: C_1  and  O_2
REMARK    2  A    between atoms: O_2  and  C_3
REMARK    3  A    between atoms: C_6  and  O_7
REMARK    4  A    between atoms: O_7  and  C_8
REMARK    5  A    between atoms: C_11  and  O_12
REMARK    6  A    between atoms: C_13  and  C_14
REMARK    7  A    between atoms: C_14  and  C_15
REMARK    8  A    between atoms: C_15  and  N_16
REMARK    9  A    between atoms: C_17  and  C_19
REMARK                            x       y       z     vdW  Elec       q    Type
REMARK                         _______ _______ _______ _____ _____    ______ ____
ROOT
ATOM      1  C   UNL     1      -1.321  11.119  18.949  0.00  0.00    +0.000 A 
ATOM      2  C   UNL     1      -2.195  12.201  18.909  0.00  0.00    +0.000 A 
ATOM      3  C   UNL     1      -2.563  12.843  20.090  0.00  0.00    +0.000 A 
ATOM      4  C   UNL     1      -2.064  12.403  21.324  0.00  0.00    +0.000 A 
ATOM      5  C   UNL     1      -1.181  11.315  21.398  0.00  0.00    +0.000 A 
ATOM      6  N   UNL     1      -0.704  10.898  22.590  0.00  0.00    +0.000 NA
ATOM      7  C   UNL     1       0.155   9.873  22.612  0.00  0.00    +0.000 A 
ATOM      8  C   UNL     1       0.607   9.179  21.512  0.00  0.00    +0.000 A 
ATOM      9  C   UNL     1       0.092   9.591  20.282  0.00  0.00    +0.000 A 
ATOM     10  C   UNL     1      -0.811  10.669  20.191  0.00  0.00    +0.000 A 
ENDROOT
BRANCH   1  12
ATOM     11  C   UNL     1      -1.981   9.973  16.964  0.00  0.00    +0.000 C 
ATOM     12  O   UNL     1      -0.944  10.406  17.836  0.00  0.00    +0.000 OA
ENDBRANCH   1  12
BRANCH   4  13
ATOM     13  O   UNL     1      -2.385  12.987  22.529  0.00  0.00    +0.000 OA
ATOM     14  C   UNL     1      -3.729  12.898  22.977  0.00  0.00    +0.000 C 
ENDBRANCH   4  13
BRANCH   7  15
ATOM     15  O   UNL     1       0.565   9.566  23.867  0.00  0.00    +0.000 OA
ATOM     16  H   UNL     1      -0.043   8.824  24.045  0.00  0.00    +0.000 HD
ENDBRANCH   7  15
BRANCH   8  17
ATOM     17  C   UNL     1       1.600   8.064  21.596  0.00  0.00    +0.000 C 
BRANCH  17  18
ATOM     18  C   UNL     1       1.527   7.087  20.422  0.00  0.00    +0.000 C 
BRANCH  18  19
ATOM     19  N   UNL     1       2.852   6.825  19.891  0.00  0.00    +0.000 N 
ATOM     20  C   UNL     1       3.021   5.823  18.963  0.00  0.00    +0.000 C 
ATOM     21  O   UNL     1       2.112   5.080  18.605  0.00  0.00    +0.000 OA
ATOM     22  H   UNL     1       3.551   7.548  19.983  0.00  0.00    +0.000 HD
BRANCH  20  23
ATOM     23  C   UNL     1       4.370   5.665  18.369  0.00  0.00    +0.000 A 
ATOM     24  C   UNL     1       5.470   5.169  19.105  0.00  0.00    +0.000 A 
ATOM     25  C   UNL     1       6.673   4.869  18.455  0.00  0.00    +0.000 A 
ATOM     26  C   UNL     1       6.723   5.047  17.089  0.00  0.00    +0.000 A 
ATOM     27  C   UNL     1       5.662   5.567  16.383  0.00  0.00    +0.000 A 
ATOM     28  C   UNL     1       4.481   5.906  16.993  0.00  0.00    +0.000 A 
ATOM     29  O   UNL     1       5.904   5.617  15.046  0.00  0.00    +0.000 OA
ATOM     30  C   UNL     1       7.099   4.818  14.985  0.00  0.00    +0.000 C 
ATOM     31  O   UNL     1       7.748   4.688  16.269  0.00  0.00    +0.000 OA
ENDBRANCH  20  23
ENDBRANCH  18  19
ENDBRANCH  17  18
ENDBRANCH   8  17
TORSDOF 7
ENDMDL
MODEL 7
REMARK VINA RESULT:      -7.9      6.248     10.448
REMARK  Name = 
REMARK  9 active torsions:
REMARK  status: ('A' for Active; 'I' for Inactive)
REMARK    1  A    between atoms: C_1  and  O_2
REMARK    2  A    between atoms: O_2  and  C_3
REMARK    3  A    between atoms: C_6  and  O_7
REMARK    4  A    between atoms: O_7  and  C_8
REMARK    5  A    between atoms: C_11  and  O_12
REMARK    6  A    between atoms: C_13  and  C_14
REMARK    7  A    between atoms: C_14  and  C_15
REMARK    8  A    between atoms: C_15  and  N_16
REMARK    9  A    between atoms: C_17  and  C_19
REMARK                            x       y       z     vdW  Elec       q    Type
REMARK                         _______ _______ _______ _____ _____    ______ ____
ROOT
ATOM      1  C   UNL     1      -3.371  10.616  16.916  0.00  0.00    +0.000 A 
ATOM      2  C   UNL     1      -4.697  11.037  16.984  0.00  0.00    +0.000 A 
ATOM      3  C   UNL     1      -5.127  11.814  18.058  0.00  0.00    +0.000 A 
ATOM      4  C   UNL     1      -4.236  12.170  19.080  0.00  0.00    +0.000 A 
ATOM      5  C   UNL     1      -2.894  11.762  19.042  0.00  0.00    +0.000 A 
ATOM      6  N   UNL     1      -2.042  12.111  20.029  0.00  0.00    +0.000 NA
ATOM      7  C   UNL     1      -0.765  11.722  19.939  0.00  0.00    +0.000 A 
ATOM      8  C   UNL     1      -0.222  10.975  18.918  0.00  0.00    +0.000 A 
ATOM      9  C   UNL     1      -1.109  10.590  17.911  0.00  0.00    +0.000 A 
ATOM     10  C   UNL     1      -2.464  10.975  17.944  0.00  0.00    +0.000 A 
ENDROOT
BRANCH   1  12
ATOM     11  C   UNL     1      -3.167  10.199  14.577  0.00  0.00    +0.000 C 
ATOM     12  O   UNL     1      -2.880   9.814  15.915  0.00  0.00    +0.000 OA
ENDBRANCH   1  12
BRANCH   4  13
ATOM     13  O   UNL     1      -4.590  12.932  20.171  0.00  0.00    +0.000 OA
ATOM     14  C   UNL     1      -5.598  12.431  21.037  0.00  0.00    +0.000 C 
ENDBRANCH   4  13
BRANCH   7  15
ATOM     15  O   UNL     1      -0.017  12.148  20.986  0.00  0.00    +0.000 OA
ATOM     16  H   UNL     1       0.080  11.299  21.456  0.00  0.00    +0.000 HD
ENDBRANCH   7  15
BRANCH   8  17
ATOM     17  C   UNL     1       1.224  10.602  18.852  0.00  0.00    +0.000 C 
BRANCH  17  18
ATOM     18  C   UNL     1       1.517   9.442  17.900  0.00  0.00    +0.000 C 
BRANCH  18  19
ATOM     19  N   UNL     1       1.664   8.200  18.637  0.00  0.00    +0.000 N 
ATOM     20  C   UNL     1       2.771   7.414  18.420  0.00  0.00    +0.000 C 
ATOM     21  O   UNL     1       3.622   7.672  17.574  0.00  0.00    +0.000 OA
ATOM     22  H   UNL     1       1.121   8.083  19.481  0.00  0.00    +0.000 HD
BRANCH  20  23
ATOM     23  C   UNL     1       2.932   6.213  19.274  0.00  0.00    +0.000 A 
ATOM     24  C   UNL     1       1.961   5.823  20.225  0.00  0.00    +0.000 A 
ATOM     25  C   UNL     1       2.071   4.589  20.877  0.00  0.00    +0.000 A 
ATOM     26  C   UNL     1       3.130   3.776  20.531  0.00  0.00    +0.000 A 
ATOM     27  C   UNL     1       4.092   4.177  19.633  0.00  0.00    +0.000 A 
ATOM     28  C   UNL     1       4.036   5.394  19.004  0.00  0.00    +0.000 A 
ATOM     29  O   UNL     1       5.020   3.210  19.403  0.00  0.00    +0.000 OA
ATOM     30  C   UNL     1       4.367   2.091  20.031  0.00  0.00    +0.000 C 
ATOM     31  O   UNL     1       3.331   2.497  20.951  0.00  0.00    +0.000 OA
ENDBRANCH  20  23
ENDBRANCH  18  19
ENDBRANCH  17  18
ENDBRANCH   8  17
TORSDOF 7
ENDMDL
MODEL 8
REMARK VINA RESULT:      -7.8      5.124      7.610
REMARK  Name = 
REMARK  9 active torsions:
REMARK  status: ('A' for Active; 'I' for Inactive)
REMARK    1  A    between atoms: C_1  and  O_2
REMARK    2  A    between atoms: O_2  and  C_3
REMARK    3  A    between atoms: C_6  and  O_7
REMARK    4  A    between atoms: O_7  and  C_8
REMARK    5  A    between atoms: C_11  and  O_12
REMARK    6  A    between atoms: C_13  and  C_14
REMARK    7  A    between atoms: C_14  and  C_15
REMARK    8  A    between atoms: C_15  and  N_16
REMARK    9  A    between atoms: C_17  and  C_19
REMARK                            x       y       z     vdW  Elec       q    Type
REMARK                         _______ _______ _______ _____ _____    ______ ____
ROOT
ATOM      1  C   UNL     1       5.553   4.444  15.564  0.00  0.00    +0.000 A 
ATOM      2  C   UNL     1       6.767   5.111  15.418  0.00  0.00    +0.000 A 
ATOM      3  C   UNL     1       7.589   5.311  16.525  0.00  0.00    +0.000 A 
ATOM      4  C   UNL     1       7.201   4.852  17.792  0.00  0.00    +0.000 A 
ATOM      5  C   UNL     1       5.985   4.176  17.973  0.00  0.00    +0.000 A 
ATOM      6  N   UNL     1       5.619   3.736  19.195  0.00  0.00    +0.000 NA
ATOM      7  C   UNL     1       4.463   3.074  19.317  0.00  0.00    +0.000 A 
ATOM      8  C   UNL     1       3.583   2.798  18.295  0.00  0.00    +0.000 A 
ATOM      9  C   UNL     1       3.946   3.278  17.036  0.00  0.00    +0.000 A 
ATOM     10  C   UNL     1       5.156   3.975  16.840  0.00  0.00    +0.000 A 
ENDROOT
BRANCH   1  12
ATOM     11  C   UNL     1       5.214   3.897  13.268  0.00  0.00    +0.000 C 
ATOM     12  O   UNL     1       4.667   4.246  14.533  0.00  0.00    +0.000 OA
ENDBRANCH   1  12
BRANCH   4  13
ATOM     13  O   UNL     1       7.961   5.014  18.929  0.00  0.00    +0.000 OA
ATOM     14  C   UNL     1       8.200   6.336  19.388  0.00  0.00    +0.000 C 
ENDBRANCH   4  13
BRANCH   7  15
ATOM     15  O   UNL     1       4.223   2.678  20.591  0.00  0.00    +0.000 OA
ATOM     16  H   UNL     1       3.335   2.296  20.464  0.00  0.00    +0.000 HD
ENDBRANCH   7  15
BRANCH   8  17
ATOM     17  C   UNL     1       2.321   2.019  18.486  0.00  0.00    +0.000 C 
BRANCH  17  18
ATOM     18  C   UNL     1       1.244   2.775  19.264  0.00  0.00    +0.000 C 
BRANCH  18  19
ATOM     19  N   UNL     1       1.314   4.198  18.984  0.00  0.00    +0.000 N 
ATOM     20  C   UNL     1       1.777   5.055  19.956  0.00  0.00    +0.000 C 
ATOM     21  O   UNL     1       2.073   4.687  21.088  0.00  0.00    +0.000 OA
ATOM     22  H   UNL     1       1.303   4.491  18.017  0.00  0.00    +0.000 HD
BRANCH  20  23
ATOM     23  C   UNL     1       1.934   6.482  19.586  0.00  0.00    +0.000 A 
ATOM     24  C   UNL     1       2.401   6.889  18.315  0.00  0.00    +0.000 A 
ATOM     25  C   UNL     1       2.361   8.240  17.952  0.00  0.00    +0.000 A 
ATOM     26  C   UNL     1       1.828   9.131  18.859  0.00  0.00    +0.000 A 
ATOM     27  C   UNL     1       1.411   8.734  20.109  0.00  0.00    +0.000 A 
ATOM     28  C   UNL     1       1.470   7.424  20.513  0.00  0.00    +0.000 A 
ATOM     29  O   UNL     1       0.879   9.759  20.828  0.00  0.00    +0.000 OA
ATOM     30  C   UNL     1       0.757  10.747  19.788  0.00  0.00    +0.000 C 
ATOM     31  O   UNL     1       1.582  10.451  18.640  0.00  0.00    +0.000 OA
ENDBRANCH  20  23
ENDBRANCH  18  19
ENDBRANCH  17  18
ENDBRANCH   8  17
TORSDOF 7
ENDMDL
MODEL 9
REMARK VINA RESULT:      -7.8      6.153      9.858
REMARK  Name = 
REMARK  9 active torsions:
REMARK  status: ('A' for Active; 'I' for Inactive)
REMARK    1  A    between atoms: C_1  and  O_2
REMARK    2  A    between atoms: O_2  and  C_3
REMARK    3  A    between atoms: C_6  and  O_7
REMARK    4  A    between atoms: O_7  and  C_8
REMARK    5  A    between atoms: C_11  and  O_12
REMARK    6  A    between atoms: C_13  and  C_14
REMARK    7  A    between atoms: C_14  and  C_15
REMARK    8  A    between atoms: C_15  and  N_16
REMARK    9  A    between atoms: C_17  and  C_19
REMARK                            x       y       z     vdW  Elec       q    Type
REMARK                         _______ _______ _______ _____ _____    ______ ____
ROOT
ATOM      1  C   UNL     1      -1.568  11.558  19.418  0.00  0.00    +0.000 A 
ATOM      2  C   UNL     1      -2.515  12.574  19.511  0.00  0.00    +0.000 A 
ATOM      3  C   UNL     1      -2.907  13.048  20.761  0.00  0.00    +0.000 A 
ATOM      4  C   UNL     1      -2.361  12.504  21.932  0.00  0.00    +0.000 A 
ATOM      5  C   UNL     1      -1.404  11.479  21.872  0.00  0.00    +0.000 A 
ATOM      6  N   UNL     1      -0.881  10.962  23.004  0.00  0.00    +0.000 NA
ATOM      7  C   UNL     1       0.047  10.004  22.900  0.00  0.00    +0.000 A 
ATOM      8  C   UNL     1       0.528   9.474  21.724  0.00  0.00    +0.000 A 
ATOM      9  C   UNL     1      -0.033   9.989  20.553  0.00  0.00    +0.000 A 
ATOM     10  C   UNL     1      -1.009  11.005  20.596  0.00  0.00    +0.000 A 
ENDROOT
BRANCH   1  12
ATOM     11  C   UNL     1      -2.167  10.746  17.257  0.00  0.00    +0.000 C 
ATOM     12  O   UNL     1      -1.161  11.007  18.227  0.00  0.00    +0.000 OA
ENDBRANCH   1  12
BRANCH   4  13
ATOM     13  O   UNL     1      -2.702  12.921  23.200  0.00  0.00    +0.000 OA
ATOM     14  C   UNL     1      -3.381  14.159  23.335  0.00  0.00    +0.000 C 
ENDBRANCH   4  13
BRANCH   7  15
ATOM     15  O   UNL     1       0.496   9.582  24.107  0.00  0.00    +0.000 OA
ATOM     16  H   UNL     1       1.014  10.370  24.357  0.00  0.00    +0.000 HD
ENDBRANCH   7  15
BRANCH   8  17
ATOM     17  C   UNL     1       1.597   8.430  21.669  0.00  0.00    +0.000 C 
BRANCH  17  18
ATOM     18  C   UNL     1       1.176   7.159  20.929  0.00  0.00    +0.000 C 
BRANCH  18  19
ATOM     19  N   UNL     1       2.287   6.620  20.166  0.00  0.00    +0.000 N 
ATOM     20  C   UNL     1       2.259   5.303  19.772  0.00  0.00    +0.000 C 
ATOM     21  O   UNL     1       1.365   4.525  20.094  0.00  0.00    +0.000 OA
ATOM     22  H   UNL     1       2.901   7.272  19.699  0.00  0.00    +0.000 HD
BRANCH  20  23
ATOM     23  C   UNL     1       3.361   4.828  18.902  0.00  0.00    +0.000 A 
ATOM     24  C   UNL     1       3.172   4.530  17.533  0.00  0.00    +0.000 A 
ATOM     25  C   UNL     1       4.275   4.260  16.714  0.00  0.00    +0.000 A 
ATOM     26  C   UNL     1       5.527   4.329  17.286  0.00  0.00    +0.000 A 
ATOM     27  C   UNL     1       5.703   4.581  18.627  0.00  0.00    +0.000 A 
ATOM     28  C   UNL     1       4.643   4.813  19.467  0.00  0.00    +0.000 A 
ATOM     29  O   UNL     1       7.016   4.649  18.975  0.00  0.00    +0.000 OA
ATOM     30  C   UNL     1       7.612   4.694  17.665  0.00  0.00    +0.000 C 
ATOM     31  O   UNL     1       6.717   4.232  16.630  0.00  0.00    +0.000 OA
ENDBRANCH  20  23
ENDBRANCH  18  19
ENDBRANCH  17  18
ENDBRANCH   8  17
TORSDOF 7
ENDMDL
