MODEL 1
REMARK VINA RESULT:      -7.4      0.000      0.000
REMARK  Name = 
REMARK  8 active torsions:
REMARK  status: ('A' for Active; 'I' for Inactive)
REMARK    1  A    between atoms: C_1  and  O_2
REMARK    2  A    between atoms: O_2  and  C_3
REMARK    3  A    between atoms: C_5  and  C_6
REMARK    4  A    between atoms: C_6  and  C_7
REMARK    5  A    between atoms: C_7  and  N_8
REMARK    6  A    between atoms: N_8  and  C_9
REMARK    7  A    between atoms: C_13  and  C_14
REMARK    8  A    between atoms: C_21  and  C_22
REMARK                            x       y       z     vdW  Elec       q    Type
REMARK                         _______ _______ _______ _____ _____    ______ ____
ROOT
ATOM      1  N   UNL     1       4.934   6.788  18.282  0.00  0.00    +0.000 NA
ATOM      2  H   UNL     1       4.477   6.560  19.166  0.00  0.00    +0.000 HD
ENDROOT
BRANCH   1   3
ATOM      3  C   UNL     1       5.684   5.617  17.787  0.00  0.00    +0.000 C 
ATOM      4  C   UNL     1       7.164   5.628  18.193  0.00  0.00    +0.000 C 
ATOM      5  C   UNL     1       7.895   4.456  17.565  0.00  0.00    +0.000 C 
ATOM      6  O   UNL     1       7.771   4.498  16.148  0.00  0.00    +0.000 OA
ATOM      7  C   UNL     1       6.404   4.367  15.706  0.00  0.00    +0.000 C 
ATOM      8  C   UNL     1       5.573   5.537  16.253  0.00  0.00    +0.000 C 
BRANCH   7   9
ATOM      9  C   UNL     1       6.319   4.270  14.171  0.00  0.00    +0.000 C 
ATOM     10  F   UNL     1       6.449   3.001  13.719  0.00  0.00    +0.000 F 
ATOM     11  F   UNL     1       5.111   4.716  13.736  0.00  0.00    +0.000 F 
ATOM     12  F   UNL     1       7.262   5.014  13.546  0.00  0.00    +0.000 F 
ENDBRANCH   7   9
ENDBRANCH   1   3
BRANCH   1  13
ATOM     13  C   UNL     1       3.930   7.247  17.313  0.00  0.00    +0.000 C 
BRANCH  13  14
ATOM     14  C   UNL     1       2.537   7.453  17.928  0.00  0.00    +0.000 C 
BRANCH  14  17
ATOM     15  C   UNL     1       1.762   3.853  18.967  0.00  0.00    +0.000 A 
ATOM     16  C   UNL     1       2.034   4.982  18.187  0.00  0.00    +0.000 A 
ATOM     17  C   UNL     1       2.166   6.252  18.772  0.00  0.00    +0.000 A 
ATOM     18  C   UNL     1       2.021   6.377  20.159  0.00  0.00    +0.000 A 
ATOM     19  C   UNL     1       1.741   5.255  20.941  0.00  0.00    +0.000 A 
ATOM     20  C   UNL     1       1.604   3.989  20.359  0.00  0.00    +0.000 A 
ATOM     21  C   UNL     1       1.311   2.793  21.221  0.00  0.00    +0.000 C 
BRANCH  15  23
ATOM     22  C   UNL     1       2.626   2.107  17.612  0.00  0.00    +0.000 C 
ATOM     23  O   UNL     1       1.594   2.588  18.464  0.00  0.00    +0.000 OA
ENDBRANCH  15  23
ENDBRANCH  14  17
ENDBRANCH  13  14
ENDBRANCH   1  13
TORSDOF 6
ENDMDL
MODEL 2
REMARK VINA RESULT:      -7.1      4.393      6.164
REMARK  Name = 
REMARK  8 active torsions:
REMARK  status: ('A' for Active; 'I' for Inactive)
REMARK    1  A    between atoms: C_1  and  O_2
REMARK    2  A    between atoms: O_2  and  C_3
REMARK    3  A    between atoms: C_5  and  C_6
REMARK    4  A    between atoms: C_6  and  C_7
REMARK    5  A    between atoms: C_7  and  N_8
REMARK    6  A    between atoms: N_8  and  C_9
REMARK    7  A    between atoms: C_13  and  C_14
REMARK    8  A    between atoms: C_21  and  C_22
REMARK                            x       y       z     vdW  Elec       q    Type
REMARK                         _______ _______ _______ _____ _____    ______ ____
ROOT
ATOM      1  N   UNL     1       3.909   5.546  17.301  0.00  0.00    +0.000 NA
ATOM      2  H   UNL     1       4.805   5.618  16.817  0.00  0.00    +0.000 HD
ENDROOT
BRANCH   1   3
ATOM      3  C   UNL     1       3.831   4.262  18.025  0.00  0.00    +0.000 C 
ATOM      4  C   UNL     1       3.302   3.108  17.161  0.00  0.00    +0.000 C 
ATOM      5  C   UNL     1       3.149   1.850  17.994  0.00  0.00    +0.000 C 
ATOM      6  O   UNL     1       2.275   2.086  19.092  0.00  0.00    +0.000 OA
ATOM      7  C   UNL     1       2.786   3.080  20.005  0.00  0.00    +0.000 C 
ATOM      8  C   UNL     1       2.942   4.420  19.272  0.00  0.00    +0.000 C 
BRANCH   7   9
ATOM      9  C   UNL     1       1.891   3.207  21.253  0.00  0.00    +0.000 C 
ATOM     10  F   UNL     1       1.752   2.036  21.918  0.00  0.00    +0.000 F 
ATOM     11  F   UNL     1       2.429   4.093  22.131  0.00  0.00    +0.000 F 
ATOM     12  F   UNL     1       0.646   3.650  20.960  0.00  0.00    +0.000 F 
ENDBRANCH   7   9
ENDBRANCH   1   3
BRANCH   1  13
ATOM     13  C   UNL     1       3.740   6.695  18.199  0.00  0.00    +0.000 C 
BRANCH  13  14
ATOM     14  C   UNL     1       2.737   7.735  17.679  0.00  0.00    +0.000 C 
BRANCH  14  17
ATOM     15  C   UNL     1       0.426  10.012  19.708  0.00  0.00    +0.000 A 
ATOM     16  C   UNL     1       1.197   9.492  18.662  0.00  0.00    +0.000 A 
ATOM     17  C   UNL     1       1.969   8.332  18.839  0.00  0.00    +0.000 A 
ATOM     18  C   UNL     1       1.959   7.696  20.087  0.00  0.00    +0.000 A 
ATOM     19  C   UNL     1       1.198   8.216  21.136  0.00  0.00    +0.000 A 
ATOM     20  C   UNL     1       0.432   9.374  20.962  0.00  0.00    +0.000 A 
ATOM     21  C   UNL     1      -0.386   9.912  22.103  0.00  0.00    +0.000 C 
BRANCH  15  23
ATOM     22  C   UNL     1      -1.361  11.148  18.637  0.00  0.00    +0.000 C 
ATOM     23  O   UNL     1      -0.330  11.152  19.617  0.00  0.00    +0.000 OA
ENDBRANCH  15  23
ENDBRANCH  14  17
ENDBRANCH  13  14
ENDBRANCH   1  13
TORSDOF 6
ENDMDL
MODEL 3
REMARK VINA RESULT:      -7.1      2.207      3.713
REMARK  Name = 
REMARK  8 active torsions:
REMARK  status: ('A' for Active; 'I' for Inactive)
REMARK    1  A    between atoms: C_1  and  O_2
REMARK    2  A    between atoms: O_2  and  C_3
REMARK    3  A    between atoms: C_5  and  C_6
REMARK    4  A    between atoms: C_6  and  C_7
REMARK    5  A    between atoms: C_7  and  N_8
REMARK    6  A    between atoms: N_8  and  C_9
REMARK    7  A    between atoms: C_13  and  C_14
REMARK    8  A    between atoms: C_21  and  C_22
REMARK                            x       y       z     vdW  Elec       q    Type
REMARK                         _______ _______ _______ _____ _____    ______ ____
ROOT
ATOM      1  N   UNL     1       5.495   3.837  19.119  0.00  0.00    +0.000 NA
ATOM      2  H   UNL     1       4.894   3.184  18.614  0.00  0.00    +0.000 HD
ENDROOT
BRANCH   1   3
ATOM      3  C   UNL     1       6.439   4.478  18.183  0.00  0.00    +0.000 C 
ATOM      4  C   UNL     1       6.564   5.994  18.389  0.00  0.00    +0.000 C 
ATOM      5  C   UNL     1       7.466   6.600  17.330  0.00  0.00    +0.000 C 
ATOM      6  O   UNL     1       6.961   6.318  16.030  0.00  0.00    +0.000 OA
ATOM      7  C   UNL     1       6.938   4.905  15.738  0.00  0.00    +0.000 C 
ATOM      8  C   UNL     1       6.011   4.190  16.733  0.00  0.00    +0.000 C 
BRANCH   7   9
ATOM      9  C   UNL     1       6.526   4.642  14.277  0.00  0.00    +0.000 C 
ATOM     10  F   UNL     1       6.513   3.325  13.966  0.00  0.00    +0.000 F 
ATOM     11  F   UNL     1       5.270   5.108  14.050  0.00  0.00    +0.000 F 
ATOM     12  F   UNL     1       7.341   5.254  13.385  0.00  0.00    +0.000 F 
ENDBRANCH   7   9
ENDBRANCH   1   3
BRANCH   1  13
ATOM     13  C   UNL     1       4.666   4.823  19.825  0.00  0.00    +0.000 C 
BRANCH  13  14
ATOM     14  C   UNL     1       3.188   4.788  19.410  0.00  0.00    +0.000 C 
BRANCH  14  17
ATOM     15  C   UNL     1       1.688   8.282  19.834  0.00  0.00    +0.000 A 
ATOM     16  C   UNL     1       2.071   6.960  20.086  0.00  0.00    +0.000 A 
ATOM     17  C   UNL     1       2.709   6.190  19.100  0.00  0.00    +0.000 A 
ATOM     18  C   UNL     1       2.959   6.766  17.848  0.00  0.00    +0.000 A 
ATOM     19  C   UNL     1       2.571   8.082  17.588  0.00  0.00    +0.000 A 
ATOM     20  C   UNL     1       1.931   8.849  18.569  0.00  0.00    +0.000 A 
ATOM     21  C   UNL     1       1.529  10.266  18.271  0.00  0.00    +0.000 C 
BRANCH  15  23
ATOM     22  C   UNL     1       0.017   8.466  21.509  0.00  0.00    +0.000 C 
ATOM     23  O   UNL     1       1.039   9.085  20.737  0.00  0.00    +0.000 OA
ENDBRANCH  15  23
ENDBRANCH  14  17
ENDBRANCH  13  14
ENDBRANCH   1  13
TORSDOF 6
ENDMDL
MODEL 4
REMARK VINA RESULT:      -7.1      5.387      7.474
REMARK  Name = 
REMARK  8 active torsions:
REMARK  status: ('A' for Active; 'I' for Inactive)
REMARK    1  A    between atoms: C_1  and  O_2
REMARK    2  A    between atoms: O_2  and  C_3
REMARK    3  A    between atoms: C_5  and  C_6
REMARK    4  A    between atoms: C_6  and  C_7
REMARK    5  A    between atoms: C_7  and  N_8
REMARK    6  A    between atoms: N_8  and  C_9
REMARK    7  A    between atoms: C_13  and  C_14
REMARK    8  A    between atoms: C_21  and  C_22
REMARK                            x       y       z     vdW  Elec       q    Type
REMARK                         _______ _______ _______ _____ _____    ______ ____
ROOT
ATOM      1  N   UNL     1       1.759   9.970  17.625  0.00  0.00    +0.000 NA
ATOM      2  H   UNL     1       1.298  10.126  16.727  0.00  0.00    +0.000 HD
ENDROOT
BRANCH   1   3
ATOM      3  C   UNL     1       0.978  10.601  18.707  0.00  0.00    +0.000 C 
ATOM      4  C   UNL     1       1.582  11.924  19.199  0.00  0.00    +0.000 C 
ATOM      5  C   UNL     1       0.791  12.461  20.377  0.00  0.00    +0.000 C 
ATOM      6  O   UNL     1       0.764  11.507  21.432  0.00  0.00    +0.000 OA
ATOM      7  C   UNL     1       0.096  10.284  21.059  0.00  0.00    +0.000 C 
ATOM      8  C   UNL     1       0.844   9.625  19.890  0.00  0.00    +0.000 C 
BRANCH   7   9
ATOM      9  C   UNL     1      -0.044   9.332  22.261  0.00  0.00    +0.000 C 
ATOM     10  F   UNL     1       1.150   8.892  22.722  0.00  0.00    +0.000 F 
ATOM     11  F   UNL     1      -0.651   9.967  23.298  0.00  0.00    +0.000 F 
ATOM     12  F   UNL     1      -0.789   8.237  21.978  0.00  0.00    +0.000 F 
ENDBRANCH   7   9
ENDBRANCH   1   3
BRANCH   1  13
ATOM     13  C   UNL     1       1.936   8.529  17.843  0.00  0.00    +0.000 C 
BRANCH  13  14
ATOM     14  C   UNL     1       3.312   8.008  17.401  0.00  0.00    +0.000 C 
BRANCH  14  17
ATOM     15  C   UNL     1       5.061   4.824  18.602  0.00  0.00    +0.000 A 
ATOM     16  C   UNL     1       4.831   6.078  18.025  0.00  0.00    +0.000 A 
ATOM     17  C   UNL     1       3.537   6.618  17.956  0.00  0.00    +0.000 A 
ATOM     18  C   UNL     1       2.466   5.879  18.476  0.00  0.00    +0.000 A 
ATOM     19  C   UNL     1       2.689   4.623  19.045  0.00  0.00    +0.000 A 
ATOM     20  C   UNL     1       3.978   4.082  19.109  0.00  0.00    +0.000 A 
ATOM     21  C   UNL     1       4.196   2.732  19.734  0.00  0.00    +0.000 C 
BRANCH  15  23
ATOM     22  C   UNL     1       7.298   4.734  17.815  0.00  0.00    +0.000 C 
ATOM     23  O   UNL     1       6.291   4.223  18.680  0.00  0.00    +0.000 OA
ENDBRANCH  15  23
ENDBRANCH  14  17
ENDBRANCH  13  14
ENDBRANCH   1  13
TORSDOF 6
ENDMDL
MODEL 5
REMARK VINA RESULT:      -7.0      4.262      6.054
REMARK  Name = 
REMARK  8 active torsions:
REMARK  status: ('A' for Active; 'I' for Inactive)
REMARK    1  A    between atoms: C_1  and  O_2
REMARK    2  A    between atoms: O_2  and  C_3
REMARK    3  A    between atoms: C_5  and  C_6
REMARK    4  A    between atoms: C_6  and  C_7
REMARK    5  A    between atoms: C_7  and  N_8
REMARK    6  A    between atoms: N_8  and  C_9
REMARK    7  A    between atoms: C_13  and  C_14
REMARK    8  A    between atoms: C_21  and  C_22
REMARK                            x       y       z     vdW  Elec       q    Type
REMARK                         _______ _______ _______ _____ _____    ______ ____
ROOT
ATOM      1  N   UNL     1       4.692   5.284  17.507  0.00  0.00    +0.000 NA
ATOM      2  H   UNL     1       5.711   5.235  17.553  0.00  0.00    +0.000 HD
ENDROOT
BRANCH   1   3
ATOM      3  C   UNL     1       4.106   4.017  17.987  0.00  0.00    +0.000 C 
ATOM      4  C   UNL     1       3.039   3.446  17.043  0.00  0.00    +0.000 C 
ATOM      5  C   UNL     1       2.407   2.205  17.647  0.00  0.00    +0.000 C 
ATOM      6  O   UNL     1       1.835   2.508  18.914  0.00  0.00    +0.000 OA
ATOM      7  C   UNL     1       2.818   2.936  19.880  0.00  0.00    +0.000 C 
ATOM      8  C   UNL     1       3.498   4.222  19.387  0.00  0.00    +0.000 C 
BRANCH   7   9
ATOM      9  C   UNL     1       2.191   3.115  21.275  0.00  0.00    +0.000 C 
ATOM     10  F   UNL     1       2.349   4.369  21.762  0.00  0.00    +0.000 F 
ATOM     11  F   UNL     1       0.854   2.883  21.225  0.00  0.00    +0.000 F 
ATOM     12  F   UNL     1       2.706   2.264  22.193  0.00  0.00    +0.000 F 
ENDBRANCH   7   9
ENDBRANCH   1   3
BRANCH   1  13
ATOM     13  C   UNL     1       4.219   6.438  18.283  0.00  0.00    +0.000 C 
BRANCH  13  14
ATOM     14  C   UNL     1       3.128   7.249  17.568  0.00  0.00    +0.000 C 
BRANCH  14  17
ATOM     15  C   UNL     1       0.706   9.766  19.128  0.00  0.00    +0.000 A 
ATOM     16  C   UNL     1       1.542   9.117  18.212  0.00  0.00    +0.000 A 
ATOM     17  C   UNL     1       2.288   7.988  18.587  0.00  0.00    +0.000 A 
ATOM     18  C   UNL     1       2.185   7.514  19.901  0.00  0.00    +0.000 A 
ATOM     19  C   UNL     1       1.358   8.163  20.820  0.00  0.00    +0.000 A 
ATOM     20  C   UNL     1       0.618   9.292  20.449  0.00  0.00    +0.000 A 
ATOM     21  C   UNL     1      -0.272   9.970  21.453  0.00  0.00    +0.000 C 
BRANCH  15  23
ATOM     22  C   UNL     1      -1.183  10.693  18.031  0.00  0.00    +0.000 C 
ATOM     23  O   UNL     1      -0.031  10.887  18.841  0.00  0.00    +0.000 OA
ENDBRANCH  15  23
ENDBRANCH  14  17
ENDBRANCH  13  14
ENDBRANCH   1  13
TORSDOF 6
ENDMDL
MODEL 6
REMARK VINA RESULT:      -6.9      4.235      6.053
REMARK  Name = 
REMARK  8 active torsions:
REMARK  status: ('A' for Active; 'I' for Inactive)
REMARK    1  A    between atoms: C_1  and  O_2
REMARK    2  A    between atoms: O_2  and  C_3
REMARK    3  A    between atoms: C_5  and  C_6
REMARK    4  A    between atoms: C_6  and  C_7
REMARK    5  A    between atoms: C_7  and  N_8
REMARK    6  A    between atoms: N_8  and  C_9
REMARK    7  A    between atoms: C_13  and  C_14
REMARK    8  A    between atoms: C_21  and  C_22
REMARK                            x       y       z     vdW  Elec       q    Type
REMARK                         _______ _______ _______ _____ _____    ______ ____
ROOT
ATOM      1  N   UNL     1       5.352   4.901  18.436  0.00  0.00    +0.000 NA
ATOM      2  H   UNL     1       6.277   4.928  18.868  0.00  0.00    +0.000 HD
ENDROOT
BRANCH   1   3
ATOM      3  C   UNL     1       4.655   3.658  18.821  0.00  0.00    +0.000 C 
ATOM      4  C   UNL     1       3.922   2.986  17.651  0.00  0.00    +0.000 C 
ATOM      5  C   UNL     1       3.143   1.778  18.137  0.00  0.00    +0.000 C 
ATOM      6  O   UNL     1       2.217   2.160  19.148  0.00  0.00    +0.000 OA
ATOM      7  C   UNL     1       2.864   2.687  20.324  0.00  0.00    +0.000 C 
ATOM      8  C   UNL     1       3.655   3.951  19.954  0.00  0.00    +0.000 C 
BRANCH   7   9
ATOM      9  C   UNL     1       1.847   2.955  21.451  0.00  0.00    +0.000 C 
ATOM     10  F   UNL     1       2.230   3.960  22.272  0.00  0.00    +0.000 F 
ATOM     11  F   UNL     1       0.647   3.315  20.927  0.00  0.00    +0.000 F 
ATOM     12  F   UNL     1       1.628   1.867  22.227  0.00  0.00    +0.000 F 
ENDBRANCH   7   9
ENDBRANCH   1   3
BRANCH   1  13
ATOM     13  C   UNL     1       4.594   6.098  18.821  0.00  0.00    +0.000 C 
BRANCH  13  14
ATOM     14  C   UNL     1       3.640   6.595  17.725  0.00  0.00    +0.000 C 
BRANCH  14  17
ATOM     15  C   UNL     1       1.345   8.401  20.197  0.00  0.00    +0.000 A 
ATOM     16  C   UNL     1       2.191   7.446  19.622  0.00  0.00    +0.000 A 
ATOM     17  C   UNL     1       2.664   7.594  18.309  0.00  0.00    +0.000 A 
ATOM     18  C   UNL     1       2.275   8.721  17.572  0.00  0.00    +0.000 A 
ATOM     19  C   UNL     1       1.425   9.672  18.138  0.00  0.00    +0.000 A 
ATOM     20  C   UNL     1       0.948   9.523  19.446  0.00  0.00    +0.000 A 
ATOM     21  C   UNL     1       0.040  10.564  20.039  0.00  0.00    +0.000 C 
BRANCH  15  23
ATOM     22  C   UNL     1       1.490   9.054  22.474  0.00  0.00    +0.000 C 
ATOM     23  O   UNL     1       0.823   8.309  21.463  0.00  0.00    +0.000 OA
ENDBRANCH  15  23
ENDBRANCH  14  17
ENDBRANCH  13  14
ENDBRANCH   1  13
TORSDOF 6
ENDMDL
MODEL 7
REMARK VINA RESULT:      -6.8      4.777      6.553
REMARK  Name = 
REMARK  8 active torsions:
REMARK  status: ('A' for Active; 'I' for Inactive)
REMARK    1  A    between atoms: C_1  and  O_2
REMARK    2  A    between atoms: O_2  and  C_3
REMARK    3  A    between atoms: C_5  and  C_6
REMARK    4  A    between atoms: C_6  and  C_7
REMARK    5  A    between atoms: C_7  and  N_8
REMARK    6  A    between atoms: N_8  and  C_9
REMARK    7  A    between atoms: C_13  and  C_14
REMARK    8  A    between atoms: C_21  and  C_22
REMARK                            x       y       z     vdW  Elec       q    Type
REMARK                         _______ _______ _______ _____ _____    ______ ____
ROOT
ATOM      1  N   UNL     1       2.151   6.200  17.647  0.00  0.00    +0.000 NA
ATOM      2  H   UNL     1       2.260   6.265  16.634  0.00  0.00    +0.000 HD
ENDROOT
BRANCH   1   3
ATOM      3  C   UNL     1       2.702   4.920  18.132  0.00  0.00    +0.000 C 
ATOM      4  C   UNL     1       2.354   3.728  17.228  0.00  0.00    +0.000 C 
ATOM      5  C   UNL     1       2.860   2.435  17.839  0.00  0.00    +0.000 C 
ATOM      6  O   UNL     1       2.306   2.250  19.136  0.00  0.00    +0.000 OA
ATOM      7  C   UNL     1       2.704   3.282  20.063  0.00  0.00    +0.000 C 
ATOM      8  C   UNL     1       2.202   4.644  19.561  0.00  0.00    +0.000 C 
BRANCH   7   9
ATOM      9  C   UNL     1       2.208   2.976  21.489  0.00  0.00    +0.000 C 
ATOM     10  F   UNL     1       2.898   1.971  22.078  0.00  0.00    +0.000 F 
ATOM     11  F   UNL     1       2.355   4.067  22.284  0.00  0.00    +0.000 F 
ATOM     12  F   UNL     1       0.898   2.634  21.526  0.00  0.00    +0.000 F 
ENDBRANCH   7   9
ENDBRANCH   1   3
BRANCH   1  13
ATOM     13  C   UNL     1       2.798   7.354  18.286  0.00  0.00    +0.000 C 
BRANCH  13  14
ATOM     14  C   UNL     1       2.025   8.668  18.100  0.00  0.00    +0.000 C 
BRANCH  14  17
ATOM     15  C   UNL     1      -0.158  10.513  20.643  0.00  0.00    +0.000 A 
ATOM     16  C   UNL     1       0.516  10.181  19.463  0.00  0.00    +0.000 A 
ATOM     17  C   UNL     1       1.362   9.062  19.403  0.00  0.00    +0.000 A 
ATOM     18  C   UNL     1       1.526   8.275  20.550  0.00  0.00    +0.000 A 
ATOM     19  C   UNL     1       0.862   8.607  21.732  0.00  0.00    +0.000 A 
ATOM     20  C   UNL     1       0.023   9.725  21.795  0.00  0.00    +0.000 A 
ATOM     21  C   UNL     1      -0.689  10.059  23.076  0.00  0.00    +0.000 C 
BRANCH  15  23
ATOM     22  C   UNL     1      -1.858  11.874  19.699  0.00  0.00    +0.000 C 
ATOM     23  O   UNL     1      -0.979  11.603  20.784  0.00  0.00    +0.000 OA
ENDBRANCH  15  23
ENDBRANCH  14  17
ENDBRANCH  13  14
ENDBRANCH   1  13
TORSDOF 6
ENDMDL
MODEL 8
REMARK VINA RESULT:      -6.8      4.684      6.418
REMARK  Name = 
REMARK  8 active torsions:
REMARK  status: ('A' for Active; 'I' for Inactive)
REMARK    1  A    between atoms: C_1  and  O_2
REMARK    2  A    between atoms: O_2  and  C_3
REMARK    3  A    between atoms: C_5  and  C_6
REMARK    4  A    between atoms: C_6  and  C_7
REMARK    5  A    between atoms: C_7  and  N_8
REMARK    6  A    between atoms: N_8  and  C_9
REMARK    7  A    between atoms: C_13  and  C_14
REMARK    8  A    between atoms: C_21  and  C_22
REMARK                            x       y       z     vdW  Elec       q    Type
REMARK                         _______ _______ _______ _____ _____    ______ ____
ROOT
ATOM      1  N   UNL     1       3.474   7.068  17.874  0.00  0.00    +0.000 NA
ATOM      2  H   UNL     1       4.364   7.545  18.024  0.00  0.00    +0.000 HD
ENDROOT
BRANCH   1   3
ATOM      3  C   UNL     1       3.587   5.653  18.280  0.00  0.00    +0.000 C 
ATOM      4  C   UNL     1       3.912   4.710  17.113  0.00  0.00    +0.000 C 
ATOM      5  C   UNL     1       3.909   3.267  17.581  0.00  0.00    +0.000 C 
ATOM      6  O   UNL     1       2.648   2.933  18.149  0.00  0.00    +0.000 OA
ATOM      7  C   UNL     1       2.347   3.710  19.328  0.00  0.00    +0.000 C 
ATOM      8  C   UNL     1       2.282   5.200  18.959  0.00  0.00    +0.000 C 
BRANCH   7   9
ATOM      9  C   UNL     1       1.048   3.227  20.000  0.00  0.00    +0.000 C 
ATOM     10  F   UNL     1       1.278   2.492  21.113  0.00  0.00    +0.000 F 
ATOM     11  F   UNL     1       0.292   4.289  20.384  0.00  0.00    +0.000 F 
ATOM     12  F   UNL     1       0.281   2.474  19.177  0.00  0.00    +0.000 F 
ENDBRANCH   7   9
ENDBRANCH   1   3
BRANCH   1  13
ATOM     13  C   UNL     1       2.411   7.767  18.607  0.00  0.00    +0.000 C 
BRANCH  13  14
ATOM     14  C   UNL     1       1.707   8.850  17.777  0.00  0.00    +0.000 C 
BRANCH  14  17
ATOM     15  C   UNL     1       0.146  10.493  20.860  0.00  0.00    +0.000 A 
ATOM     16  C   UNL     1       0.971   9.710  20.045  0.00  0.00    +0.000 A 
ATOM     17  C   UNL     1       0.762   9.639  18.658  0.00  0.00    +0.000 A 
ATOM     18  C   UNL     1      -0.293  10.368  18.094  0.00  0.00    +0.000 A 
ATOM     19  C   UNL     1      -1.123  11.145  18.904  0.00  0.00    +0.000 A 
ATOM     20  C   UNL     1      -0.919  11.212  20.287  0.00  0.00    +0.000 A 
ATOM     21  C   UNL     1      -1.821  12.061  21.140  0.00  0.00    +0.000 C 
BRANCH  15  23
ATOM     22  C   UNL     1       0.681   9.410  22.902  0.00  0.00    +0.000 C 
ATOM     23  O   UNL     1       0.274  10.590  22.222  0.00  0.00    +0.000 OA
ENDBRANCH  15  23
ENDBRANCH  14  17
ENDBRANCH  13  14
ENDBRANCH   1  13
TORSDOF 6
ENDMDL
MODEL 9
REMARK VINA RESULT:      -6.8      2.871      4.409
REMARK  Name = 
REMARK  8 active torsions:
REMARK  status: ('A' for Active; 'I' for Inactive)
REMARK    1  A    between atoms: C_1  and  O_2
REMARK    2  A    between atoms: O_2  and  C_3
REMARK    3  A    between atoms: C_5  and  C_6
REMARK    4  A    between atoms: C_6  and  C_7
REMARK    5  A    between atoms: C_7  and  N_8
REMARK    6  A    between atoms: N_8  and  C_9
REMARK    7  A    between atoms: C_13  and  C_14
REMARK    8  A    between atoms: C_21  and  C_22
REMARK                            x       y       z     vdW  Elec       q    Type
REMARK                         _______ _______ _______ _____ _____    ______ ____
ROOT
ATOM      1  N   UNL     1       4.639   3.356  17.883  0.00  0.00    +0.000 NA
ATOM      2  H   UNL     1       3.825   2.903  17.465  0.00  0.00    +0.000 HD
ENDROOT
BRANCH   1   3
ATOM      3  C   UNL     1       5.178   4.375  16.961  0.00  0.00    +0.000 C 
ATOM      4  C   UNL     1       6.024   3.780  15.826  0.00  0.00    +0.000 C 
ATOM      5  C   UNL     1       6.630   4.886  14.982  0.00  0.00    +0.000 C 
ATOM      6  O   UNL     1       7.422   5.748  15.790  0.00  0.00    +0.000 OA
ATOM      7  C   UNL     1       6.648   6.429  16.800  0.00  0.00    +0.000 C 
ATOM      8  C   UNL     1       6.017   5.397  17.747  0.00  0.00    +0.000 C 
BRANCH   7   9
ATOM      9  C   UNL     1       7.504   7.460  17.561  0.00  0.00    +0.000 C 
ATOM     10  F   UNL     1       8.115   6.933  18.647  0.00  0.00    +0.000 F 
ATOM     11  F   UNL     1       8.487   7.943  16.757  0.00  0.00    +0.000 F 
ATOM     12  F   UNL     1       6.784   8.525  17.986  0.00  0.00    +0.000 F 
ENDBRANCH   7   9
ENDBRANCH   1   3
BRANCH   1  13
ATOM     13  C   UNL     1       4.269   3.931  19.183  0.00  0.00    +0.000 C 
BRANCH  13  14
ATOM     14  C   UNL     1       2.756   4.131  19.353  0.00  0.00    +0.000 C 
BRANCH  14  17
ATOM     15  C   UNL     1       1.799   7.741  20.185  0.00  0.00    +0.000 A 
ATOM     16  C   UNL     1       2.051   6.370  20.308  0.00  0.00    +0.000 A 
ATOM     17  C   UNL     1       2.410   5.595  19.193  0.00  0.00    +0.000 A 
ATOM     18  C   UNL     1       2.513   6.217  17.942  0.00  0.00    +0.000 A 
ATOM     19  C   UNL     1       2.255   7.583  17.812  0.00  0.00    +0.000 A 
ATOM     20  C   UNL     1       1.892   8.355  18.922  0.00  0.00    +0.000 A 
ATOM     21  C   UNL     1       1.626   9.826  18.760  0.00  0.00    +0.000 C 
BRANCH  15  23
ATOM     22  C   UNL     1       0.039   8.538  21.562  0.00  0.00    +0.000 C 
ATOM     23  O   UNL     1       1.420   8.554  21.222  0.00  0.00    +0.000 OA
ENDBRANCH  15  23
ENDBRANCH  14  17
ENDBRANCH  13  14
ENDBRANCH   1  13
TORSDOF 6
ENDMDL
