MODEL 1
REMARK VINA RESULT:      -7.1      0.000      0.000
REMARK  Name = 
REMARK  10 active torsions:
REMARK  status: ('A' for Active; 'I' for Inactive)
REMARK    1  A    between atoms: C_1  and  O_2
REMARK    2  A    between atoms: O_2  and  C_3
REMARK    3  A    between atoms: C_6  and  C_7
REMARK    4  A    between atoms: N_12  and  C_13
REMARK    5  A    between atoms: C_13  and  C_14
REMARK    6  A    between atoms: C_14  and  C_15
REMARK    7  A    between atoms: C_15  and  C_16
REMARK    8  A    between atoms: N_18  and  C_19
REMARK    9  A    between atoms: C_24  and  C_25
REMARK   10  A    between atoms: C_25  and  O_27
REMARK                            x       y       z     vdW  Elec       q    Type
REMARK                         _______ _______ _______ _____ _____    ______ ____
ROOT
ATOM      1  C   UNL     1       9.927  10.735  18.961  0.00  0.00    +0.000 C 
ENDROOT
BRANCH   1   7
ATOM      2  C   UNL     1       8.162  14.143  22.100  0.00  0.00    +0.000 C 
ATOM      3  C   UNL     1       8.656  13.624  20.968  0.00  0.00    +0.000 C 
ATOM      4  S   UNL     1       9.192  14.615  19.661  0.00  0.00    +0.000 S 
ATOM      5  C   UNL     1       9.829  13.248  18.757  0.00  0.00    +0.000 C 
ATOM      6  S   UNL     1      10.657  13.457  17.323  0.00  0.00    +0.000 S 
ATOM      7  N   UNL     1       9.537  12.072  19.416  0.00  0.00    +0.000 N 
ATOM      8  C   UNL     1       8.876  12.186  20.633  0.00  0.00    +0.000 C 
ATOM      9  O   UNL     1       8.535  11.250  21.340  0.00  0.00    +0.000 OA
BRANCH   2  13
ATOM     10  C   UNL     1       6.930  11.953  25.548  0.00  0.00    +0.000 A 
ATOM     11  C   UNL     1       8.249  12.394  25.428  0.00  0.00    +0.000 A 
ATOM     12  C   UNL     1       8.654  13.115  24.301  0.00  0.00    +0.000 A 
ATOM     13  C   UNL     1       7.744  13.380  23.273  0.00  0.00    +0.000 A 
ATOM     14  C   UNL     1       6.431  12.912  23.381  0.00  0.00    +0.000 A 
ATOM     15  C   UNL     1       6.026  12.199  24.514  0.00  0.00    +0.000 A 
BRANCH  10  17
ATOM     16  C   UNL     1       5.294  10.844  26.839  0.00  0.00    +0.000 C 
ATOM     17  O   UNL     1       6.648  11.260  26.694  0.00  0.00    +0.000 OA
ENDBRANCH  10  17
ENDBRANCH   2  13
ENDBRANCH   1   7
BRANCH   1  18
ATOM     18  C   UNL     1       8.787   9.948  18.317  0.00  0.00    +0.000 C 
BRANCH  18  19
ATOM     19  C   UNL     1       8.712   8.466  18.705  0.00  0.00    +0.000 C 
BRANCH  19  20
ATOM     20  C   UNL     1       7.713   7.751  17.815  0.00  0.00    +0.000 C 
ATOM     21  O   UNL     1       6.975   8.372  17.043  0.00  0.00    +0.000 OA
ATOM     22  N   UNL     1       7.728   6.373  17.937  0.00  0.00    +0.000 N 
ATOM     23  H   UNL     1       7.870   6.033  18.889  0.00  0.00    +0.000 HD
BRANCH  22  24
ATOM     24  C   UNL     1       6.907   5.569  17.101  0.00  0.00    +0.000 A 
ATOM     25  C   UNL     1       7.301   5.340  15.772  0.00  0.00    +0.000 A 
ATOM     26  C   UNL     1       6.490   4.620  14.900  0.00  0.00    +0.000 A 
ATOM     27  C   UNL     1       5.268   4.122  15.338  0.00  0.00    +0.000 A 
ATOM     28  C   UNL     1       4.869   4.317  16.661  0.00  0.00    +0.000 A 
ATOM     29  C   UNL     1       5.704   5.005  17.561  0.00  0.00    +0.000 A 
BRANCH  29  30
ATOM     30  C   UNL     1       5.261   5.230  18.961  0.00  0.00    +0.000 C 
ATOM     31  O   UNL     1       4.157   5.666  19.250  0.00  0.00    +0.000 OA
BRANCH  30  32
ATOM     32  O   UNL     1       6.215   4.991  19.885  0.00  0.00    +0.000 OA
ATOM     33  H   UNL     1       6.021   5.320  20.782  0.00  0.00    +0.000 HD
ENDBRANCH  30  32
ENDBRANCH  29  30
ENDBRANCH  22  24
ENDBRANCH  19  20
ENDBRANCH  18  19
ENDBRANCH   1  18
TORSDOF 9
ENDMDL
MODEL 2
REMARK VINA RESULT:      -7.0      1.607      2.141
REMARK  Name = 
REMARK  10 active torsions:
REMARK  status: ('A' for Active; 'I' for Inactive)
REMARK    1  A    between atoms: C_1  and  O_2
REMARK    2  A    between atoms: O_2  and  C_3
REMARK    3  A    between atoms: C_6  and  C_7
REMARK    4  A    between atoms: N_12  and  C_13
REMARK    5  A    between atoms: C_13  and  C_14
REMARK    6  A    between atoms: C_14  and  C_15
REMARK    7  A    between atoms: C_15  and  C_16
REMARK    8  A    between atoms: N_18  and  C_19
REMARK    9  A    between atoms: C_24  and  C_25
REMARK   10  A    between atoms: C_25  and  O_27
REMARK                            x       y       z     vdW  Elec       q    Type
REMARK                         _______ _______ _______ _____ _____    ______ ____
ROOT
ATOM      1  C   UNL     1       9.473  10.148  19.588  0.00  0.00    +0.000 C 
ENDROOT
BRANCH   1   7
ATOM      2  C   UNL     1       9.043  14.015  22.660  0.00  0.00    +0.000 C 
ATOM      3  C   UNL     1       9.399  13.316  21.574  0.00  0.00    +0.000 C 
ATOM      4  S   UNL     1      10.509  13.934  20.407  0.00  0.00    +0.000 S 
ATOM      5  C   UNL     1      10.570  12.419  19.518  0.00  0.00    +0.000 C 
ATOM      6  S   UNL     1      11.597  12.208  18.219  0.00  0.00    +0.000 S 
ATOM      7  N   UNL     1       9.680  11.518  20.065  0.00  0.00    +0.000 N 
ATOM      8  C   UNL     1       8.979  11.936  21.189  0.00  0.00    +0.000 C 
ATOM      9  O   UNL     1       8.150  11.271  21.791  0.00  0.00    +0.000 OA
BRANCH   2  13
ATOM     10  C   UNL     1       6.471  12.674  25.788  0.00  0.00    +0.000 A 
ATOM     11  C   UNL     1       7.823  12.330  25.793  0.00  0.00    +0.000 A 
ATOM     12  C   UNL     1       8.668  12.770  24.771  0.00  0.00    +0.000 A 
ATOM     13  C   UNL     1       8.159  13.544  23.723  0.00  0.00    +0.000 A 
ATOM     14  C   UNL     1       6.798  13.864  23.705  0.00  0.00    +0.000 A 
ATOM     15  C   UNL     1       5.956  13.428  24.734  0.00  0.00    +0.000 A 
BRANCH  10  17
ATOM     16  C   UNL     1       4.786  13.090  27.390  0.00  0.00    +0.000 C 
ATOM     17  O   UNL     1       5.741  12.188  26.839  0.00  0.00    +0.000 OA
ENDBRANCH  10  17
ENDBRANCH   2  13
ENDBRANCH   1   7
BRANCH   1  18
ATOM     18  C   UNL     1       8.385  10.025  18.523  0.00  0.00    +0.000 C 
BRANCH  18  19
ATOM     19  C   UNL     1       8.612   8.926  17.478  0.00  0.00    +0.000 C 
BRANCH  19  20
ATOM     20  C   UNL     1       7.692   7.752  17.756  0.00  0.00    +0.000 C 
ATOM     21  O   UNL     1       7.859   7.019  18.736  0.00  0.00    +0.000 OA
ATOM     22  N   UNL     1       6.666   7.604  16.840  0.00  0.00    +0.000 N 
ATOM     23  H   UNL     1       6.928   7.805  15.873  0.00  0.00    +0.000 HD
BRANCH  22  24
ATOM     24  C   UNL     1       5.677   6.600  17.025  0.00  0.00    +0.000 A 
ATOM     25  C   UNL     1       4.426   6.962  17.551  0.00  0.00    +0.000 A 
ATOM     26  C   UNL     1       3.456   5.999  17.815  0.00  0.00    +0.000 A 
ATOM     27  C   UNL     1       3.722   4.657  17.566  0.00  0.00    +0.000 A 
ATOM     28  C   UNL     1       4.951   4.280  17.021  0.00  0.00    +0.000 A 
ATOM     29  C   UNL     1       5.919   5.251  16.709  0.00  0.00    +0.000 A 
BRANCH  29  30
ATOM     30  C   UNL     1       7.233   4.838  16.152  0.00  0.00    +0.000 C 
ATOM     31  O   UNL     1       8.052   4.190  16.784  0.00  0.00    +0.000 OA
BRANCH  30  32
ATOM     32  O   UNL     1       7.480   5.315  14.914  0.00  0.00    +0.000 OA
ATOM     33  H   UNL     1       7.692   4.643  14.241  0.00  0.00    +0.000 HD
ENDBRANCH  30  32
ENDBRANCH  29  30
ENDBRANCH  22  24
ENDBRANCH  19  20
ENDBRANCH  18  19
ENDBRANCH   1  18
TORSDOF 9
ENDMDL
MODEL 3
REMARK VINA RESULT:      -7.0      1.396      2.119
REMARK  Name = 
REMARK  10 active torsions:
REMARK  status: ('A' for Active; 'I' for Inactive)
REMARK    1  A    between atoms: C_1  and  O_2
REMARK    2  A    between atoms: O_2  and  C_3
REMARK    3  A    between atoms: C_6  and  C_7
REMARK    4  A    between atoms: N_12  and  C_13
REMARK    5  A    between atoms: C_13  and  C_14
REMARK    6  A    between atoms: C_14  and  C_15
REMARK    7  A    between atoms: C_15  and  C_16
REMARK    8  A    between atoms: N_18  and  C_19
REMARK    9  A    between atoms: C_24  and  C_25
REMARK   10  A    between atoms: C_25  and  O_27
REMARK                            x       y       z     vdW  Elec       q    Type
REMARK                         _______ _______ _______ _____ _____    ______ ____
ROOT
ATOM      1  C   UNL     1       9.891  10.385  18.905  0.00  0.00    +0.000 C 
ENDROOT
BRANCH   1   7
ATOM      2  C   UNL     1       8.634  14.081  21.961  0.00  0.00    +0.000 C 
ATOM      3  C   UNL     1       9.058  13.472  20.846  0.00  0.00    +0.000 C 
ATOM      4  S   UNL     1       9.766  14.343  19.536  0.00  0.00    +0.000 S 
ATOM      5  C   UNL     1      10.195  12.878  18.664  0.00  0.00    +0.000 C 
ATOM      6  S   UNL     1      11.070  12.930  17.244  0.00  0.00    +0.000 S 
ATOM      7  N   UNL     1       9.710  11.774  19.334  0.00  0.00    +0.000 N 
ATOM      8  C   UNL     1       9.054  12.011  20.536  0.00  0.00    +0.000 C 
ATOM      9  O   UNL     1       8.557  11.153  21.249  0.00  0.00    +0.000 OA
BRANCH   2  13
ATOM     10  C   UNL     1       7.017  12.093  25.371  0.00  0.00    +0.000 A 
ATOM     11  C   UNL     1       6.170  12.619  24.396  0.00  0.00    +0.000 A 
ATOM     12  C   UNL     1       6.696  13.268  23.276  0.00  0.00    +0.000 A 
ATOM     13  C   UNL     1       8.080  13.414  23.136  0.00  0.00    +0.000 A 
ATOM     14  C   UNL     1       8.927  12.912  24.129  0.00  0.00    +0.000 A 
ATOM     15  C   UNL     1       8.397  12.255  25.244  0.00  0.00    +0.000 A 
BRANCH  10  17
ATOM     16  C   UNL     1       5.208  10.756  26.090  0.00  0.00    +0.000 C 
ATOM     17  O   UNL     1       6.390  11.478  26.421  0.00  0.00    +0.000 OA
ENDBRANCH  10  17
ENDBRANCH   2  13
ENDBRANCH   1   7
BRANCH   1  18
ATOM     18  C   UNL     1       8.584   9.605  18.778  0.00  0.00    +0.000 C 
BRANCH  18  19
ATOM     19  C   UNL     1       8.396   8.850  17.457  0.00  0.00    +0.000 C 
BRANCH  19  20
ATOM     20  C   UNL     1       7.558   7.606  17.688  0.00  0.00    +0.000 C 
ATOM     21  O   UNL     1       7.833   6.800  18.584  0.00  0.00    +0.000 OA
ATOM     22  N   UNL     1       6.478   7.482  16.835  0.00  0.00    +0.000 N 
ATOM     23  H   UNL     1       6.657   7.781  15.875  0.00  0.00    +0.000 HD
BRANCH  22  24
ATOM     24  C   UNL     1       5.556   6.412  16.994  0.00  0.00    +0.000 A 
ATOM     25  C   UNL     1       4.305   6.668  17.578  0.00  0.00    +0.000 A 
ATOM     26  C   UNL     1       3.402   5.636  17.819  0.00  0.00    +0.000 A 
ATOM     27  C   UNL     1       3.737   4.328  17.487  0.00  0.00    +0.000 A 
ATOM     28  C   UNL     1       4.966   4.055  16.883  0.00  0.00    +0.000 A 
ATOM     29  C   UNL     1       5.865   5.099  16.595  0.00  0.00    +0.000 A 
BRANCH  29  30
ATOM     30  C   UNL     1       7.180   4.797  15.974  0.00  0.00    +0.000 C 
ATOM     31  O   UNL     1       7.459   5.094  14.823  0.00  0.00    +0.000 OA
BRANCH  30  32
ATOM     32  O   UNL     1       8.012   4.088  16.766  0.00  0.00    +0.000 OA
ATOM     33  H   UNL     1       8.046   4.372  17.698  0.00  0.00    +0.000 HD
ENDBRANCH  30  32
ENDBRANCH  29  30
ENDBRANCH  22  24
ENDBRANCH  19  20
ENDBRANCH  18  19
ENDBRANCH   1  18
TORSDOF 9
ENDMDL
MODEL 4
REMARK VINA RESULT:      -7.0      7.393      8.457
REMARK  Name = 
REMARK  10 active torsions:
REMARK  status: ('A' for Active; 'I' for Inactive)
REMARK    1  A    between atoms: C_1  and  O_2
REMARK    2  A    between atoms: O_2  and  C_3
REMARK    3  A    between atoms: C_6  and  C_7
REMARK    4  A    between atoms: N_12  and  C_13
REMARK    5  A    between atoms: C_13  and  C_14
REMARK    6  A    between atoms: C_14  and  C_15
REMARK    7  A    between atoms: C_15  and  C_16
REMARK    8  A    between atoms: N_18  and  C_19
REMARK    9  A    between atoms: C_24  and  C_25
REMARK   10  A    between atoms: C_25  and  O_27
REMARK                            x       y       z     vdW  Elec       q    Type
REMARK                         _______ _______ _______ _____ _____    ______ ____
ROOT
ATOM      1  C   UNL     1       0.195  10.345  18.509  0.00  0.00    +0.000 C 
ENDROOT
BRANCH   1   7
ATOM      2  C   UNL     1      -1.497  14.188  21.145  0.00  0.00    +0.000 C 
ATOM      3  C   UNL     1      -0.734  13.505  20.281  0.00  0.00    +0.000 C 
ATOM      4  S   UNL     1       0.710  14.167  19.607  0.00  0.00    +0.000 S 
ATOM      5  C   UNL     1       1.155  12.657  18.826  0.00  0.00    +0.000 C 
ATOM      6  S   UNL     1       2.600  12.487  18.009  0.00  0.00    +0.000 S 
ATOM      7  N   UNL     1       0.158  11.721  19.011  0.00  0.00    +0.000 N 
ATOM      8  C   UNL     1      -0.928  12.110  19.785  0.00  0.00    +0.000 C 
ATOM      9  O   UNL     1      -1.897  11.412  20.041  0.00  0.00    +0.000 OA
BRANCH   2  13
ATOM     10  C   UNL     1      -5.007  12.746  23.094  0.00  0.00    +0.000 A 
ATOM     11  C   UNL     1      -3.755  12.589  23.691  0.00  0.00    +0.000 A 
ATOM     12  C   UNL     1      -2.604  13.063  23.056  0.00  0.00    +0.000 A 
ATOM     13  C   UNL     1      -2.697  13.681  21.805  0.00  0.00    +0.000 A 
ATOM     14  C   UNL     1      -3.948  13.812  21.195  0.00  0.00    +0.000 A 
ATOM     15  C   UNL     1      -5.099  13.344  21.837  0.00  0.00    +0.000 A 
BRANCH  10  17
ATOM     16  C   UNL     1      -7.099  13.176  24.101  0.00  0.00    +0.000 C 
ATOM     17  O   UNL     1      -6.061  12.246  23.808  0.00  0.00    +0.000 OA
ENDBRANCH  10  17
ENDBRANCH   2  13
ENDBRANCH   1   7
BRANCH   1  18
ATOM     18  C   UNL     1       1.199   9.451  19.236  0.00  0.00    +0.000 C 
BRANCH  18  19
ATOM     19  C   UNL     1       2.207   8.729  18.334  0.00  0.00    +0.000 C 
BRANCH  19  20
ATOM     20  C   UNL     1       2.360   7.287  18.784  0.00  0.00    +0.000 C 
ATOM     21  O   UNL     1       2.032   6.927  19.919  0.00  0.00    +0.000 OA
ATOM     22  N   UNL     1       2.869   6.441  17.816  0.00  0.00    +0.000 N 
ATOM     23  H   UNL     1       3.598   6.854  17.231  0.00  0.00    +0.000 HD
BRANCH  22  24
ATOM     24  C   UNL     1       2.983   5.047  18.068  0.00  0.00    +0.000 A 
ATOM     25  C   UNL     1       1.854   4.228  17.909  0.00  0.00    +0.000 A 
ATOM     26  C   UNL     1       1.905   2.871  18.215  0.00  0.00    +0.000 A 
ATOM     27  C   UNL     1       3.084   2.311  18.695  0.00  0.00    +0.000 A 
ATOM     28  C   UNL     1       4.224   3.103  18.839  0.00  0.00    +0.000 A 
ATOM     29  C   UNL     1       4.193   4.465  18.487  0.00  0.00    +0.000 A 
BRANCH  29  30
ATOM     30  C   UNL     1       5.405   5.306  18.666  0.00  0.00    +0.000 C 
ATOM     31  O   UNL     1       5.725   6.189  17.886  0.00  0.00    +0.000 OA
BRANCH  30  32
ATOM     32  O   UNL     1       6.169   4.953  19.721  0.00  0.00    +0.000 OA
ATOM     33  H   UNL     1       6.096   4.021  19.997  0.00  0.00    +0.000 HD
ENDBRANCH  30  32
ENDBRANCH  29  30
ENDBRANCH  22  24
ENDBRANCH  19  20
ENDBRANCH  18  19
ENDBRANCH   1  18
TORSDOF 9
ENDMDL
MODEL 5
REMARK VINA RESULT:      -7.0      8.382     11.488
REMARK  Name = 
REMARK  10 active torsions:
REMARK  status: ('A' for Active; 'I' for Inactive)
REMARK    1  A    between atoms: C_1  and  O_2
REMARK    2  A    between atoms: O_2  and  C_3
REMARK    3  A    between atoms: C_6  and  C_7
REMARK    4  A    between atoms: N_12  and  C_13
REMARK    5  A    between atoms: C_13  and  C_14
REMARK    6  A    between atoms: C_14  and  C_15
REMARK    7  A    between atoms: C_15  and  C_16
REMARK    8  A    between atoms: N_18  and  C_19
REMARK    9  A    between atoms: C_24  and  C_25
REMARK   10  A    between atoms: C_25  and  O_27
REMARK                            x       y       z     vdW  Elec       q    Type
REMARK                         _______ _______ _______ _____ _____    ______ ____
ROOT
ATOM      1  C   UNL     1       1.314   9.850  18.698  0.00  0.00    +0.000 C 
ENDROOT
BRANCH   1   7
ATOM      2  C   UNL     1       3.739   5.550  19.157  0.00  0.00    +0.000 C 
ATOM      3  C   UNL     1       2.836   6.507  19.405  0.00  0.00    +0.000 C 
ATOM      4  S   UNL     1       1.826   6.477  20.804  0.00  0.00    +0.000 S 
ATOM      5  C   UNL     1       1.162   8.072  20.481  0.00  0.00    +0.000 C 
ATOM      6  S   UNL     1       0.114   8.815  21.546  0.00  0.00    +0.000 S 
ATOM      7  N   UNL     1       1.644   8.546  19.279  0.00  0.00    +0.000 N 
ATOM      8  C   UNL     1       2.557   7.740  18.610  0.00  0.00    +0.000 C 
ATOM      9  O   UNL     1       3.073   8.002  17.535  0.00  0.00    +0.000 OA
BRANCH   2  13
ATOM     10  C   UNL     1       6.479   5.459  15.888  0.00  0.00    +0.000 A 
ATOM     11  C   UNL     1       6.809   6.133  17.064  0.00  0.00    +0.000 A 
ATOM     12  C   UNL     1       5.915   6.162  18.138  0.00  0.00    +0.000 A 
ATOM     13  C   UNL     1       4.671   5.532  18.032  0.00  0.00    +0.000 A 
ATOM     14  C   UNL     1       4.330   4.882  16.842  0.00  0.00    +0.000 A 
ATOM     15  C   UNL     1       5.230   4.848  15.772  0.00  0.00    +0.000 A 
BRANCH  10  17
ATOM     16  C   UNL     1       7.094   4.821  13.699  0.00  0.00    +0.000 C 
ATOM     17  O   UNL     1       7.431   5.497  14.906  0.00  0.00    +0.000 OA
ENDBRANCH  10  17
ENDBRANCH   2  13
ENDBRANCH   1   7
BRANCH   1  18
ATOM     18  C   UNL     1      -0.043   9.887  17.998  0.00  0.00    +0.000 C 
BRANCH  18  19
ATOM     19  C   UNL     1      -0.807  11.211  18.115  0.00  0.00    +0.000 C 
BRANCH  19  20
ATOM     20  C   UNL     1      -2.279  10.937  18.359  0.00  0.00    +0.000 C 
ATOM     21  O   UNL     1      -2.713   9.785  18.463  0.00  0.00    +0.000 OA
ATOM     22  N   UNL     1      -3.058  12.074  18.472  0.00  0.00    +0.000 N 
ATOM     23  H   UNL     1      -2.797  12.832  17.838  0.00  0.00    +0.000 HD
BRANCH  22  24
ATOM     24  C   UNL     1      -4.439  11.970  18.788  0.00  0.00    +0.000 A 
ATOM     25  C   UNL     1      -5.309  11.367  17.865  0.00  0.00    +0.000 A 
ATOM     26  C   UNL     1      -6.679  11.310  18.104  0.00  0.00    +0.000 A 
ATOM     27  C   UNL     1      -7.205  11.863  19.266  0.00  0.00    +0.000 A 
ATOM     28  C   UNL     1      -6.356  12.446  20.208  0.00  0.00    +0.000 A 
ATOM     29  C   UNL     1      -4.965  12.466  19.995  0.00  0.00    +0.000 A 
BRANCH  29  30
ATOM     30  C   UNL     1      -4.070  13.110  20.991  0.00  0.00    +0.000 C 
ATOM     31  O   UNL     1      -4.111  14.303  21.251  0.00  0.00    +0.000 OA
BRANCH  30  32
ATOM     32  O   UNL     1      -3.150  12.279  21.522  0.00  0.00    +0.000 OA
ATOM     33  H   UNL     1      -2.365  12.713  21.905  0.00  0.00    +0.000 HD
ENDBRANCH  30  32
ENDBRANCH  29  30
ENDBRANCH  22  24
ENDBRANCH  19  20
ENDBRANCH  18  19
ENDBRANCH   1  18
TORSDOF 9
ENDMDL
MODEL 6
REMARK VINA RESULT:      -7.0      7.311      8.418
REMARK  Name = 
REMARK  10 active torsions:
REMARK  status: ('A' for Active; 'I' for Inactive)
REMARK    1  A    between atoms: C_1  and  O_2
REMARK    2  A    between atoms: O_2  and  C_3
REMARK    3  A    between atoms: C_6  and  C_7
REMARK    4  A    between atoms: N_12  and  C_13
REMARK    5  A    between atoms: C_13  and  C_14
REMARK    6  A    between atoms: C_14  and  C_15
REMARK    7  A    between atoms: C_15  and  C_16
REMARK    8  A    between atoms: N_18  and  C_19
REMARK    9  A    between atoms: C_24  and  C_25
REMARK   10  A    between atoms: C_25  and  O_27
REMARK                            x       y       z     vdW  Elec       q    Type
REMARK                         _______ _______ _______ _____ _____    ______ ____
ROOT
ATOM      1  C   UNL     1       0.227  10.503  18.524  0.00  0.00    +0.000 C 
ENDROOT
BRANCH   1   7
ATOM      2  C   UNL     1      -1.325  14.235  21.396  0.00  0.00    +0.000 C 
ATOM      3  C   UNL     1      -0.600  13.585  20.476  0.00  0.00    +0.000 C 
ATOM      4  S   UNL     1       0.832  14.260  19.790  0.00  0.00    +0.000 S 
ATOM      5  C   UNL     1       1.230  12.784  18.922  0.00  0.00    +0.000 C 
ATOM      6  S   UNL     1       2.647  12.635  18.052  0.00  0.00    +0.000 S 
ATOM      7  N   UNL     1       0.226  11.853  19.093  0.00  0.00    +0.000 N 
ATOM      8  C   UNL     1      -0.830  12.218  19.919  0.00  0.00    +0.000 C 
ATOM      9  O   UNL     1      -1.801  11.522  20.171  0.00  0.00    +0.000 OA
BRANCH   2  13
ATOM     10  C   UNL     1      -4.789  12.670  23.334  0.00  0.00    +0.000 A 
ATOM     11  C   UNL     1      -4.918  13.452  22.185  0.00  0.00    +0.000 A 
ATOM     12  C   UNL     1      -3.784  13.963  21.546  0.00  0.00    +0.000 A 
ATOM     13  C   UNL     1      -2.512  13.712  22.068  0.00  0.00    +0.000 A 
ATOM     14  C   UNL     1      -2.386  12.953  23.235  0.00  0.00    +0.000 A 
ATOM     15  C   UNL     1      -3.522  12.436  23.868  0.00  0.00    +0.000 A 
BRANCH  10  17
ATOM     16  C   UNL     1      -6.980  13.210  24.030  0.00  0.00    +0.000 C 
ATOM     17  O   UNL     1      -5.966  12.223  23.871  0.00  0.00    +0.000 OA
ENDBRANCH  10  17
ENDBRANCH   2  13
ENDBRANCH   1   7
BRANCH   1  18
ATOM     18  C   UNL     1       1.123   9.519  19.273  0.00  0.00    +0.000 C 
BRANCH  18  19
ATOM     19  C   UNL     1       2.188   8.820  18.419  0.00  0.00    +0.000 C 
BRANCH  19  20
ATOM     20  C   UNL     1       2.322   7.371  18.848  0.00  0.00    +0.000 C 
ATOM     21  O   UNL     1       2.092   7.017  20.009  0.00  0.00    +0.000 OA
ATOM     22  N   UNL     1       2.697   6.511  17.833  0.00  0.00    +0.000 N 
ATOM     23  H   UNL     1       3.383   6.896  17.181  0.00  0.00    +0.000 HD
BRANCH  22  24
ATOM     24  C   UNL     1       2.777   5.111  18.070  0.00  0.00    +0.000 A 
ATOM     25  C   UNL     1       1.617   4.330  17.944  0.00  0.00    +0.000 A 
ATOM     26  C   UNL     1       1.635   2.969  18.237  0.00  0.00    +0.000 A 
ATOM     27  C   UNL     1       2.812   2.368  18.670  0.00  0.00    +0.000 A 
ATOM     28  C   UNL     1       3.981   3.121  18.779  0.00  0.00    +0.000 A 
ATOM     29  C   UNL     1       3.981   4.487  18.440  0.00  0.00    +0.000 A 
BRANCH  29  30
ATOM     30  C   UNL     1       5.225   5.288  18.582  0.00  0.00    +0.000 C 
ATOM     31  O   UNL     1       5.823   5.410  19.640  0.00  0.00    +0.000 OA
BRANCH  30  32
ATOM     32  O   UNL     1       5.591   5.939  17.458  0.00  0.00    +0.000 OA
ATOM     33  H   UNL     1       6.532   5.860  17.217  0.00  0.00    +0.000 HD
ENDBRANCH  30  32
ENDBRANCH  29  30
ENDBRANCH  22  24
ENDBRANCH  19  20
ENDBRANCH  18  19
ENDBRANCH   1  18
TORSDOF 9
ENDMDL
MODEL 7
REMARK VINA RESULT:      -6.9      8.408     11.541
REMARK  Name = 
REMARK  10 active torsions:
REMARK  status: ('A' for Active; 'I' for Inactive)
REMARK    1  A    between atoms: C_1  and  O_2
REMARK    2  A    between atoms: O_2  and  C_3
REMARK    3  A    between atoms: C_6  and  C_7
REMARK    4  A    between atoms: N_12  and  C_13
REMARK    5  A    between atoms: C_13  and  C_14
REMARK    6  A    between atoms: C_14  and  C_15
REMARK    7  A    between atoms: C_15  and  C_16
REMARK    8  A    between atoms: N_18  and  C_19
REMARK    9  A    between atoms: C_24  and  C_25
REMARK   10  A    between atoms: C_25  and  O_27
REMARK                            x       y       z     vdW  Elec       q    Type
REMARK                         _______ _______ _______ _____ _____    ______ ____
ROOT
ATOM      1  C   UNL     1       1.054  10.111  18.307  0.00  0.00    +0.000 C 
ENDROOT
BRANCH   1   7
ATOM      2  C   UNL     1       3.573   5.932  19.186  0.00  0.00    +0.000 C 
ATOM      3  C   UNL     1       2.679   6.913  19.366  0.00  0.00    +0.000 C 
ATOM      4  S   UNL     1       1.789   7.086  20.835  0.00  0.00    +0.000 S 
ATOM      5  C   UNL     1       1.077   8.614  20.338  0.00  0.00    +0.000 C 
ATOM      6  S   UNL     1       0.109   9.504  21.366  0.00  0.00    +0.000 S 
ATOM      7  N   UNL     1       1.451   8.908  19.043  0.00  0.00    +0.000 N 
ATOM      8  C   UNL     1       2.317   8.015  18.425  0.00  0.00    +0.000 C 
ATOM      9  O   UNL     1       2.739   8.117  17.284  0.00  0.00    +0.000 OA
BRANCH   2  13
ATOM     10  C   UNL     1       5.988   5.433  15.704  0.00  0.00    +0.000 A 
ATOM     11  C   UNL     1       4.844   4.656  15.885  0.00  0.00    +0.000 A 
ATOM     12  C   UNL     1       4.049   4.819  17.023  0.00  0.00    +0.000 A 
ATOM     13  C   UNL     1       4.409   5.751  18.001  0.00  0.00    +0.000 A 
ATOM     14  C   UNL     1       5.571   6.509  17.833  0.00  0.00    +0.000 A 
ATOM     15  C   UNL     1       6.360   6.349  16.689  0.00  0.00    +0.000 A 
BRANCH  10  17
ATOM     16  C   UNL     1       6.300   4.017  13.841  0.00  0.00    +0.000 C 
ATOM     17  O   UNL     1       6.686   5.188  14.553  0.00  0.00    +0.000 OA
ENDBRANCH  10  17
ENDBRANCH   2  13
ENDBRANCH   1   7
BRANCH   1  18
ATOM     18  C   UNL     1      -0.414  10.490  18.491  0.00  0.00    +0.000 C 
BRANCH  18  19
ATOM     19  C   UNL     1      -1.330  10.160  17.306  0.00  0.00    +0.000 C 
BRANCH  19  20
ATOM     20  C   UNL     1      -2.782  10.288  17.727  0.00  0.00    +0.000 C 
ATOM     21  O   UNL     1      -3.479   9.293  17.952  0.00  0.00    +0.000 OA
ATOM     22  N   UNL     1      -3.225  11.592  17.850  0.00  0.00    +0.000 N 
ATOM     23  H   UNL     1      -2.860  12.233  17.143  0.00  0.00    +0.000 HD
BRANCH  22  24
ATOM     24  C   UNL     1      -4.539  11.863  18.321  0.00  0.00    +0.000 A 
ATOM     25  C   UNL     1      -5.636  11.568  17.496  0.00  0.00    +0.000 A 
ATOM     26  C   UNL     1      -6.933  11.884  17.890  0.00  0.00    +0.000 A 
ATOM     27  C   UNL     1      -7.155  12.510  19.112  0.00  0.00    +0.000 A 
ATOM     28  C   UNL     1      -6.081  12.790  19.958  0.00  0.00    +0.000 A 
ATOM     29  C   UNL     1      -4.771  12.432  19.587  0.00  0.00    +0.000 A 
BRANCH  29  30
ATOM     30  C   UNL     1      -3.631  12.756  20.482  0.00  0.00    +0.000 C 
ATOM     31  O   UNL     1      -3.625  12.498  21.675  0.00  0.00    +0.000 OA
BRANCH  30  32
ATOM     32  O   UNL     1      -2.635  13.437  19.878  0.00  0.00    +0.000 OA
ATOM     33  H   UNL     1      -1.834  12.918  19.678  0.00  0.00    +0.000 HD
ENDBRANCH  30  32
ENDBRANCH  29  30
ENDBRANCH  22  24
ENDBRANCH  19  20
ENDBRANCH  18  19
ENDBRANCH   1  18
TORSDOF 9
ENDMDL
MODEL 8
REMARK VINA RESULT:      -6.9      8.560     11.646
REMARK  Name = 
REMARK  10 active torsions:
REMARK  status: ('A' for Active; 'I' for Inactive)
REMARK    1  A    between atoms: C_1  and  O_2
REMARK    2  A    between atoms: O_2  and  C_3
REMARK    3  A    between atoms: C_6  and  C_7
REMARK    4  A    between atoms: N_12  and  C_13
REMARK    5  A    between atoms: C_13  and  C_14
REMARK    6  A    between atoms: C_14  and  C_15
REMARK    7  A    between atoms: C_15  and  C_16
REMARK    8  A    between atoms: N_18  and  C_19
REMARK    9  A    between atoms: C_24  and  C_25
REMARK   10  A    between atoms: C_25  and  O_27
REMARK                            x       y       z     vdW  Elec       q    Type
REMARK                         _______ _______ _______ _____ _____    ______ ____
ROOT
ATOM      1  C   UNL     1       1.134  10.159  18.340  0.00  0.00    +0.000 C 
ENDROOT
BRANCH   1   7
ATOM      2  C   UNL     1       3.027   5.813  19.791  0.00  0.00    +0.000 C 
ATOM      3  C   UNL     1       2.297   6.935  19.837  0.00  0.00    +0.000 C 
ATOM      4  S   UNL     1       1.493   7.450  21.274  0.00  0.00    +0.000 S 
ATOM      5  C   UNL     1       1.001   8.982  20.567  0.00  0.00    +0.000 C 
ATOM      6  S   UNL     1       0.213  10.147  21.466  0.00  0.00    +0.000 S 
ATOM      7  N   UNL     1       1.371   9.027  19.239  0.00  0.00    +0.000 N 
ATOM      8  C   UNL     1       2.072   7.933  18.749  0.00  0.00    +0.000 C 
ATOM      9  O   UNL     1       2.466   7.805  17.600  0.00  0.00    +0.000 OA
BRANCH   2  13
ATOM     10  C   UNL     1       5.222   4.459  16.392  0.00  0.00    +0.000 A 
ATOM     11  C   UNL     1       3.963   3.927  16.675  0.00  0.00    +0.000 A 
ATOM     12  C   UNL     1       3.241   4.371  17.786  0.00  0.00    +0.000 A 
ATOM     13  C   UNL     1       3.786   5.339  18.636  0.00  0.00    +0.000 A 
ATOM     14  C   UNL     1       5.059   5.850  18.368  0.00  0.00    +0.000 A 
ATOM     15  C   UNL     1       5.776   5.409  17.250  0.00  0.00    +0.000 A 
BRANCH  10  17
ATOM     16  C   UNL     1       6.978   4.670  14.827  0.00  0.00    +0.000 C 
ATOM     17  O   UNL     1       5.835   3.951  15.279  0.00  0.00    +0.000 OA
ENDBRANCH  10  17
ENDBRANCH   2  13
ENDBRANCH   1   7
BRANCH   1  18
ATOM     18  C   UNL     1      -0.287  10.217  17.782  0.00  0.00    +0.000 C 
BRANCH  18  19
ATOM     19  C   UNL     1      -1.070  11.492  18.113  0.00  0.00    +0.000 C 
BRANCH  19  20
ATOM     20  C   UNL     1      -2.539  11.161  18.300  0.00  0.00    +0.000 C 
ATOM     21  O   UNL     1      -2.968  10.014  18.136  0.00  0.00    +0.000 OA
ATOM     22  N   UNL     1      -3.320  12.236  18.682  0.00  0.00    +0.000 N 
ATOM     23  H   UNL     1      -3.069  13.122  18.240  0.00  0.00    +0.000 HD
BRANCH  22  24
ATOM     24  C   UNL     1      -4.699  12.054  18.978  0.00  0.00    +0.000 A 
ATOM     25  C   UNL     1      -5.558  11.584  17.971  0.00  0.00    +0.000 A 
ATOM     26  C   UNL     1      -6.925  11.460  18.198  0.00  0.00    +0.000 A 
ATOM     27  C   UNL     1      -7.460  11.813  19.432  0.00  0.00    +0.000 A 
ATOM     28  C   UNL     1      -6.621  12.259  20.454  0.00  0.00    +0.000 A 
ATOM     29  C   UNL     1      -5.231  12.343  20.247  0.00  0.00    +0.000 A 
BRANCH  29  30
ATOM     30  C   UNL     1      -4.347  12.843  21.332  0.00  0.00    +0.000 C 
ATOM     31  O   UNL     1      -3.427  13.621  21.137  0.00  0.00    +0.000 OA
BRANCH  30  32
ATOM     32  O   UNL     1      -4.597  12.296  22.540  0.00  0.00    +0.000 OA
ATOM     33  H   UNL     1      -4.453  12.884  23.303  0.00  0.00    +0.000 HD
ENDBRANCH  30  32
ENDBRANCH  29  30
ENDBRANCH  22  24
ENDBRANCH  19  20
ENDBRANCH  18  19
ENDBRANCH   1  18
TORSDOF 9
ENDMDL
MODEL 9
REMARK VINA RESULT:      -6.9      7.754     11.145
REMARK  Name = 
REMARK  10 active torsions:
REMARK  status: ('A' for Active; 'I' for Inactive)
REMARK    1  A    between atoms: C_1  and  O_2
REMARK    2  A    between atoms: O_2  and  C_3
REMARK    3  A    between atoms: C_6  and  C_7
REMARK    4  A    between atoms: N_12  and  C_13
REMARK    5  A    between atoms: C_13  and  C_14
REMARK    6  A    between atoms: C_14  and  C_15
REMARK    7  A    between atoms: C_15  and  C_16
REMARK    8  A    between atoms: N_18  and  C_19
REMARK    9  A    between atoms: C_24  and  C_25
REMARK   10  A    between atoms: C_25  and  O_27
REMARK                            x       y       z     vdW  Elec       q    Type
REMARK                         _______ _______ _______ _____ _____    ______ ____
ROOT
ATOM      1  C   UNL     1       2.038   9.492  18.510  0.00  0.00    +0.000 C 
ENDROOT
BRANCH   1   7
ATOM      2  C   UNL     1       3.564   4.817  19.141  0.00  0.00    +0.000 C 
ATOM      3  C   UNL     1       2.873   5.945  19.354  0.00  0.00    +0.000 C 
ATOM      4  S   UNL     1       1.902   6.177  20.762  0.00  0.00    +0.000 S 
ATOM      5  C   UNL     1       1.565   7.857  20.373  0.00  0.00    +0.000 C 
ATOM      6  S   UNL     1       0.704   8.840  21.412  0.00  0.00    +0.000 S 
ATOM      7  N   UNL     1       2.111   8.174  19.146  0.00  0.00    +0.000 N 
ATOM      8  C   UNL     1       2.833   7.174  18.507  0.00  0.00    +0.000 C 
ATOM      9  O   UNL     1       3.373   7.282  17.416  0.00  0.00    +0.000 OA
BRANCH   2  13
ATOM     10  C   UNL     1       6.150   4.121  15.821  0.00  0.00    +0.000 A 
ATOM     11  C   UNL     1       4.811   3.734  15.763  0.00  0.00    +0.000 A 
ATOM     12  C   UNL     1       3.961   3.963  16.848  0.00  0.00    +0.000 A 
ATOM     13  C   UNL     1       4.453   4.565  18.011  0.00  0.00    +0.000 A 
ATOM     14  C   UNL     1       5.802   4.927  18.078  0.00  0.00    +0.000 A 
ATOM     15  C   UNL     1       6.648   4.703  16.987  0.00  0.00    +0.000 A 
BRANCH  10  17
ATOM     16  C   UNL     1       7.316   4.984  13.958  0.00  0.00    +0.000 C 
ATOM     17  O   UNL     1       6.886   3.848  14.700  0.00  0.00    +0.000 OA
ENDBRANCH  10  17
ENDBRANCH   2  13
ENDBRANCH   1   7
BRANCH   1  18
ATOM     18  C   UNL     1       0.638  10.104  18.519  0.00  0.00    +0.000 C 
BRANCH  18  19
ATOM     19  C   UNL     1       0.564  11.566  18.975  0.00  0.00    +0.000 C 
BRANCH  19  20
ATOM     20  C   UNL     1      -0.805  12.137  18.654  0.00  0.00    +0.000 C 
ATOM     21  O   UNL     1      -0.934  13.246  18.126  0.00  0.00    +0.000 OA
ATOM     22  N   UNL     1      -1.858  11.305  18.984  0.00  0.00    +0.000 N 
ATOM     23  H   UNL     1      -1.734  10.787  19.856  0.00  0.00    +0.000 HD
BRANCH  22  24
ATOM     24  C   UNL     1      -3.193  11.673  18.660  0.00  0.00    +0.000 A 
ATOM     25  C   UNL     1      -3.976  12.325  19.626  0.00  0.00    +0.000 A 
ATOM     26  C   UNL     1      -5.309  12.637  19.375  0.00  0.00    +0.000 A 
ATOM     27  C   UNL     1      -5.885  12.295  18.157  0.00  0.00    +0.000 A 
ATOM     28  C   UNL     1      -5.118  11.668  17.174  0.00  0.00    +0.000 A 
ATOM     29  C   UNL     1      -3.757  11.390  17.403  0.00  0.00    +0.000 A 
BRANCH  29  30
ATOM     30  C   UNL     1      -2.954  10.701  16.361  0.00  0.00    +0.000 C 
ATOM     31  O   UNL     1      -2.315   9.683  16.576  0.00  0.00    +0.000 OA
BRANCH  30  32
ATOM     32  O   UNL     1      -2.922  11.345  15.175  0.00  0.00    +0.000 OA
ATOM     33  H   UNL     1      -2.145  11.157  14.618  0.00  0.00    +0.000 HD
ENDBRANCH  30  32
ENDBRANCH  29  30
ENDBRANCH  22  24
ENDBRANCH  19  20
ENDBRANCH  18  19
ENDBRANCH   1  18
TORSDOF 9
ENDMDL
