MODEL 1
REMARK VINA RESULT:      -3.9      0.000      0.000
REMARK  Name = 
REMARK  6 active torsions:
REMARK  status: ('A' for Active; 'I' for Inactive)
REMARK    1  A    between atoms: C_1  and  C_2
REMARK    2  A    between atoms: C_2  and  C_3
REMARK    3  A    between atoms: C_3  and  C_4
REMARK    4  A    between atoms: C_4  and  N_5
REMARK    5  A    between atoms: N_5  and  C_6
REMARK    6  A    between atoms: C_6  and  C_7
REMARK                            x       y       z     vdW  Elec       q    Type
REMARK                         _______ _______ _______ _____ _____    ______ ____
ROOT
ATOM      1  C   UNL     1       5.624   2.666  11.699  0.00  0.00    +0.000 C 
ENDROOT
BRANCH   1   2
ATOM      2  N   UNL     1       6.445   3.005  12.861  0.00  0.00    +0.000 NA
ATOM      3  H   UNL     1       7.327   3.414  12.551  0.00  0.00    +0.000 HD
BRANCH   2   4
ATOM      4  C   UNL     1       5.748   3.945  13.738  0.00  0.00    +0.000 C 
ATOM      5  C   UNL     1       6.732   4.576  14.709  0.00  0.00    +0.000 C 
ENDBRANCH   2   4
ENDBRANCH   1   2
BRANCH   1   6
ATOM      6  C   UNL     1       4.341   3.500  11.707  0.00  0.00    +0.000 C 
BRANCH   6   8
ATOM      7  C   UNL     1       3.004   4.221   9.696  0.00  0.00    +0.000 C 
ATOM      8  C   UNL     1       3.393   3.057  10.591  0.00  0.00    +0.000 C 
ENDBRANCH   6   8
ENDBRANCH   1   6
TORSDOF 4
ENDMDL
MODEL 2
REMARK VINA RESULT:      -3.6      3.954      6.418
REMARK  Name = 
REMARK  6 active torsions:
REMARK  status: ('A' for Active; 'I' for Inactive)
REMARK    1  A    between atoms: C_1  and  C_2
REMARK    2  A    between atoms: C_2  and  C_3
REMARK    3  A    between atoms: C_3  and  C_4
REMARK    4  A    between atoms: C_4  and  N_5
REMARK    5  A    between atoms: N_5  and  C_6
REMARK    6  A    between atoms: C_6  and  C_7
REMARK                            x       y       z     vdW  Elec       q    Type
REMARK                         _______ _______ _______ _____ _____    ______ ____
ROOT
ATOM      1  C   UNL     1       7.061   4.577  17.143  0.00  0.00    +0.000 C 
ENDROOT
BRANCH   1   2
ATOM      2  N   UNL     1       7.698   4.674  15.829  0.00  0.00    +0.000 NA
ATOM      3  H   UNL     1       8.441   3.979  15.756  0.00  0.00    +0.000 HD
BRANCH   2   4
ATOM      4  C   UNL     1       6.723   4.468  14.759  0.00  0.00    +0.000 C 
ATOM      5  C   UNL     1       5.342   4.244  15.352  0.00  0.00    +0.000 C 
ENDBRANCH   2   4
ENDBRANCH   1   2
BRANCH   1   6
ATOM      6  C   UNL     1       7.486   5.760  18.015  0.00  0.00    +0.000 C 
BRANCH   6   8
ATOM      7  C   UNL     1       7.944   8.219  17.703  0.00  0.00    +0.000 C 
ATOM      8  C   UNL     1       6.975   7.080  17.434  0.00  0.00    +0.000 C 
ENDBRANCH   6   8
ENDBRANCH   1   6
TORSDOF 4
ENDMDL
MODEL 3
REMARK VINA RESULT:      -3.6      3.772      6.792
REMARK  Name = 
REMARK  6 active torsions:
REMARK  status: ('A' for Active; 'I' for Inactive)
REMARK    1  A    between atoms: C_1  and  C_2
REMARK    2  A    between atoms: C_2  and  C_3
REMARK    3  A    between atoms: C_3  and  C_4
REMARK    4  A    between atoms: C_4  and  N_5
REMARK    5  A    between atoms: N_5  and  C_6
REMARK    6  A    between atoms: C_6  and  C_7
REMARK                            x       y       z     vdW  Elec       q    Type
REMARK                         _______ _______ _______ _____ _____    ______ ____
ROOT
ATOM      1  C   UNL     1       7.569   4.706  17.862  0.00  0.00    +0.000 C 
ENDROOT
BRANCH   1   2
ATOM      2  N   UNL     1       7.633   4.133  16.518  0.00  0.00    +0.000 NA
ATOM      3  H   UNL     1       7.962   3.169  16.571  0.00  0.00    +0.000 HD
BRANCH   2   4
ATOM      4  C   UNL     1       6.323   4.172  15.869  0.00  0.00    +0.000 C 
ATOM      5  C   UNL     1       6.494   4.297  14.364  0.00  0.00    +0.000 C 
ENDBRANCH   2   4
ENDBRANCH   1   2
BRANCH   1   6
ATOM      6  C   UNL     1       7.028   6.136  17.792  0.00  0.00    +0.000 C 
BRANCH   6   8
ATOM      7  C   UNL     1       7.906   8.496  17.686  0.00  0.00    +0.000 C 
ATOM      8  C   UNL     1       8.046   7.134  18.345  0.00  0.00    +0.000 C 
ENDBRANCH   6   8
ENDBRANCH   1   6
TORSDOF 4
ENDMDL
MODEL 4
REMARK VINA RESULT:      -3.6      6.880      8.276
REMARK  Name = 
REMARK  6 active torsions:
REMARK  status: ('A' for Active; 'I' for Inactive)
REMARK    1  A    between atoms: C_1  and  C_2
REMARK    2  A    between atoms: C_2  and  C_3
REMARK    3  A    between atoms: C_3  and  C_4
REMARK    4  A    between atoms: C_4  and  N_5
REMARK    5  A    between atoms: N_5  and  C_6
REMARK    6  A    between atoms: C_6  and  C_7
REMARK                            x       y       z     vdW  Elec       q    Type
REMARK                         _______ _______ _______ _____ _____    ______ ____
ROOT
ATOM      1  C   UNL     1       1.629   1.907  19.095  0.00  0.00    +0.000 C 
ENDROOT
BRANCH   1   2
ATOM      2  N   UNL     1       2.173   2.040  17.743  0.00  0.00    +0.000 NA
ATOM      3  H   UNL     1       1.613   2.706  17.211  0.00  0.00    +0.000 HD
BRANCH   2   4
ATOM      4  C   UNL     1       3.565   2.485  17.782  0.00  0.00    +0.000 C 
ATOM      5  C   UNL     1       3.673   3.897  17.229  0.00  0.00    +0.000 C 
ENDBRANCH   2   4
ENDBRANCH   1   2
BRANCH   1   6
ATOM      6  C   UNL     1       0.748   3.115  19.421  0.00  0.00    +0.000 C 
BRANCH   6   8
ATOM      7  C   UNL     1       1.851   2.880  21.676  0.00  0.00    +0.000 C 
ATOM      8  C   UNL     1       1.261   3.846  20.663  0.00  0.00    +0.000 C 
ENDBRANCH   6   8
ENDBRANCH   1   6
TORSDOF 4
ENDMDL
MODEL 5
REMARK VINA RESULT:      -3.5      2.863      4.446
REMARK  Name = 
REMARK  6 active torsions:
REMARK  status: ('A' for Active; 'I' for Inactive)
REMARK    1  A    between atoms: C_1  and  C_2
REMARK    2  A    between atoms: C_2  and  C_3
REMARK    3  A    between atoms: C_3  and  C_4
REMARK    4  A    between atoms: C_4  and  N_5
REMARK    5  A    between atoms: N_5  and  C_6
REMARK    6  A    between atoms: C_6  and  C_7
REMARK                            x       y       z     vdW  Elec       q    Type
REMARK                         _______ _______ _______ _____ _____    ______ ____
ROOT
ATOM      1  C   UNL     1       6.867   4.934  15.850  0.00  0.00    +0.000 C 
ENDROOT
BRANCH   1   2
ATOM      2  N   UNL     1       7.439   6.225  16.234  0.00  0.00    +0.000 NA
ATOM      3  H   UNL     1       7.261   6.911  15.501  0.00  0.00    +0.000 HD
BRANCH   2   4
ATOM      4  C   UNL     1       6.871   6.693  17.498  0.00  0.00    +0.000 C 
ATOM      5  C   UNL     1       7.758   6.264  18.655  0.00  0.00    +0.000 C 
ENDBRANCH   2   4
ENDBRANCH   1   2
BRANCH   1   6
ATOM      6  C   UNL     1       6.941   4.764  14.331  0.00  0.00    +0.000 C 
BRANCH   6   8
ATOM      7  C   UNL     1       6.034   3.396  12.419  0.00  0.00    +0.000 C 
ATOM      8  C   UNL     1       5.768   3.929  13.816  0.00  0.00    +0.000 C 
ENDBRANCH   6   8
ENDBRANCH   1   6
TORSDOF 4
ENDMDL
MODEL 6
REMARK VINA RESULT:      -3.5      6.520      7.916
REMARK  Name = 
REMARK  6 active torsions:
REMARK  status: ('A' for Active; 'I' for Inactive)
REMARK    1  A    between atoms: C_1  and  C_2
REMARK    2  A    between atoms: C_2  and  C_3
REMARK    3  A    between atoms: C_3  and  C_4
REMARK    4  A    between atoms: C_4  and  N_5
REMARK    5  A    between atoms: N_5  and  C_6
REMARK    6  A    between atoms: C_6  and  C_7
REMARK                            x       y       z     vdW  Elec       q    Type
REMARK                         _______ _______ _______ _____ _____    ______ ____
ROOT
ATOM      1  C   UNL     1       3.469   2.268  19.582  0.00  0.00    +0.000 C 
ENDROOT
BRANCH   1   2
ATOM      2  N   UNL     1       4.849   2.752  19.545  0.00  0.00    +0.000 NA
ATOM      3  H   UNL     1       5.423   2.113  18.996  0.00  0.00    +0.000 HD
BRANCH   2   4
ATOM      4  C   UNL     1       4.917   4.094  18.968  0.00  0.00    +0.000 C 
ATOM      5  C   UNL     1       4.208   4.117  17.624  0.00  0.00    +0.000 C 
ENDBRANCH   2   4
ENDBRANCH   1   2
BRANCH   1   6
ATOM      6  C   UNL     1       2.736   2.878  20.778  0.00  0.00    +0.000 C 
BRANCH   6   8
ATOM      7  C   UNL     1       0.915   2.646  19.051  0.00  0.00    +0.000 C 
ATOM      8  C   UNL     1       1.265   3.134  20.446  0.00  0.00    +0.000 C 
ENDBRANCH   6   8
ENDBRANCH   1   6
TORSDOF 4
ENDMDL
MODEL 7
REMARK VINA RESULT:      -3.5      3.432      6.393
REMARK  Name = 
REMARK  6 active torsions:
REMARK  status: ('A' for Active; 'I' for Inactive)
REMARK    1  A    between atoms: C_1  and  C_2
REMARK    2  A    between atoms: C_2  and  C_3
REMARK    3  A    between atoms: C_3  and  C_4
REMARK    4  A    between atoms: C_4  and  N_5
REMARK    5  A    between atoms: N_5  and  C_6
REMARK    6  A    between atoms: C_6  and  C_7
REMARK                            x       y       z     vdW  Elec       q    Type
REMARK                         _______ _______ _______ _____ _____    ______ ____
ROOT
ATOM      1  C   UNL     1       6.095   5.639  16.270  0.00  0.00    +0.000 C 
ENDROOT
BRANCH   1   2
ATOM      2  N   UNL     1       7.302   5.590  15.445  0.00  0.00    +0.000 NA
ATOM      3  H   UNL     1       8.060   5.157  15.971  0.00  0.00    +0.000 HD
BRANCH   2   4
ATOM      4  C   UNL     1       7.063   4.839  14.213  0.00  0.00    +0.000 C 
ATOM      5  C   UNL     1       5.759   4.067  14.322  0.00  0.00    +0.000 C 
ENDBRANCH   2   4
ENDBRANCH   1   2
BRANCH   1   6
ATOM      6  C   UNL     1       6.150   6.852  17.201  0.00  0.00    +0.000 C 
BRANCH   6   8
ATOM      7  C   UNL     1       8.004   8.461  17.773  0.00  0.00    +0.000 C 
ATOM      8  C   UNL     1       7.545   7.014  17.808  0.00  0.00    +0.000 C 
ENDBRANCH   6   8
ENDBRANCH   1   6
TORSDOF 4
ENDMDL
MODEL 8
REMARK VINA RESULT:      -3.5      4.586      5.698
REMARK  Name = 
REMARK  6 active torsions:
REMARK  status: ('A' for Active; 'I' for Inactive)
REMARK    1  A    between atoms: C_1  and  C_2
REMARK    2  A    between atoms: C_2  and  C_3
REMARK    3  A    between atoms: C_3  and  C_4
REMARK    4  A    between atoms: C_4  and  N_5
REMARK    5  A    between atoms: N_5  and  C_6
REMARK    6  A    between atoms: C_6  and  C_7
REMARK                            x       y       z     vdW  Elec       q    Type
REMARK                         _______ _______ _______ _____ _____    ______ ____
ROOT
ATOM      1  C   UNL     1       4.763   3.865  17.886  0.00  0.00    +0.000 C 
ENDROOT
BRANCH   1   2
ATOM      2  N   UNL     1       6.025   3.969  18.619  0.00  0.00    +0.000 NA
ATOM      3  H   UNL     1       6.798   3.697  18.012  0.00  0.00    +0.000 HD
BRANCH   2   4
ATOM      4  C   UNL     1       6.235   5.332  19.105  0.00  0.00    +0.000 C 
ATOM      5  C   UNL     1       7.661   5.771  18.816  0.00  0.00    +0.000 C 
ENDBRANCH   2   4
ENDBRANCH   1   2
BRANCH   1   6
ATOM      6  C   UNL     1       4.878   4.592  16.545  0.00  0.00    +0.000 C 
BRANCH   6   8
ATOM      7  C   UNL     1       6.971   4.764  15.150  0.00  0.00    +0.000 C 
ATOM      8  C   UNL     1       5.838   3.860  15.606  0.00  0.00    +0.000 C 
ENDBRANCH   6   8
ENDBRANCH   1   6
TORSDOF 4
ENDMDL
MODEL 9
REMARK VINA RESULT:      -3.5      6.287      7.447
REMARK  Name = 
REMARK  6 active torsions:
REMARK  status: ('A' for Active; 'I' for Inactive)
REMARK    1  A    between atoms: C_1  and  C_2
REMARK    2  A    between atoms: C_2  and  C_3
REMARK    3  A    between atoms: C_3  and  C_4
REMARK    4  A    between atoms: C_4  and  N_5
REMARK    5  A    between atoms: N_5  and  C_6
REMARK    6  A    between atoms: C_6  and  C_7
REMARK                            x       y       z     vdW  Elec       q    Type
REMARK                         _______ _______ _______ _____ _____    ______ ____
ROOT
ATOM      1  C   UNL     1       7.315   4.950  18.110  0.00  0.00    +0.000 C 
ENDROOT
BRANCH   1   2
ATOM      2  N   UNL     1       6.176   4.508  18.915  0.00  0.00    +0.000 NA
ATOM      3  H   UNL     1       5.905   5.248  19.562  0.00  0.00    +0.000 HD
BRANCH   2   4
ATOM      4  C   UNL     1       5.040   4.155  18.064  0.00  0.00    +0.000 C 
ATOM      5  C   UNL     1       4.259   5.406  17.698  0.00  0.00    +0.000 C 
ENDBRANCH   2   4
ENDBRANCH   1   2
BRANCH   1   6
ATOM      6  C   UNL     1       7.784   6.327  18.585  0.00  0.00    +0.000 C 
BRANCH   6   8
ATOM      7  C   UNL     1       8.119   8.734  17.916  0.00  0.00    +0.000 C 
ATOM      8  C   UNL     1       7.540   7.389  17.512  0.00  0.00    +0.000 C 
ENDBRANCH   6   8
ENDBRANCH   1   6
TORSDOF 4
ENDMDL
