MODEL 1
REMARK VINA RESULT:      -7.2      0.000      0.000
REMARK  Name = 
REMARK  10 active torsions:
REMARK  status: ('A' for Active; 'I' for Inactive)
REMARK    1  A    between atoms: C_1  and  C_2
REMARK    2  A    between atoms: C_2  and  C_3
REMARK    3  A    between atoms: C_2  and  C_4
REMARK    4  A    between atoms: C_7  and  C_8
REMARK    5  A    between atoms: C_8  and  C_9
REMARK    6  A    between atoms: C_9  and  C_10
REMARK    7  A    between atoms: N_12  and  C_13
REMARK    8  A    between atoms: C_13  and  C_14
REMARK    9  A    between atoms: C_14  and  C_15
REMARK   10  A    between atoms: C_14  and  N_20
REMARK                            x       y       z     vdW  Elec       q    Type
REMARK                         _______ _______ _______ _____ _____    ______ ____
ROOT
ATOM      1  C   UNL     1       6.802   4.672  18.231  0.00  0.00    +0.000 C 
ATOM      2  O   UNL     1       7.177   5.330  19.192  0.00  0.00    +0.000 OA
ATOM      3  N   UNL     1       5.634   3.941  18.237  0.00  0.00    +0.000 N 
ATOM      4  H   UNL     1       5.447   3.242  17.525  0.00  0.00    +0.000 HD
ENDROOT
BRANCH   1   5
ATOM      5  C   UNL     1       7.555   4.649  16.928  0.00  0.00    +0.000 C 
BRANCH   5   6
ATOM      6  C   UNL     1       6.894   5.603  15.943  0.00  0.00    +0.000 C 
BRANCH   6  10
ATOM      7  C   UNL     1       6.721   4.151  12.714  0.00  0.00    +0.000 A 
ATOM      8  N   UNL     1       7.800   4.923  12.526  0.00  0.00    +0.000 NA
ATOM      9  O   UNL     1       7.968   5.531  13.770  0.00  0.00    +0.000 OA
ATOM     10  C   UNL     1       6.967   5.065  14.571  0.00  0.00    +0.000 A 
ATOM     11  N   UNL     1       6.169   4.214  13.967  0.00  0.00    +0.000 NA
BRANCH   7  13
ATOM     12  C   UNL     1       6.827   1.960  11.553  0.00  0.00    +0.000 C 
ATOM     13  C   UNL     1       6.128   3.318  11.629  0.00  0.00    +0.000 C 
ATOM     14  C   UNL     1       4.620   3.149  11.823  0.00  0.00    +0.000 C 
ENDBRANCH   7  13
ENDBRANCH   6  10
ENDBRANCH   5   6
ENDBRANCH   1   5
BRANCH   3  15
ATOM     15  C   UNL     1       4.810   3.945  19.434  0.00  0.00    +0.000 C 
BRANCH  15  16
ATOM     16  C   UNL     1       3.287   4.260  19.280  0.00  0.00    +0.000 C 
BRANCH  16  17
ATOM     17  C   UNL     1       3.114   5.720  18.912  0.00  0.00    +0.000 A 
ATOM     18  C   UNL     1       2.374   6.745  19.476  0.00  0.00    +0.000 A 
ATOM     19  C   UNL     1       2.558   7.882  18.650  0.00  0.00    +0.000 A 
ATOM     20  C   UNL     1       3.416   7.492  17.650  0.00  0.00    +0.000 A 
ATOM     21  O   UNL     1       3.755   6.184  17.794  0.00  0.00    +0.000 OA
ENDBRANCH  16  17
BRANCH  16  22
ATOM     22  N   UNL     1       2.538   3.353  18.358  0.00  0.00    +0.000 NA
ATOM     23  C   UNL     1       1.090   3.656  18.295  0.00  0.00    +0.000 C 
ATOM     24  C   UNL     1       0.461   2.930  19.474  0.00  0.00    +0.000 C 
ATOM     25  C   UNL     1       1.275   1.656  19.572  0.00  0.00    +0.000 C 
ATOM     26  C   UNL     1       2.546   1.931  18.766  0.00  0.00    +0.000 C 
ENDBRANCH  16  22
ENDBRANCH  15  16
ENDBRANCH   3  15
TORSDOF 8
ENDMDL
MODEL 2
REMARK VINA RESULT:      -7.2      1.606      2.095
REMARK  Name = 
REMARK  10 active torsions:
REMARK  status: ('A' for Active; 'I' for Inactive)
REMARK    1  A    between atoms: C_1  and  C_2
REMARK    2  A    between atoms: C_2  and  C_3
REMARK    3  A    between atoms: C_2  and  C_4
REMARK    4  A    between atoms: C_7  and  C_8
REMARK    5  A    between atoms: C_8  and  C_9
REMARK    6  A    between atoms: C_9  and  C_10
REMARK    7  A    between atoms: N_12  and  C_13
REMARK    8  A    between atoms: C_13  and  C_14
REMARK    9  A    between atoms: C_14  and  C_15
REMARK   10  A    between atoms: C_14  and  N_20
REMARK                            x       y       z     vdW  Elec       q    Type
REMARK                         _______ _______ _______ _____ _____    ______ ____
ROOT
ATOM      1  C   UNL     1       7.018   5.625  19.325  0.00  0.00    +0.000 C 
ATOM      2  O   UNL     1       7.308   5.207  20.438  0.00  0.00    +0.000 OA
ATOM      3  N   UNL     1       5.727   5.642  18.846  0.00  0.00    +0.000 N 
ATOM      4  H   UNL     1       5.533   5.788  17.860  0.00  0.00    +0.000 HD
ENDROOT
BRANCH   1   5
ATOM      5  C   UNL     1       8.044   6.218  18.397  0.00  0.00    +0.000 C 
BRANCH   5   6
ATOM      6  C   UNL     1       7.358   7.153  17.412  0.00  0.00    +0.000 C 
BRANCH   6  10
ATOM      7  C   UNL     1       6.594   5.194  14.558  0.00  0.00    +0.000 A 
ATOM      8  N   UNL     1       5.367   5.675  14.803  0.00  0.00    +0.000 NA
ATOM      9  O   UNL     1       5.569   6.491  15.916  0.00  0.00    +0.000 OA
ATOM     10  C   UNL     1       6.895   6.409  16.226  0.00  0.00    +0.000 A 
ATOM     11  N   UNL     1       7.570   5.620  15.421  0.00  0.00    +0.000 NA
BRANCH   7  13
ATOM     12  C   UNL     1       5.583   3.569  12.978  0.00  0.00    +0.000 C 
ATOM     13  C   UNL     1       6.876   4.229  13.457  0.00  0.00    +0.000 C 
ATOM     14  C   UNL     1       7.605   4.911  12.298  0.00  0.00    +0.000 C 
ENDBRANCH   7  13
ENDBRANCH   6  10
ENDBRANCH   5   6
ENDBRANCH   1   5
BRANCH   3  15
ATOM     15  C   UNL     1       4.659   5.139  19.693  0.00  0.00    +0.000 C 
BRANCH  15  16
ATOM     16  C   UNL     1       3.205   5.132  19.120  0.00  0.00    +0.000 C 
BRANCH  16  17
ATOM     17  C   UNL     1       2.744   6.561  18.910  0.00  0.00    +0.000 A 
ATOM     18  C   UNL     1       2.890   7.445  17.855  0.00  0.00    +0.000 A 
ATOM     19  C   UNL     1       2.301   8.667  18.264  0.00  0.00    +0.000 A 
ATOM     20  C   UNL     1       1.810   8.449  19.529  0.00  0.00    +0.000 A 
ATOM     21  O   UNL     1       2.078   7.180  19.933  0.00  0.00    +0.000 OA
ENDBRANCH  16  17
BRANCH  16  22
ATOM     22  N   UNL     1       3.002   4.290  17.902  0.00  0.00    +0.000 NA
ATOM     23  C   UNL     1       1.576   4.010  17.618  0.00  0.00    +0.000 C 
ATOM     24  C   UNL     1       1.209   2.809  18.475  0.00  0.00    +0.000 C 
ATOM     25  C   UNL     1       2.475   1.977  18.468  0.00  0.00    +0.000 C 
ATOM     26  C   UNL     1       3.577   2.931  18.002  0.00  0.00    +0.000 C 
ENDBRANCH  16  22
ENDBRANCH  15  16
ENDBRANCH   3  15
TORSDOF 8
ENDMDL
MODEL 3
REMARK VINA RESULT:      -7.2      0.751      1.146
REMARK  Name = 
REMARK  10 active torsions:
REMARK  status: ('A' for Active; 'I' for Inactive)
REMARK    1  A    between atoms: C_1  and  C_2
REMARK    2  A    between atoms: C_2  and  C_3
REMARK    3  A    between atoms: C_2  and  C_4
REMARK    4  A    between atoms: C_7  and  C_8
REMARK    5  A    between atoms: C_8  and  C_9
REMARK    6  A    between atoms: C_9  and  C_10
REMARK    7  A    between atoms: N_12  and  C_13
REMARK    8  A    between atoms: C_13  and  C_14
REMARK    9  A    between atoms: C_14  and  C_15
REMARK   10  A    between atoms: C_14  and  N_20
REMARK                            x       y       z     vdW  Elec       q    Type
REMARK                         _______ _______ _______ _____ _____    ______ ____
ROOT
ATOM      1  C   UNL     1       6.484   4.929  18.630  0.00  0.00    +0.000 C 
ATOM      2  O   UNL     1       6.899   5.283  19.726  0.00  0.00    +0.000 OA
ATOM      3  N   UNL     1       5.179   4.544  18.414  0.00  0.00    +0.000 N 
ATOM      4  H   UNL     1       4.908   4.056  17.566  0.00  0.00    +0.000 HD
ENDROOT
BRANCH   1   5
ATOM      5  C   UNL     1       7.352   4.939  17.401  0.00  0.00    +0.000 C 
BRANCH   5   6
ATOM      6  C   UNL     1       6.691   5.780  16.318  0.00  0.00    +0.000 C 
BRANCH   6  10
ATOM      7  C   UNL     1       6.425   3.909  13.319  0.00  0.00    +0.000 A 
ATOM      8  N   UNL     1       7.419   4.729  12.954  0.00  0.00    +0.000 NA
ATOM      9  O   UNL     1       7.619   5.506  14.095  0.00  0.00    +0.000 OA
ATOM     10  C   UNL     1       6.717   5.074  15.023  0.00  0.00    +0.000 A 
ATOM     11  N   UNL     1       5.955   4.094  14.594  0.00  0.00    +0.000 NA
BRANCH   7  13
ATOM     12  C   UNL     1       4.599   3.467  11.697  0.00  0.00    +0.000 C 
ATOM     13  C   UNL     1       5.834   2.898  12.396  0.00  0.00    +0.000 C 
ATOM     14  C   UNL     1       6.866   2.412  11.377  0.00  0.00    +0.000 C 
ENDBRANCH   7  13
ENDBRANCH   6  10
ENDBRANCH   5   6
ENDBRANCH   1   5
BRANCH   3  15
ATOM     15  C   UNL     1       4.251   4.554  19.532  0.00  0.00    +0.000 C 
BRANCH  15  16
ATOM     16  C   UNL     1       2.748   4.870  19.240  0.00  0.00    +0.000 C 
BRANCH  16  17
ATOM     17  C   UNL     1       2.597   6.350  18.946  0.00  0.00    +0.000 A 
ATOM     18  C   UNL     1       1.971   7.379  19.626  0.00  0.00    +0.000 A 
ATOM     19  C   UNL     1       2.109   8.539  18.825  0.00  0.00    +0.000 A 
ATOM     20  C   UNL     1       2.830   8.156  17.720  0.00  0.00    +0.000 A 
ATOM     21  O   UNL     1       3.126   6.832  17.778  0.00  0.00    +0.000 OA
ENDBRANCH  16  17
BRANCH  16  22
ATOM     22  N   UNL     1       2.109   4.018  18.192  0.00  0.00    +0.000 NA
ATOM     23  C   UNL     1       1.013   3.174  18.717  0.00  0.00    +0.000 C 
ATOM     24  C   UNL     1       1.680   1.929  19.281  0.00  0.00    +0.000 C 
ATOM     25  C   UNL     1       2.837   1.695  18.333  0.00  0.00    +0.000 C 
ATOM     26  C   UNL     1       3.016   3.019  17.586  0.00  0.00    +0.000 C 
ENDBRANCH  16  22
ENDBRANCH  15  16
ENDBRANCH   3  15
TORSDOF 8
ENDMDL
MODEL 4
REMARK VINA RESULT:      -7.2      4.642      6.320
REMARK  Name = 
REMARK  10 active torsions:
REMARK  status: ('A' for Active; 'I' for Inactive)
REMARK    1  A    between atoms: C_1  and  C_2
REMARK    2  A    between atoms: C_2  and  C_3
REMARK    3  A    between atoms: C_2  and  C_4
REMARK    4  A    between atoms: C_7  and  C_8
REMARK    5  A    between atoms: C_8  and  C_9
REMARK    6  A    between atoms: C_9  and  C_10
REMARK    7  A    between atoms: N_12  and  C_13
REMARK    8  A    between atoms: C_13  and  C_14
REMARK    9  A    between atoms: C_14  and  C_15
REMARK   10  A    between atoms: C_14  and  N_20
REMARK                            x       y       z     vdW  Elec       q    Type
REMARK                         _______ _______ _______ _____ _____    ______ ____
ROOT
ATOM      1  C   UNL     1       7.217   6.509  17.549  0.00  0.00    +0.000 C 
ATOM      2  O   UNL     1       7.490   5.976  16.482  0.00  0.00    +0.000 OA
ATOM      3  N   UNL     1       6.114   6.160  18.297  0.00  0.00    +0.000 N 
ATOM      4  H   UNL     1       5.787   6.748  19.058  0.00  0.00    +0.000 HD
ENDROOT
BRANCH   1   5
ATOM      5  C   UNL     1       8.098   7.556  18.174  0.00  0.00    +0.000 C 
BRANCH   5   6
ATOM      6  C   UNL     1       7.827   8.904  17.521  0.00  0.00    +0.000 C 
BRANCH   6  10
ATOM      7  C   UNL     1       9.704  11.211  19.452  0.00  0.00    +0.000 A 
ATOM      8  N   UNL     1       9.219  12.064  18.539  0.00  0.00    +0.000 NA
ATOM      9  O   UNL     1       8.434  11.242  17.730  0.00  0.00    +0.000 OA
ATOM     10  C   UNL     1       8.536   9.981  18.239  0.00  0.00    +0.000 A 
ATOM     11  N   UNL     1       9.310   9.907  19.298  0.00  0.00    +0.000 NA
BRANCH   7  13
ATOM     12  C   UNL     1      12.000  12.017  19.940  0.00  0.00    +0.000 C 
ATOM     13  C   UNL     1      10.643  11.633  20.530  0.00  0.00    +0.000 C 
ATOM     14  C   UNL     1      10.057  12.782  21.353  0.00  0.00    +0.000 C 
ENDBRANCH   7  13
ENDBRANCH   6  10
ENDBRANCH   5   6
ENDBRANCH   1   5
BRANCH   3  15
ATOM     15  C   UNL     1       5.231   5.118  17.800  0.00  0.00    +0.000 C 
BRANCH  15  16
ATOM     16  C   UNL     1       3.827   4.961  18.469  0.00  0.00    +0.000 C 
BRANCH  16  17
ATOM     17  C   UNL     1       3.178   6.325  18.596  0.00  0.00    +0.000 A 
ATOM     18  C   UNL     1       2.418   6.911  19.593  0.00  0.00    +0.000 A 
ATOM     19  C   UNL     1       2.034   8.187  19.115  0.00  0.00    +0.000 A 
ATOM     20  C   UNL     1       2.601   8.316  17.870  0.00  0.00    +0.000 A 
ATOM     21  O   UNL     1       3.291   7.192  17.541  0.00  0.00    +0.000 OA
ENDBRANCH  16  17
BRANCH  16  22
ATOM     22  N   UNL     1       2.921   3.963  17.824  0.00  0.00    +0.000 NA
ATOM     23  C   UNL     1       1.845   3.487  18.724  0.00  0.00    +0.000 C 
ATOM     24  C   UNL     1       2.455   2.361  19.544  0.00  0.00    +0.000 C 
ATOM     25  C   UNL     1       3.394   1.687  18.564  0.00  0.00    +0.000 C 
ATOM     26  C   UNL     1       3.588   2.701  17.435  0.00  0.00    +0.000 C 
ENDBRANCH  16  22
ENDBRANCH  15  16
ENDBRANCH   3  15
TORSDOF 8
ENDMDL
MODEL 5
REMARK VINA RESULT:      -7.1      1.613      2.013
REMARK  Name = 
REMARK  10 active torsions:
REMARK  status: ('A' for Active; 'I' for Inactive)
REMARK    1  A    between atoms: C_1  and  C_2
REMARK    2  A    between atoms: C_2  and  C_3
REMARK    3  A    between atoms: C_2  and  C_4
REMARK    4  A    between atoms: C_7  and  C_8
REMARK    5  A    between atoms: C_8  and  C_9
REMARK    6  A    between atoms: C_9  and  C_10
REMARK    7  A    between atoms: N_12  and  C_13
REMARK    8  A    between atoms: C_13  and  C_14
REMARK    9  A    between atoms: C_14  and  C_15
REMARK   10  A    between atoms: C_14  and  N_20
REMARK                            x       y       z     vdW  Elec       q    Type
REMARK                         _______ _______ _______ _____ _____    ______ ____
ROOT
ATOM      1  C   UNL     1       4.720   4.111  17.292  0.00  0.00    +0.000 C 
ATOM      2  O   UNL     1       4.207   3.003  17.364  0.00  0.00    +0.000 OA
ATOM      3  N   UNL     1       4.064   5.264  17.665  0.00  0.00    +0.000 N 
ATOM      4  H   UNL     1       4.417   6.178  17.402  0.00  0.00    +0.000 HD
ENDROOT
BRANCH   1   5
ATOM      5  C   UNL     1       6.143   4.310  16.845  0.00  0.00    +0.000 C 
BRANCH   5   6
ATOM      6  C   UNL     1       6.196   5.408  15.792  0.00  0.00    +0.000 C 
BRANCH   6  10
ATOM      7  C   UNL     1       6.216   3.886  12.591  0.00  0.00    +0.000 A 
ATOM      8  N   UNL     1       7.364   4.569  12.493  0.00  0.00    +0.000 NA
ATOM      9  O   UNL     1       7.461   5.196  13.735  0.00  0.00    +0.000 OA
ATOM     10  C   UNL     1       6.356   4.829  14.445  0.00  0.00    +0.000 A 
ATOM     11  N   UNL     1       5.555   4.025  13.784  0.00  0.00    +0.000 NA
BRANCH   7  13
ATOM     12  C   UNL     1       6.127   1.618  11.587  0.00  0.00    +0.000 C 
ATOM     13  C   UNL     1       5.665   3.071  11.471  0.00  0.00    +0.000 C 
ATOM     14  C   UNL     1       4.139   3.159  11.421  0.00  0.00    +0.000 C 
ENDBRANCH   7  13
ENDBRANCH   6  10
ENDBRANCH   5   6
ENDBRANCH   1   5
BRANCH   3  15
ATOM     15  C   UNL     1       2.702   5.165  18.162  0.00  0.00    +0.000 C 
BRANCH  15  16
ATOM     16  C   UNL     1       2.438   5.516  19.662  0.00  0.00    +0.000 C 
BRANCH  16  17
ATOM     17  C   UNL     1       2.017   6.969  19.768  0.00  0.00    +0.000 A 
ATOM     18  C   UNL     1       1.443   7.705  20.790  0.00  0.00    +0.000 A 
ATOM     19  C   UNL     1       1.218   9.006  20.278  0.00  0.00    +0.000 A 
ATOM     20  C   UNL     1       1.690   8.996  18.988  0.00  0.00    +0.000 A 
ATOM     21  O   UNL     1       2.170   7.767  18.665  0.00  0.00    +0.000 OA
ENDBRANCH  16  17
BRANCH  16  22
ATOM     22  N   UNL     1       1.494   4.603  20.375  0.00  0.00    +0.000 NA
ATOM     23  C   UNL     1       2.114   3.910  21.527  0.00  0.00    +0.000 C 
ATOM     24  C   UNL     1       2.815   2.689  20.950  0.00  0.00    +0.000 C 
ATOM     25  C   UNL     1       1.897   2.262  19.824  0.00  0.00    +0.000 C 
ATOM     26  C   UNL     1       1.005   3.475  19.553  0.00  0.00    +0.000 C 
ENDBRANCH  16  22
ENDBRANCH  15  16
ENDBRANCH   3  15
TORSDOF 8
ENDMDL
MODEL 6
REMARK VINA RESULT:      -7.1      4.569      6.157
REMARK  Name = 
REMARK  10 active torsions:
REMARK  status: ('A' for Active; 'I' for Inactive)
REMARK    1  A    between atoms: C_1  and  C_2
REMARK    2  A    between atoms: C_2  and  C_3
REMARK    3  A    between atoms: C_2  and  C_4
REMARK    4  A    between atoms: C_7  and  C_8
REMARK    5  A    between atoms: C_8  and  C_9
REMARK    6  A    between atoms: C_9  and  C_10
REMARK    7  A    between atoms: N_12  and  C_13
REMARK    8  A    between atoms: C_13  and  C_14
REMARK    9  A    between atoms: C_14  and  C_15
REMARK   10  A    between atoms: C_14  and  N_20
REMARK                            x       y       z     vdW  Elec       q    Type
REMARK                         _______ _______ _______ _____ _____    ______ ____
ROOT
ATOM      1  C   UNL     1       7.274   6.491  17.660  0.00  0.00    +0.000 C 
ATOM      2  O   UNL     1       7.377   6.287  16.459  0.00  0.00    +0.000 OA
ATOM      3  N   UNL     1       6.439   5.758  18.475  0.00  0.00    +0.000 N 
ATOM      4  H   UNL     1       6.207   6.073  19.411  0.00  0.00    +0.000 HD
ENDROOT
BRANCH   1   5
ATOM      5  C   UNL     1       8.099   7.528  18.373  0.00  0.00    +0.000 C 
BRANCH   5   6
ATOM      6  C   UNL     1       7.941   8.872  17.675  0.00  0.00    +0.000 C 
BRANCH   6  10
ATOM      7  C   UNL     1       9.953  11.530  18.881  0.00  0.00    +0.000 A 
ATOM      8  N   UNL     1       9.815  10.849  20.027  0.00  0.00    +0.000 NA
ATOM      9  O   UNL     1       9.043   9.751  19.647  0.00  0.00    +0.000 OA
ATOM     10  C   UNL     1       8.793   9.893  18.314  0.00  0.00    +0.000 A 
ATOM     11  N   UNL     1       9.329  10.974  17.795  0.00  0.00    +0.000 NA
BRANCH   7  13
ATOM     12  C   UNL     1      11.860  12.710  17.819  0.00  0.00    +0.000 C 
ATOM     13  C   UNL     1      10.690  12.822  18.796  0.00  0.00    +0.000 C 
ATOM     14  C   UNL     1       9.754  13.967  18.402  0.00  0.00    +0.000 C 
ENDBRANCH   7  13
ENDBRANCH   6  10
ENDBRANCH   5   6
ENDBRANCH   1   5
BRANCH   3  15
ATOM     15  C   UNL     1       5.641   4.696  17.885  0.00  0.00    +0.000 C 
BRANCH  15  16
ATOM     16  C   UNL     1       4.152   4.554  18.340  0.00  0.00    +0.000 C 
BRANCH  16  17
ATOM     17  C   UNL     1       3.525   5.932  18.433  0.00  0.00    +0.000 A 
ATOM     18  C   UNL     1       2.720   6.531  19.385  0.00  0.00    +0.000 A 
ATOM     19  C   UNL     1       2.390   7.816  18.890  0.00  0.00    +0.000 A 
ATOM     20  C   UNL     1       3.033   7.935  17.681  0.00  0.00    +0.000 A 
ATOM     21  O   UNL     1       3.717   6.799  17.390  0.00  0.00    +0.000 OA
ENDBRANCH  16  17
BRANCH  16  22
ATOM     22  N   UNL     1       3.324   3.611  17.530  0.00  0.00    +0.000 NA
ATOM     23  C   UNL     1       1.871   3.878  17.631  0.00  0.00    +0.000 C 
ATOM     24  C   UNL     1       1.403   3.164  18.889  0.00  0.00    +0.000 C 
ATOM     25  C   UNL     1       2.254   1.912  18.916  0.00  0.00    +0.000 C 
ATOM     26  C   UNL     1       3.416   2.199  17.961  0.00  0.00    +0.000 C 
ENDBRANCH  16  22
ENDBRANCH  15  16
ENDBRANCH   3  15
TORSDOF 8
ENDMDL
MODEL 7
REMARK VINA RESULT:      -7.1      4.348      7.728
REMARK  Name = 
REMARK  10 active torsions:
REMARK  status: ('A' for Active; 'I' for Inactive)
REMARK    1  A    between atoms: C_1  and  C_2
REMARK    2  A    between atoms: C_2  and  C_3
REMARK    3  A    between atoms: C_2  and  C_4
REMARK    4  A    between atoms: C_7  and  C_8
REMARK    5  A    between atoms: C_8  and  C_9
REMARK    6  A    between atoms: C_9  and  C_10
REMARK    7  A    between atoms: N_12  and  C_13
REMARK    8  A    between atoms: C_13  and  C_14
REMARK    9  A    between atoms: C_14  and  C_15
REMARK   10  A    between atoms: C_14  and  N_20
REMARK                            x       y       z     vdW  Elec       q    Type
REMARK                         _______ _______ _______ _____ _____    ______ ____
ROOT
ATOM      1  C   UNL     1       2.089   8.089  18.921  0.00  0.00    +0.000 C 
ATOM      2  O   UNL     1       1.765   7.998  20.098  0.00  0.00    +0.000 OA
ATOM      3  N   UNL     1       2.750   7.084  18.249  0.00  0.00    +0.000 N 
ATOM      4  H   UNL     1       3.195   7.256  17.352  0.00  0.00    +0.000 HD
ENDROOT
BRANCH   1   5
ATOM      5  C   UNL     1       1.740   9.288  18.082  0.00  0.00    +0.000 C 
BRANCH   5   6
ATOM      6  C   UNL     1       0.999  10.308  18.935  0.00  0.00    +0.000 C 
BRANCH   6  10
ATOM      7  C   UNL     1      -2.164  10.699  17.382  0.00  0.00    +0.000 A 
ATOM      8  N   UNL     1      -2.134  11.851  18.066  0.00  0.00    +0.000 NA
ATOM      9  O   UNL     1      -0.895  11.803  18.705  0.00  0.00    +0.000 OA
ATOM     10  C   UNL     1      -0.315  10.623  18.343  0.00  0.00    +0.000 A 
ATOM     11  N   UNL     1      -1.057   9.905  17.531  0.00  0.00    +0.000 NA
BRANCH   7  13
ATOM     12  C   UNL     1      -4.480  11.281  16.708  0.00  0.00    +0.000 C 
ATOM     13  C   UNL     1      -3.333  10.283  16.556  0.00  0.00    +0.000 C 
ATOM     14  C   UNL     1      -2.939  10.119  15.086  0.00  0.00    +0.000 C 
ENDBRANCH   7  13
ENDBRANCH   6  10
ENDBRANCH   5   6
ENDBRANCH   1   5
BRANCH   3  15
ATOM     15  C   UNL     1       3.082   5.864  18.963  0.00  0.00    +0.000 C 
BRANCH  15  16
ATOM     16  C   UNL     1       3.251   4.548  18.136  0.00  0.00    +0.000 C 
BRANCH  16  17
ATOM     17  C   UNL     1       4.502   4.650  17.285  0.00  0.00    +0.000 A 
ATOM     18  C   UNL     1       4.945   3.937  16.185  0.00  0.00    +0.000 A 
ATOM     19  C   UNL     1       6.225   4.448  15.858  0.00  0.00    +0.000 A 
ATOM     20  C   UNL     1       6.475   5.456  16.758  0.00  0.00    +0.000 A 
ATOM     21  O   UNL     1       5.442   5.584  17.631  0.00  0.00    +0.000 OA
ENDBRANCH  16  17
BRANCH  16  22
ATOM     22  N   UNL     1       3.212   3.284  18.932  0.00  0.00    +0.000 NA
ATOM     23  C   UNL     1       2.369   2.234  18.316  0.00  0.00    +0.000 C 
ATOM     24  C   UNL     1       0.946   2.527  18.765  0.00  0.00    +0.000 C 
ATOM     25  C   UNL     1       1.126   3.050  20.175  0.00  0.00    +0.000 C 
ATOM     26  C   UNL     1       2.605   3.430  20.273  0.00  0.00    +0.000 C 
ENDBRANCH  16  22
ENDBRANCH  15  16
ENDBRANCH   3  15
TORSDOF 8
ENDMDL
MODEL 8
REMARK VINA RESULT:      -7.0      3.700      8.002
REMARK  Name = 
REMARK  10 active torsions:
REMARK  status: ('A' for Active; 'I' for Inactive)
REMARK    1  A    between atoms: C_1  and  C_2
REMARK    2  A    between atoms: C_2  and  C_3
REMARK    3  A    between atoms: C_2  and  C_4
REMARK    4  A    between atoms: C_7  and  C_8
REMARK    5  A    between atoms: C_8  and  C_9
REMARK    6  A    between atoms: C_9  and  C_10
REMARK    7  A    between atoms: N_12  and  C_13
REMARK    8  A    between atoms: C_13  and  C_14
REMARK    9  A    between atoms: C_14  and  C_15
REMARK   10  A    between atoms: C_14  and  N_20
REMARK                            x       y       z     vdW  Elec       q    Type
REMARK                         _______ _______ _______ _____ _____    ______ ____
ROOT
ATOM      1  C   UNL     1       2.744   7.444  18.112  0.00  0.00    +0.000 C 
ATOM      2  O   UNL     1       3.807   7.631  17.537  0.00  0.00    +0.000 OA
ATOM      3  N   UNL     1       2.577   6.475  19.077  0.00  0.00    +0.000 N 
ATOM      4  H   UNL     1       1.651   6.193  19.384  0.00  0.00    +0.000 HD
ENDROOT
BRANCH   1   5
ATOM      5  C   UNL     1       1.532   8.300  17.859  0.00  0.00    +0.000 C 
BRANCH   5   6
ATOM      6  C   UNL     1       1.886   9.763  18.085  0.00  0.00    +0.000 C 
BRANCH   6  10
ATOM      7  C   UNL     1       0.148  10.840  20.981  0.00  0.00    +0.000 A 
ATOM      8  N   UNL     1      -0.185  11.848  20.164  0.00  0.00    +0.000 NA
ATOM      9  O   UNL     1       0.443  11.500  18.968  0.00  0.00    +0.000 OA
ATOM     10  C   UNL     1       1.093  10.323  19.197  0.00  0.00    +0.000 A 
ATOM     11  N   UNL     1       0.945   9.875  20.423  0.00  0.00    +0.000 NA
BRANCH   7  13
ATOM     12  C   UNL     1      -1.531  11.633  22.629  0.00  0.00    +0.000 C 
ATOM     13  C   UNL     1      -0.275  10.789  22.410  0.00  0.00    +0.000 C 
ATOM     14  C   UNL     1      -0.496   9.346  22.869  0.00  0.00    +0.000 C 
ENDBRANCH   7  13
ENDBRANCH   6  10
ENDBRANCH   5   6
ENDBRANCH   1   5
BRANCH   3  15
ATOM     15  C   UNL     1       3.708   5.633  19.428  0.00  0.00    +0.000 C 
BRANCH  15  16
ATOM     16  C   UNL     1       3.953   4.339  18.586  0.00  0.00    +0.000 C 
BRANCH  16  17
ATOM     17  C   UNL     1       5.284   4.454  17.870  0.00  0.00    +0.000 A 
ATOM     18  C   UNL     1       5.629   4.445  16.530  0.00  0.00    +0.000 A 
ATOM     19  C   UNL     1       7.042   4.522  16.473  0.00  0.00    +0.000 A 
ATOM     20  C   UNL     1       7.473   4.599  17.776  0.00  0.00    +0.000 A 
ATOM     21  O   UNL     1       6.419   4.551  18.631  0.00  0.00    +0.000 OA
ENDBRANCH  16  17
BRANCH  16  22
ATOM     22  N   UNL     1       3.826   3.055  19.340  0.00  0.00    +0.000 NA
ATOM     23  C   UNL     1       3.209   1.971  18.542  0.00  0.00    +0.000 C 
ATOM     24  C   UNL     1       1.706   2.162  18.671  0.00  0.00    +0.000 C 
ATOM     25  C   UNL     1       1.541   2.658  20.093  0.00  0.00    +0.000 C 
ATOM     26  C   UNL     1       2.934   3.128  20.517  0.00  0.00    +0.000 C 
ENDBRANCH  16  22
ENDBRANCH  15  16
ENDBRANCH   3  15
TORSDOF 8
ENDMDL
MODEL 9
REMARK VINA RESULT:      -7.0      1.269      1.819
REMARK  Name = 
REMARK  10 active torsions:
REMARK  status: ('A' for Active; 'I' for Inactive)
REMARK    1  A    between atoms: C_1  and  C_2
REMARK    2  A    between atoms: C_2  and  C_3
REMARK    3  A    between atoms: C_2  and  C_4
REMARK    4  A    between atoms: C_7  and  C_8
REMARK    5  A    between atoms: C_8  and  C_9
REMARK    6  A    between atoms: C_9  and  C_10
REMARK    7  A    between atoms: N_12  and  C_13
REMARK    8  A    between atoms: C_13  and  C_14
REMARK    9  A    between atoms: C_14  and  C_15
REMARK   10  A    between atoms: C_14  and  N_20
REMARK                            x       y       z     vdW  Elec       q    Type
REMARK                         _______ _______ _______ _____ _____    ______ ____
ROOT
ATOM      1  C   UNL     1       5.880   4.400  18.040  0.00  0.00    +0.000 C 
ATOM      2  O   UNL     1       5.974   3.981  19.186  0.00  0.00    +0.000 OA
ATOM      3  N   UNL     1       4.671   4.683  17.445  0.00  0.00    +0.000 N 
ATOM      4  H   UNL     1       4.597   4.822  16.442  0.00  0.00    +0.000 HD
ENDROOT
BRANCH   1   5
ATOM      5  C   UNL     1       7.087   4.704  17.194  0.00  0.00    +0.000 C 
BRANCH   5   6
ATOM      6  C   UNL     1       6.693   5.647  16.066  0.00  0.00    +0.000 C 
BRANCH   6  10
ATOM      7  C   UNL     1       6.334   3.749  13.093  0.00  0.00    +0.000 A 
ATOM      8  N   UNL     1       7.285   4.595  12.675  0.00  0.00    +0.000 NA
ATOM      9  O   UNL     1       7.517   5.385  13.801  0.00  0.00    +0.000 OA
ATOM     10  C   UNL     1       6.675   4.933  14.774  0.00  0.00    +0.000 A 
ATOM     11  N   UNL     1       5.923   3.928  14.388  0.00  0.00    +0.000 NA
BRANCH   7  13
ATOM     12  C   UNL     1       4.524   3.289  11.458  0.00  0.00    +0.000 C 
ATOM     13  C   UNL     1       5.728   2.715  12.206  0.00  0.00    +0.000 C 
ATOM     14  C   UNL     1       6.762   2.151  11.229  0.00  0.00    +0.000 C 
ENDBRANCH   7  13
ENDBRANCH   6  10
ENDBRANCH   5   6
ENDBRANCH   1   5
BRANCH   3  15
ATOM     15  C   UNL     1       3.450   4.473  18.205  0.00  0.00    +0.000 C 
BRANCH  15  16
ATOM     16  C   UNL     1       3.237   5.313  19.506  0.00  0.00    +0.000 C 
BRANCH  16  17
ATOM     17  C   UNL     1       2.619   6.649  19.142  0.00  0.00    +0.000 A 
ATOM     18  C   UNL     1       2.436   7.296  17.933  0.00  0.00    +0.000 A 
ATOM     19  C   UNL     1       1.858   8.555  18.229  0.00  0.00    +0.000 A 
ATOM     20  C   UNL     1       1.699   8.591  19.593  0.00  0.00    +0.000 A 
ATOM     21  O   UNL     1       2.162   7.445  20.158  0.00  0.00    +0.000 OA
ENDBRANCH  16  17
BRANCH  16  22
ATOM     22  N   UNL     1       2.484   4.622  20.596  0.00  0.00    +0.000 NA
ATOM     23  C   UNL     1       2.949   3.237  20.836  0.00  0.00    +0.000 C 
ATOM     24  C   UNL     1       2.219   2.370  19.822  0.00  0.00    +0.000 C 
ATOM     25  C   UNL     1       0.859   3.029  19.716  0.00  0.00    +0.000 C 
ATOM     26  C   UNL     1       1.046   4.427  20.310  0.00  0.00    +0.000 C 
ENDBRANCH  16  22
ENDBRANCH  15  16
ENDBRANCH   3  15
TORSDOF 8
ENDMDL
