MODEL 1
REMARK VINA RESULT:      -7.8      0.000      0.000
REMARK  Name = 
REMARK  12 active torsions:
REMARK  status: ('A' for Active; 'I' for Inactive)
REMARK    1  A    between atoms: C_1  and  C_2
REMARK    2  A    between atoms: C_2  and  O_3
REMARK    3  A    between atoms: O_3  and  C_4
REMARK    4  A    between atoms: C_4  and  C_6
REMARK    5  A    between atoms: C_6  and  C_14
REMARK    6  A    between atoms: C_7  and  C_8
REMARK    7  A    between atoms: C_14  and  C_15
REMARK    8  A    between atoms: C_15  and  C_17
REMARK    9  A    between atoms: C_17  and  C_18
REMARK   10  A    between atoms: C_17  and  N_25
REMARK   11  A    between atoms: C_18  and  C_19
REMARK   12  A    between atoms: C_26  and  C_28
REMARK                            x       y       z     vdW  Elec       q    Type
REMARK                         _______ _______ _______ _____ _____    ______ ____
ROOT
ATOM      1  C   UNL     1       0.900   9.822  19.944  0.00  0.00    +0.000 C 
ENDROOT
BRANCH   1   2
ATOM      2  N   UNL     1      -0.396   9.939  19.278  0.00  0.00    +0.000 N 
ATOM      3  C   UNL     1      -0.685  11.023  18.480  0.00  0.00    +0.000 C 
ATOM      4  O   UNL     1       0.112  11.925  18.263  0.00  0.00    +0.000 OA
ATOM      5  H   UNL     1      -1.168   9.395  19.640  0.00  0.00    +0.000 HD
BRANCH   3   6
ATOM      6  C   UNL     1      -2.047  11.059  17.889  0.00  0.00    +0.000 A 
ATOM      7  C   UNL     1      -3.073  11.664  18.623  0.00  0.00    +0.000 A 
ATOM      8  C   UNL     1      -4.362  11.730  18.095  0.00  0.00    +0.000 A 
ATOM      9  C   UNL     1      -4.627  11.205  16.830  0.00  0.00    +0.000 A 
ATOM     10  C   UNL     1      -3.604  10.617  16.088  0.00  0.00    +0.000 A 
ATOM     11  C   UNL     1      -2.312  10.544  16.614  0.00  0.00    +0.000 A 
ENDBRANCH   3   6
ENDBRANCH   1   2
BRANCH   1  12
ATOM     12  C   UNL     1       1.622   8.474  19.675  0.00  0.00    +0.000 C 
ATOM     13  O   UNL     1       2.024   7.784  20.620  0.00  0.00    +0.000 OA
BRANCH  12  14
ATOM     14  C   UNL     1       1.818   7.974  18.242  0.00  0.00    +0.000 C 
BRANCH  14  15
ATOM     15  C   UNL     1       2.884   6.925  17.990  0.00  0.00    +0.000 C 
ATOM     16  C   UNL     1       4.134   7.202  17.564  0.00  0.00    +0.000 C 
BRANCH  16  17
ATOM     17  C   UNL     1       5.183   6.255  17.159  0.00  0.00    +0.000 A 
ATOM     18  C   UNL     1       5.224   5.792  15.838  0.00  0.00    +0.000 A 
ATOM     19  C   UNL     1       6.250   4.943  15.414  0.00  0.00    +0.000 A 
ATOM     20  C   UNL     1       7.243   4.550  16.310  0.00  0.00    +0.000 A 
ATOM     21  C   UNL     1       7.201   4.997  17.632  0.00  0.00    +0.000 A 
ATOM     22  C   UNL     1       6.176   5.845  18.056  0.00  0.00    +0.000 A 
ENDBRANCH  16  17
BRANCH  15  23
ATOM     23  C   UNL     1       2.447   5.503  18.196  0.00  0.00    +0.000 C 
ATOM     24  O   UNL     1       1.672   4.872  17.491  0.00  0.00    +0.000 OA
BRANCH  23  25
ATOM     25  O   UNL     1       3.010   5.031  19.341  0.00  0.00    +0.000 OA
BRANCH  25  27
ATOM     26  C   UNL     1       1.295   4.191  20.756  0.00  0.00    +0.000 C 
ATOM     27  C   UNL     1       2.450   3.813  19.847  0.00  0.00    +0.000 C 
ENDBRANCH  25  27
ENDBRANCH  23  25
ENDBRANCH  15  23
ENDBRANCH  14  15
ENDBRANCH  12  14
ENDBRANCH   1  12
BRANCH   1  28
ATOM     28  C   UNL     1       0.746  10.002  21.467  0.00  0.00    +0.000 C 
BRANCH  28  29
ATOM     29  C   UNL     1      -0.163  11.127  21.927  0.00  0.00    +0.000 A 
ATOM     30  C   UNL     1      -1.267  10.861  22.752  0.00  0.00    +0.000 A 
ATOM     31  C   UNL     1      -1.988  11.907  23.340  0.00  0.00    +0.000 A 
ATOM     32  C   UNL     1      -1.624  13.228  23.099  0.00  0.00    +0.000 A 
ATOM     33  C   UNL     1      -0.563  13.508  22.241  0.00  0.00    +0.000 A 
ATOM     34  C   UNL     1       0.162  12.465  21.657  0.00  0.00    +0.000 A 
ENDBRANCH  28  29
ENDBRANCH   1  28
TORSDOF 11
ENDMDL
MODEL 2
REMARK VINA RESULT:      -7.7      1.598      8.928
REMARK  Name = 
REMARK  12 active torsions:
REMARK  status: ('A' for Active; 'I' for Inactive)
REMARK    1  A    between atoms: C_1  and  C_2
REMARK    2  A    between atoms: C_2  and  O_3
REMARK    3  A    between atoms: O_3  and  C_4
REMARK    4  A    between atoms: C_4  and  C_6
REMARK    5  A    between atoms: C_6  and  C_14
REMARK    6  A    between atoms: C_7  and  C_8
REMARK    7  A    between atoms: C_14  and  C_15
REMARK    8  A    between atoms: C_15  and  C_17
REMARK    9  A    between atoms: C_17  and  C_18
REMARK   10  A    between atoms: C_17  and  N_25
REMARK   11  A    between atoms: C_18  and  C_19
REMARK   12  A    between atoms: C_26  and  C_28
REMARK                            x       y       z     vdW  Elec       q    Type
REMARK                         _______ _______ _______ _____ _____    ______ ____
ROOT
ATOM      1  C   UNL     1       3.201   7.786  18.098  0.00  0.00    +0.000 C 
ENDROOT
BRANCH   1   2
ATOM      2  N   UNL     1       2.479   6.558  18.432  0.00  0.00    +0.000 N 
ATOM      3  C   UNL     1       3.056   5.594  19.227  0.00  0.00    +0.000 C 
ATOM      4  O   UNL     1       4.172   5.707  19.713  0.00  0.00    +0.000 OA
ATOM      5  H   UNL     1       1.701   6.289  17.844  0.00  0.00    +0.000 HD
BRANCH   3   6
ATOM      6  C   UNL     1       2.249   4.371  19.465  0.00  0.00    +0.000 A 
ATOM      7  C   UNL     1       1.973   4.005  20.787  0.00  0.00    +0.000 A 
ATOM      8  C   UNL     1       1.206   2.871  21.052  0.00  0.00    +0.000 A 
ATOM      9  C   UNL     1       0.702   2.107  19.999  0.00  0.00    +0.000 A 
ATOM     10  C   UNL     1       0.959   2.477  18.679  0.00  0.00    +0.000 A 
ATOM     11  C   UNL     1       1.731   3.610  18.410  0.00  0.00    +0.000 A 
ENDBRANCH   3   6
ENDBRANCH   1   2
BRANCH   1  12
ATOM     12  C   UNL     1       2.301   9.049  18.059  0.00  0.00    +0.000 C 
ATOM     13  O   UNL     1       2.437   9.883  17.155  0.00  0.00    +0.000 OA
BRANCH  12  14
ATOM     14  C   UNL     1       1.220   9.262  19.121  0.00  0.00    +0.000 C 
BRANCH  14  15
ATOM     15  C   UNL     1      -0.028  10.031  18.728  0.00  0.00    +0.000 C 
ATOM     16  C   UNL     1      -1.072   9.491  18.064  0.00  0.00    +0.000 C 
BRANCH  16  17
ATOM     17  C   UNL     1      -2.251  10.180  17.520  0.00  0.00    +0.000 A 
ATOM     18  C   UNL     1      -3.185  10.748  18.396  0.00  0.00    +0.000 A 
ATOM     19  C   UNL     1      -4.279  11.464  17.901  0.00  0.00    +0.000 A 
ATOM     20  C   UNL     1      -4.446  11.617  16.526  0.00  0.00    +0.000 A 
ATOM     21  C   UNL     1      -3.525  11.043  15.646  0.00  0.00    +0.000 A 
ATOM     22  C   UNL     1      -2.433  10.328  16.140  0.00  0.00    +0.000 A 
ENDBRANCH  16  17
BRANCH  15  23
ATOM     23  C   UNL     1      -0.022  11.489  19.082  0.00  0.00    +0.000 C 
ATOM     24  O   UNL     1      -0.129  12.426  18.302  0.00  0.00    +0.000 OA
BRANCH  23  25
ATOM     25  O   UNL     1       0.182  11.617  20.420  0.00  0.00    +0.000 OA
BRANCH  25  27
ATOM     26  C   UNL     1      -0.605  10.577  22.407  0.00  0.00    +0.000 C 
ATOM     27  C   UNL     1      -0.984  11.468  21.239  0.00  0.00    +0.000 C 
ENDBRANCH  25  27
ENDBRANCH  23  25
ENDBRANCH  15  23
ENDBRANCH  14  15
ENDBRANCH  12  14
ENDBRANCH   1  12
BRANCH   1  28
ATOM     28  C   UNL     1       3.911   7.644  16.737  0.00  0.00    +0.000 C 
BRANCH  28  29
ATOM     29  C   UNL     1       5.110   6.716  16.692  0.00  0.00    +0.000 A 
ATOM     30  C   UNL     1       6.310   7.068  17.329  0.00  0.00    +0.000 A 
ATOM     31  C   UNL     1       7.347   6.138  17.463  0.00  0.00    +0.000 A 
ATOM     32  C   UNL     1       7.203   4.852  16.950  0.00  0.00    +0.000 A 
ATOM     33  C   UNL     1       6.038   4.505  16.270  0.00  0.00    +0.000 A 
ATOM     34  C   UNL     1       4.998   5.431  16.139  0.00  0.00    +0.000 A 
ENDBRANCH  28  29
ENDBRANCH   1  28
TORSDOF 11
ENDMDL
MODEL 3
REMARK VINA RESULT:      -7.6      0.430      1.263
REMARK  Name = 
REMARK  12 active torsions:
REMARK  status: ('A' for Active; 'I' for Inactive)
REMARK    1  A    between atoms: C_1  and  C_2
REMARK    2  A    between atoms: C_2  and  O_3
REMARK    3  A    between atoms: O_3  and  C_4
REMARK    4  A    between atoms: C_4  and  C_6
REMARK    5  A    between atoms: C_6  and  C_14
REMARK    6  A    between atoms: C_7  and  C_8
REMARK    7  A    between atoms: C_14  and  C_15
REMARK    8  A    between atoms: C_15  and  C_17
REMARK    9  A    between atoms: C_17  and  C_18
REMARK   10  A    between atoms: C_17  and  N_25
REMARK   11  A    between atoms: C_18  and  C_19
REMARK   12  A    between atoms: C_26  and  C_28
REMARK                            x       y       z     vdW  Elec       q    Type
REMARK                         _______ _______ _______ _____ _____    ______ ____
ROOT
ATOM      1  C   UNL     1       0.769   9.734  20.149  0.00  0.00    +0.000 C 
ENDROOT
BRANCH   1   2
ATOM      2  N   UNL     1      -0.467   9.841  19.373  0.00  0.00    +0.000 N 
ATOM      3  C   UNL     1      -0.700  10.929  18.563  0.00  0.00    +0.000 C 
ATOM      4  O   UNL     1       0.100  11.843  18.423  0.00  0.00    +0.000 OA
ATOM      5  H   UNL     1      -1.260   9.284  19.663  0.00  0.00    +0.000 HD
BRANCH   3   6
ATOM      6  C   UNL     1      -2.006  10.952  17.856  0.00  0.00    +0.000 A 
ATOM      7  C   UNL     1      -3.065  11.654  18.442  0.00  0.00    +0.000 A 
ATOM      8  C   UNL     1      -4.303  11.711  17.802  0.00  0.00    +0.000 A 
ATOM      9  C   UNL     1      -4.482  11.081  16.570  0.00  0.00    +0.000 A 
ATOM     10  C   UNL     1      -3.425  10.396  15.974  0.00  0.00    +0.000 A 
ATOM     11  C   UNL     1      -2.184  10.332  16.613  0.00  0.00    +0.000 A 
ENDBRANCH   3   6
ENDBRANCH   1   2
BRANCH   1  12
ATOM     12  C   UNL     1       1.605   8.468  19.822  0.00  0.00    +0.000 C 
ATOM     13  O   UNL     1       2.069   7.775  20.736  0.00  0.00    +0.000 OA
BRANCH  12  14
ATOM     14  C   UNL     1       1.839   8.051  18.368  0.00  0.00    +0.000 C 
BRANCH  14  15
ATOM     15  C   UNL     1       2.908   7.011  18.086  0.00  0.00    +0.000 C 
ATOM     16  C   UNL     1       4.124   7.295  17.573  0.00  0.00    +0.000 C 
BRANCH  16  17
ATOM     17  C   UNL     1       5.164   6.352  17.136  0.00  0.00    +0.000 A 
ATOM     18  C   UNL     1       6.209   6.023  18.010  0.00  0.00    +0.000 A 
ATOM     19  C   UNL     1       7.172   5.080  17.641  0.00  0.00    +0.000 A 
ATOM     20  C   UNL     1       7.097   4.459  16.395  0.00  0.00    +0.000 A 
ATOM     21  C   UNL     1       6.066   4.792  15.514  0.00  0.00    +0.000 A 
ATOM     22  C   UNL     1       5.104   5.735  15.882  0.00  0.00    +0.000 A 
ENDBRANCH  16  17
BRANCH  15  23
ATOM     23  C   UNL     1       2.513   5.591  18.367  0.00  0.00    +0.000 C 
ATOM     24  O   UNL     1       1.734   4.911  17.712  0.00  0.00    +0.000 OA
BRANCH  23  25
ATOM     25  O   UNL     1       3.118   5.184  19.514  0.00  0.00    +0.000 OA
BRANCH  25  27
ATOM     26  C   UNL     1       2.745   3.077  20.550  0.00  0.00    +0.000 C 
ATOM     27  C   UNL     1       3.574   3.825  19.523  0.00  0.00    +0.000 C 
ENDBRANCH  25  27
ENDBRANCH  23  25
ENDBRANCH  15  23
ENDBRANCH  14  15
ENDBRANCH  12  14
ENDBRANCH   1  12
BRANCH   1  28
ATOM     28  C   UNL     1       0.464   9.746  21.660  0.00  0.00    +0.000 C 
BRANCH  28  29
ATOM     29  C   UNL     1      -0.268  10.963  22.193  0.00  0.00    +0.000 A 
ATOM     30  C   UNL     1       0.092  12.253  21.774  0.00  0.00    +0.000 A 
ATOM     31  C   UNL     1      -0.701  13.359  22.103  0.00  0.00    +0.000 A 
ATOM     32  C   UNL     1      -1.853  13.190  22.865  0.00  0.00    +0.000 A 
ATOM     33  C   UNL     1      -2.195  11.923  23.331  0.00  0.00    +0.000 A 
ATOM     34  C   UNL     1      -1.407  10.816  23.000  0.00  0.00    +0.000 A 
ENDBRANCH  28  29
ENDBRANCH   1  28
TORSDOF 11
ENDMDL
MODEL 4
REMARK VINA RESULT:      -7.6      2.716      8.821
REMARK  Name = 
REMARK  12 active torsions:
REMARK  status: ('A' for Active; 'I' for Inactive)
REMARK    1  A    between atoms: C_1  and  C_2
REMARK    2  A    between atoms: C_2  and  O_3
REMARK    3  A    between atoms: O_3  and  C_4
REMARK    4  A    between atoms: C_4  and  C_6
REMARK    5  A    between atoms: C_6  and  C_14
REMARK    6  A    between atoms: C_7  and  C_8
REMARK    7  A    between atoms: C_14  and  C_15
REMARK    8  A    between atoms: C_15  and  C_17
REMARK    9  A    between atoms: C_17  and  C_18
REMARK   10  A    between atoms: C_17  and  N_25
REMARK   11  A    between atoms: C_18  and  C_19
REMARK   12  A    between atoms: C_26  and  C_28
REMARK                            x       y       z     vdW  Elec       q    Type
REMARK                         _______ _______ _______ _____ _____    ______ ____
ROOT
ATOM      1  C   UNL     1       3.835   4.613  17.319  0.00  0.00    +0.000 C 
ENDROOT
BRANCH   1   2
ATOM      2  N   UNL     1       4.436   4.531  15.988  0.00  0.00    +0.000 N 
ATOM      3  C   UNL     1       5.797   4.383  15.836  0.00  0.00    +0.000 C 
ATOM      4  O   UNL     1       6.570   4.289  16.779  0.00  0.00    +0.000 OA
ATOM      5  H   UNL     1       3.905   4.884  15.203  0.00  0.00    +0.000 HD
BRANCH   3   6
ATOM      6  C   UNL     1       6.301   4.355  14.439  0.00  0.00    +0.000 A 
ATOM      7  C   UNL     1       7.389   5.172  14.110  0.00  0.00    +0.000 A 
ATOM      8  C   UNL     1       7.901   5.163  12.813  0.00  0.00    +0.000 A 
ATOM      9  C   UNL     1       7.338   4.330  11.846  0.00  0.00    +0.000 A 
ATOM     10  C   UNL     1       6.265   3.501  12.173  0.00  0.00    +0.000 A 
ATOM     11  C   UNL     1       5.746   3.510  13.470  0.00  0.00    +0.000 A 
ENDBRANCH   3   6
ENDBRANCH   1   2
BRANCH   1  12
ATOM     12  C   UNL     1       4.351   5.808  18.165  0.00  0.00    +0.000 C 
ATOM     13  O   UNL     1       4.997   5.604  19.201  0.00  0.00    +0.000 OA
BRANCH  12  14
ATOM     14  C   UNL     1       4.091   7.246  17.712  0.00  0.00    +0.000 C 
BRANCH  14  15
ATOM     15  C   UNL     1       2.807   7.917  18.163  0.00  0.00    +0.000 C 
ATOM     16  C   UNL     1       2.262   8.994  17.559  0.00  0.00    +0.000 C 
BRANCH  16  17
ATOM     17  C   UNL     1       1.110   9.793  18.001  0.00  0.00    +0.000 A 
ATOM     18  C   UNL     1      -0.188   9.346  17.723  0.00  0.00    +0.000 A 
ATOM     19  C   UNL     1      -1.298  10.055  18.190  0.00  0.00    +0.000 A 
ATOM     20  C   UNL     1      -1.118  11.217  18.939  0.00  0.00    +0.000 A 
ATOM     21  C   UNL     1       0.173  11.675  19.210  0.00  0.00    +0.000 A 
ATOM     22  C   UNL     1       1.283  10.967  18.742  0.00  0.00    +0.000 A 
ENDBRANCH  16  17
BRANCH  15  23
ATOM     23  C   UNL     1       2.176   7.333  19.393  0.00  0.00    +0.000 C 
ATOM     24  O   UNL     1       1.773   6.186  19.528  0.00  0.00    +0.000 OA
BRANCH  23  25
ATOM     25  O   UNL     1       2.064   8.307  20.335  0.00  0.00    +0.000 OA
BRANCH  25  27
ATOM     26  C   UNL     1       0.033   8.749  21.489  0.00  0.00    +0.000 C 
ATOM     27  C   UNL     1       1.322   7.950  21.509  0.00  0.00    +0.000 C 
ENDBRANCH  25  27
ENDBRANCH  23  25
ENDBRANCH  15  23
ENDBRANCH  14  15
ENDBRANCH  12  14
ENDBRANCH   1  12
BRANCH   1  28
ATOM     28  C   UNL     1       4.080   3.311  18.106  0.00  0.00    +0.000 C 
BRANCH  28  29
ATOM     29  C   UNL     1       3.067   2.970  19.182  0.00  0.00    +0.000 A 
ATOM     30  C   UNL     1       3.466   2.826  20.520  0.00  0.00    +0.000 A 
ATOM     31  C   UNL     1       2.516   2.711  21.541  0.00  0.00    +0.000 A 
ATOM     32  C   UNL     1       1.158   2.724  21.237  0.00  0.00    +0.000 A 
ATOM     33  C   UNL     1       0.748   2.814  19.909  0.00  0.00    +0.000 A 
ATOM     34  C   UNL     1       1.695   2.935  18.887  0.00  0.00    +0.000 A 
ENDBRANCH  28  29
ENDBRANCH   1  28
TORSDOF 11
ENDMDL
MODEL 5
REMARK VINA RESULT:      -7.6      2.574      3.613
REMARK  Name = 
REMARK  12 active torsions:
REMARK  status: ('A' for Active; 'I' for Inactive)
REMARK    1  A    between atoms: C_1  and  C_2
REMARK    2  A    between atoms: C_2  and  O_3
REMARK    3  A    between atoms: O_3  and  C_4
REMARK    4  A    between atoms: C_4  and  C_6
REMARK    5  A    between atoms: C_6  and  C_14
REMARK    6  A    between atoms: C_7  and  C_8
REMARK    7  A    between atoms: C_14  and  C_15
REMARK    8  A    between atoms: C_15  and  C_17
REMARK    9  A    between atoms: C_17  and  C_18
REMARK   10  A    between atoms: C_17  and  N_25
REMARK   11  A    between atoms: C_18  and  C_19
REMARK   12  A    between atoms: C_26  and  C_28
REMARK                            x       y       z     vdW  Elec       q    Type
REMARK                         _______ _______ _______ _____ _____    ______ ____
ROOT
ATOM      1  C   UNL     1       1.350  10.309  19.239  0.00  0.00    +0.000 C 
ENDROOT
BRANCH   1   2
ATOM      2  N   UNL     1       1.750  11.607  18.697  0.00  0.00    +0.000 N 
ATOM      3  C   UNL     1       2.007  12.672  19.531  0.00  0.00    +0.000 C 
ATOM      4  O   UNL     1       1.943  12.598  20.750  0.00  0.00    +0.000 OA
ATOM      5  H   UNL     1       1.544  11.802  17.726  0.00  0.00    +0.000 HD
BRANCH   3   6
ATOM      6  C   UNL     1       2.364  13.953  18.870  0.00  0.00    +0.000 A 
ATOM      7  C   UNL     1       1.479  15.030  18.988  0.00  0.00    +0.000 A 
ATOM      8  C   UNL     1       1.785  16.253  18.393  0.00  0.00    +0.000 A 
ATOM      9  C   UNL     1       2.980  16.409  17.691  0.00  0.00    +0.000 A 
ATOM     10  C   UNL     1       3.874  15.344  17.585  0.00  0.00    +0.000 A 
ATOM     11  C   UNL     1       3.570  14.115  18.176  0.00  0.00    +0.000 A 
ENDBRANCH   3   6
ENDBRANCH   1   2
BRANCH   1  12
ATOM     12  C   UNL     1       1.869   9.101  18.415  0.00  0.00    +0.000 C 
ATOM     13  O   UNL     1       2.111   9.228  17.208  0.00  0.00    +0.000 OA
BRANCH  12  14
ATOM     14  C   UNL     1       2.112   7.750  19.093  0.00  0.00    +0.000 C 
BRANCH  14  15
ATOM     15  C   UNL     1       3.085   6.787  18.438  0.00  0.00    +0.000 C 
ATOM     16  C   UNL     1       4.263   7.155  17.891  0.00  0.00    +0.000 C 
BRANCH  16  17
ATOM     17  C   UNL     1       5.199   6.326  17.117  0.00  0.00    +0.000 A 
ATOM     18  C   UNL     1       6.234   5.652  17.777  0.00  0.00    +0.000 A 
ATOM     19  C   UNL     1       7.095   4.808  17.072  0.00  0.00    +0.000 A 
ATOM     20  C   UNL     1       6.927   4.631  15.699  0.00  0.00    +0.000 A 
ATOM     21  C   UNL     1       5.905   5.310  15.032  0.00  0.00    +0.000 A 
ATOM     22  C   UNL     1       5.045   6.154  15.737  0.00  0.00    +0.000 A 
ENDBRANCH  16  17
BRANCH  15  23
ATOM     23  C   UNL     1       2.632   5.357  18.380  0.00  0.00    +0.000 C 
ATOM     24  O   UNL     1       1.799   4.890  17.615  0.00  0.00    +0.000 OA
BRANCH  23  25
ATOM     25  O   UNL     1       3.257   4.657  19.364  0.00  0.00    +0.000 OA
BRANCH  25  27
ATOM     26  C   UNL     1       2.126   3.974  21.340  0.00  0.00    +0.000 C 
ATOM     27  C   UNL     1       2.504   3.575  19.926  0.00  0.00    +0.000 C 
ENDBRANCH  25  27
ENDBRANCH  23  25
ENDBRANCH  15  23
ENDBRANCH  14  15
ENDBRANCH  12  14
ENDBRANCH   1  12
BRANCH   1  28
ATOM     28  C   UNL     1      -0.186  10.213  19.339  0.00  0.00    +0.000 C 
BRANCH  28  29
ATOM     29  C   UNL     1      -0.806  10.648  20.654  0.00  0.00    +0.000 A 
ATOM     30  C   UNL     1      -0.515   9.962  21.843  0.00  0.00    +0.000 A 
ATOM     31  C   UNL     1      -0.919  10.473  23.081  0.00  0.00    +0.000 A 
ATOM     32  C   UNL     1      -1.632  11.667  23.145  0.00  0.00    +0.000 A 
ATOM     33  C   UNL     1      -1.973  12.332  21.969  0.00  0.00    +0.000 A 
ATOM     34  C   UNL     1      -1.565  11.826  20.731  0.00  0.00    +0.000 A 
ENDBRANCH  28  29
ENDBRANCH   1  28
TORSDOF 11
ENDMDL
MODEL 6
REMARK VINA RESULT:      -7.6      2.348      4.204
REMARK  Name = 
REMARK  12 active torsions:
REMARK  status: ('A' for Active; 'I' for Inactive)
REMARK    1  A    between atoms: C_1  and  C_2
REMARK    2  A    between atoms: C_2  and  O_3
REMARK    3  A    between atoms: O_3  and  C_4
REMARK    4  A    between atoms: C_4  and  C_6
REMARK    5  A    between atoms: C_6  and  C_14
REMARK    6  A    between atoms: C_7  and  C_8
REMARK    7  A    between atoms: C_14  and  C_15
REMARK    8  A    between atoms: C_15  and  C_17
REMARK    9  A    between atoms: C_17  and  C_18
REMARK   10  A    between atoms: C_17  and  N_25
REMARK   11  A    between atoms: C_18  and  C_19
REMARK   12  A    between atoms: C_26  and  C_28
REMARK                            x       y       z     vdW  Elec       q    Type
REMARK                         _______ _______ _______ _____ _____    ______ ____
ROOT
ATOM      1  C   UNL     1       0.516  10.139  18.727  0.00  0.00    +0.000 C 
ENDROOT
BRANCH   1   2
ATOM      2  N   UNL     1       1.157  11.407  18.380  0.00  0.00    +0.000 N 
ATOM      3  C   UNL     1       1.328  12.394  19.325  0.00  0.00    +0.000 C 
ATOM      4  O   UNL     1       0.987  12.268  20.493  0.00  0.00    +0.000 OA
ATOM      5  H   UNL     1       1.192  11.672  17.404  0.00  0.00    +0.000 HD
BRANCH   3   6
ATOM      6  C   UNL     1       1.951  13.655  18.851  0.00  0.00    +0.000 A 
ATOM      7  C   UNL     1       1.227  14.845  18.987  0.00  0.00    +0.000 A 
ATOM      8  C   UNL     1       1.783  16.053  18.567  0.00  0.00    +0.000 A 
ATOM      9  C   UNL     1       3.067  16.079  18.023  0.00  0.00    +0.000 A 
ATOM     10  C   UNL     1       3.800  14.898  17.902  0.00  0.00    +0.000 A 
ATOM     11  C   UNL     1       3.245  13.685  18.317  0.00  0.00    +0.000 A 
ENDBRANCH   3   6
ENDBRANCH   1   2
BRANCH   1  12
ATOM     12  C   UNL     1       1.511   8.958  18.879  0.00  0.00    +0.000 C 
ATOM     13  O   UNL     1       2.008   8.700  19.982  0.00  0.00    +0.000 OA
BRANCH  12  14
ATOM     14  C   UNL     1       1.865   8.085  17.672  0.00  0.00    +0.000 C 
BRANCH  14  15
ATOM     15  C   UNL     1       3.028   7.119  17.805  0.00  0.00    +0.000 C 
ATOM     16  C   UNL     1       4.229   7.294  17.214  0.00  0.00    +0.000 C 
BRANCH  16  17
ATOM     17  C   UNL     1       5.359   6.355  17.167  0.00  0.00    +0.000 A 
ATOM     18  C   UNL     1       6.378   6.452  18.123  0.00  0.00    +0.000 A 
ATOM     19  C   UNL     1       7.428   5.530  18.138  0.00  0.00    +0.000 A 
ATOM     20  C   UNL     1       7.467   4.503  17.196  0.00  0.00    +0.000 A 
ATOM     21  C   UNL     1       6.461   4.408  16.232  0.00  0.00    +0.000 A 
ATOM     22  C   UNL     1       5.412   5.330  16.216  0.00  0.00    +0.000 A 
ENDBRANCH  16  17
BRANCH  15  23
ATOM     23  C   UNL     1       2.749   5.886  18.614  0.00  0.00    +0.000 C 
ATOM     24  O   UNL     1       3.204   5.625  19.720  0.00  0.00    +0.000 OA
BRANCH  23  25
ATOM     25  O   UNL     1       1.944   5.060  17.895  0.00  0.00    +0.000 OA
BRANCH  25  27
ATOM     26  C   UNL     1       2.895   2.908  17.551  0.00  0.00    +0.000 C 
ATOM     27  C   UNL     1       1.883   3.703  18.355  0.00  0.00    +0.000 C 
ENDBRANCH  25  27
ENDBRANCH  23  25
ENDBRANCH  15  23
ENDBRANCH  14  15
ENDBRANCH  12  14
ENDBRANCH   1  12
BRANCH   1  28
ATOM     28  C   UNL     1      -0.543   9.759  17.673  0.00  0.00    +0.000 C 
BRANCH  28  29
ATOM     29  C   UNL     1      -1.932  10.336  17.871  0.00  0.00    +0.000 A 
ATOM     30  C   UNL     1      -2.184  11.254  18.901  0.00  0.00    +0.000 A 
ATOM     31  C   UNL     1      -3.403  11.939  18.967  0.00  0.00    +0.000 A 
ATOM     32  C   UNL     1      -4.388  11.703  18.012  0.00  0.00    +0.000 A 
ATOM     33  C   UNL     1      -4.172  10.757  17.014  0.00  0.00    +0.000 A 
ATOM     34  C   UNL     1      -2.953  10.076  16.943  0.00  0.00    +0.000 A 
ENDBRANCH  28  29
ENDBRANCH   1  28
TORSDOF 11
ENDMDL
MODEL 7
REMARK VINA RESULT:      -7.6      0.884      1.502
REMARK  Name = 
REMARK  12 active torsions:
REMARK  status: ('A' for Active; 'I' for Inactive)
REMARK    1  A    between atoms: C_1  and  C_2
REMARK    2  A    between atoms: C_2  and  O_3
REMARK    3  A    between atoms: O_3  and  C_4
REMARK    4  A    between atoms: C_4  and  C_6
REMARK    5  A    between atoms: C_6  and  C_14
REMARK    6  A    between atoms: C_7  and  C_8
REMARK    7  A    between atoms: C_14  and  C_15
REMARK    8  A    between atoms: C_15  and  C_17
REMARK    9  A    between atoms: C_17  and  C_18
REMARK   10  A    between atoms: C_17  and  N_25
REMARK   11  A    between atoms: C_18  and  C_19
REMARK   12  A    between atoms: C_26  and  C_28
REMARK                            x       y       z     vdW  Elec       q    Type
REMARK                         _______ _______ _______ _____ _____    ______ ____
ROOT
ATOM      1  C   UNL     1       0.923  10.355  19.037  0.00  0.00    +0.000 C 
ENDROOT
BRANCH   1   2
ATOM      2  N   UNL     1      -0.484  10.414  18.641  0.00  0.00    +0.000 N 
ATOM      3  C   UNL     1      -1.046  11.594  18.208  0.00  0.00    +0.000 C 
ATOM      4  O   UNL     1      -0.417  12.638  18.107  0.00  0.00    +0.000 OA
ATOM      5  H   UNL     1      -1.102   9.684  18.969  0.00  0.00    +0.000 HD
BRANCH   3   6
ATOM      6  C   UNL     1      -2.492  11.548  17.874  0.00  0.00    +0.000 A 
ATOM      7  C   UNL     1      -2.863  11.140  16.588  0.00  0.00    +0.000 A 
ATOM      8  C   UNL     1      -4.211  11.070  16.239  0.00  0.00    +0.000 A 
ATOM      9  C   UNL     1      -5.193  11.395  17.176  0.00  0.00    +0.000 A 
ATOM     10  C   UNL     1      -4.829  11.786  18.465  0.00  0.00    +0.000 A 
ATOM     11  C   UNL     1      -3.479  11.862  18.817  0.00  0.00    +0.000 A 
ENDBRANCH   3   6
ENDBRANCH   1   2
BRANCH   1  12
ATOM     12  C   UNL     1       1.707   9.186  18.381  0.00  0.00    +0.000 C 
ATOM     13  O   UNL     1       2.144   9.299  17.229  0.00  0.00    +0.000 OA
BRANCH  12  14
ATOM     14  C   UNL     1       1.971   7.897  19.163  0.00  0.00    +0.000 C 
BRANCH  14  15
ATOM     15  C   UNL     1       2.953   6.896  18.582  0.00  0.00    +0.000 C 
ATOM     16  C   UNL     1       4.138   7.231  18.030  0.00  0.00    +0.000 C 
BRANCH  16  17
ATOM     17  C   UNL     1       5.084   6.358  17.320  0.00  0.00    +0.000 A 
ATOM     18  C   UNL     1       6.024   5.620  18.051  0.00  0.00    +0.000 A 
ATOM     19  C   UNL     1       6.889   4.733  17.404  0.00  0.00    +0.000 A 
ATOM     20  C   UNL     1       6.821   4.579  16.020  0.00  0.00    +0.000 A 
ATOM     21  C   UNL     1       5.895   5.321  15.284  0.00  0.00    +0.000 A 
ATOM     22  C   UNL     1       5.030   6.207  15.931  0.00  0.00    +0.000 A 
ENDBRANCH  16  17
BRANCH  15  23
ATOM     23  C   UNL     1       2.500   5.466  18.606  0.00  0.00    +0.000 C 
ATOM     24  O   UNL     1       1.901   4.879  17.715  0.00  0.00    +0.000 OA
BRANCH  23  25
ATOM     25  O   UNL     1       2.812   4.925  19.814  0.00  0.00    +0.000 OA
BRANCH  25  27
ATOM     26  C   UNL     1       1.551   3.399  21.130  0.00  0.00    +0.000 C 
ATOM     27  C   UNL     1       2.511   3.532  19.963  0.00  0.00    +0.000 C 
ENDBRANCH  25  27
ENDBRANCH  23  25
ENDBRANCH  15  23
ENDBRANCH  14  15
ENDBRANCH  12  14
ENDBRANCH   1  12
BRANCH   1  28
ATOM     28  C   UNL     1       1.051  10.236  20.568  0.00  0.00    +0.000 C 
BRANCH  28  29
ATOM     29  C   UNL     1       0.107  11.089  21.394  0.00  0.00    +0.000 A 
ATOM     30  C   UNL     1      -0.779  10.495  22.306  0.00  0.00    +0.000 A 
ATOM     31  C   UNL     1      -1.506  11.278  23.210  0.00  0.00    +0.000 A 
ATOM     32  C   UNL     1      -1.368  12.663  23.203  0.00  0.00    +0.000 A 
ATOM     33  C   UNL     1      -0.532  13.270  22.269  0.00  0.00    +0.000 A 
ATOM     34  C   UNL     1       0.200  12.489  21.369  0.00  0.00    +0.000 A 
ENDBRANCH  28  29
ENDBRANCH   1  28
TORSDOF 11
ENDMDL
MODEL 8
REMARK VINA RESULT:      -7.6      1.456      3.163
REMARK  Name = 
REMARK  12 active torsions:
REMARK  status: ('A' for Active; 'I' for Inactive)
REMARK    1  A    between atoms: C_1  and  C_2
REMARK    2  A    between atoms: C_2  and  O_3
REMARK    3  A    between atoms: O_3  and  C_4
REMARK    4  A    between atoms: C_4  and  C_6
REMARK    5  A    between atoms: C_6  and  C_14
REMARK    6  A    between atoms: C_7  and  C_8
REMARK    7  A    between atoms: C_14  and  C_15
REMARK    8  A    between atoms: C_15  and  C_17
REMARK    9  A    between atoms: C_17  and  C_18
REMARK   10  A    between atoms: C_17  and  N_25
REMARK   11  A    between atoms: C_18  and  C_19
REMARK   12  A    between atoms: C_26  and  C_28
REMARK                            x       y       z     vdW  Elec       q    Type
REMARK                         _______ _______ _______ _____ _____    ______ ____
ROOT
ATOM      1  C   UNL     1       0.507  10.090  20.437  0.00  0.00    +0.000 C 
ENDROOT
BRANCH   1   2
ATOM      2  N   UNL     1      -0.725  10.363  19.699  0.00  0.00    +0.000 N 
ATOM      3  C   UNL     1      -0.779  10.206  18.332  0.00  0.00    +0.000 C 
ATOM      4  O   UNL     1       0.169   9.814  17.665  0.00  0.00    +0.000 OA
ATOM      5  H   UNL     1      -1.424  10.946  20.138  0.00  0.00    +0.000 HD
BRANCH   3   6
ATOM      6  C   UNL     1      -2.068  10.553  17.681  0.00  0.00    +0.000 A 
ATOM      7  C   UNL     1      -2.983  11.333  18.396  0.00  0.00    +0.000 A 
ATOM      8  C   UNL     1      -4.198  11.692  17.815  0.00  0.00    +0.000 A 
ATOM      9  C   UNL     1      -4.498  11.285  16.514  0.00  0.00    +0.000 A 
ATOM     10  C   UNL     1      -3.581  10.522  15.791  0.00  0.00    +0.000 A 
ATOM     11  C   UNL     1      -2.365  10.156  16.371  0.00  0.00    +0.000 A 
ENDBRANCH   3   6
ENDBRANCH   1   2
BRANCH   1  12
ATOM     12  C   UNL     1       0.549   8.679  21.082  0.00  0.00    +0.000 C 
ATOM     13  O   UNL     1      -0.486   8.164  21.522  0.00  0.00    +0.000 OA
BRANCH  12  14
ATOM     14  C   UNL     1       1.865   7.900  21.154  0.00  0.00    +0.000 C 
BRANCH  14  15
ATOM     15  C   UNL     1       1.988   6.626  20.339  0.00  0.00    +0.000 C 
ATOM     16  C   UNL     1       1.687   5.396  20.806  0.00  0.00    +0.000 C 
BRANCH  16  17
ATOM     17  C   UNL     1       1.905   4.099  20.148  0.00  0.00    +0.000 A 
ATOM     18  C   UNL     1       0.884   3.541  19.368  0.00  0.00    +0.000 A 
ATOM     19  C   UNL     1       1.092   2.343  18.679  0.00  0.00    +0.000 A 
ATOM     20  C   UNL     1       2.322   1.693  18.767  0.00  0.00    +0.000 A 
ATOM     21  C   UNL     1       3.340   2.238  19.553  0.00  0.00    +0.000 A 
ATOM     22  C   UNL     1       3.132   3.435  20.241  0.00  0.00    +0.000 A 
ENDBRANCH  16  17
BRANCH  15  23
ATOM     23  C   UNL     1       2.531   6.801  18.951  0.00  0.00    +0.000 C 
ATOM     24  O   UNL     1       1.876   6.978  17.932  0.00  0.00    +0.000 OA
BRANCH  23  25
ATOM     25  O   UNL     1       3.884   6.675  18.988  0.00  0.00    +0.000 OA
BRANCH  25  27
ATOM     26  C   UNL     1       5.268   6.778  17.058  0.00  0.00    +0.000 C 
ATOM     27  C   UNL     1       4.457   5.862  17.956  0.00  0.00    +0.000 C 
ENDBRANCH  25  27
ENDBRANCH  23  25
ENDBRANCH  15  23
ENDBRANCH  14  15
ENDBRANCH  12  14
ENDBRANCH   1  12
BRANCH   1  28
ATOM     28  C   UNL     1       0.723  11.143  21.542  0.00  0.00    +0.000 C 
BRANCH  28  29
ATOM     29  C   UNL     1      -0.510  11.894  22.010  0.00  0.00    +0.000 A 
ATOM     30  C   UNL     1      -0.919  13.070  21.362  0.00  0.00    +0.000 A 
ATOM     31  C   UNL     1      -2.156  13.654  21.656  0.00  0.00    +0.000 A 
ATOM     32  C   UNL     1      -2.991  13.080  22.609  0.00  0.00    +0.000 A 
ATOM     33  C   UNL     1      -2.576  11.942  23.297  0.00  0.00    +0.000 A 
ATOM     34  C   UNL     1      -1.343  11.353  23.002  0.00  0.00    +0.000 A 
ENDBRANCH  28  29
ENDBRANCH   1  28
TORSDOF 11
ENDMDL
MODEL 9
REMARK VINA RESULT:      -7.6      2.394      5.071
REMARK  Name = 
REMARK  12 active torsions:
REMARK  status: ('A' for Active; 'I' for Inactive)
REMARK    1  A    between atoms: C_1  and  C_2
REMARK    2  A    between atoms: C_2  and  O_3
REMARK    3  A    between atoms: O_3  and  C_4
REMARK    4  A    between atoms: C_4  and  C_6
REMARK    5  A    between atoms: C_6  and  C_14
REMARK    6  A    between atoms: C_7  and  C_8
REMARK    7  A    between atoms: C_14  and  C_15
REMARK    8  A    between atoms: C_15  and  C_17
REMARK    9  A    between atoms: C_17  and  C_18
REMARK   10  A    between atoms: C_17  and  N_25
REMARK   11  A    between atoms: C_18  and  C_19
REMARK   12  A    between atoms: C_26  and  C_28
REMARK                            x       y       z     vdW  Elec       q    Type
REMARK                         _______ _______ _______ _____ _____    ______ ____
ROOT
ATOM      1  C   UNL     1       0.715  10.005  19.040  0.00  0.00    +0.000 C 
ENDROOT
BRANCH   1   2
ATOM      2  N   UNL     1       1.425  11.268  18.842  0.00  0.00    +0.000 N 
ATOM      3  C   UNL     1       1.616  12.141  19.890  0.00  0.00    +0.000 C 
ATOM      4  O   UNL     1       1.236  11.913  21.030  0.00  0.00    +0.000 OA
ATOM      5  H   UNL     1       1.500  11.630  17.901  0.00  0.00    +0.000 HD
BRANCH   3   6
ATOM      6  C   UNL     1       2.311  13.413  19.566  0.00  0.00    +0.000 A 
ATOM      7  C   UNL     1       2.944  14.106  20.603  0.00  0.00    +0.000 A 
ATOM      8  C   UNL     1       3.620  15.296  20.337  0.00  0.00    +0.000 A 
ATOM      9  C   UNL     1       3.676  15.791  19.033  0.00  0.00    +0.000 A 
ATOM     10  C   UNL     1       3.061  15.095  17.993  0.00  0.00    +0.000 A 
ATOM     11  C   UNL     1       2.379  13.904  18.256  0.00  0.00    +0.000 A 
ENDBRANCH   3   6
ENDBRANCH   1   2
BRANCH   1  12
ATOM     12  C   UNL     1       1.652   8.797  19.308  0.00  0.00    +0.000 C 
ATOM     13  O   UNL     1       1.700   8.284  20.433  0.00  0.00    +0.000 OA
BRANCH  12  14
ATOM     14  C   UNL     1       2.505   8.213  18.179  0.00  0.00    +0.000 C 
BRANCH  14  15
ATOM     15  C   UNL     1       2.736   6.714  18.160  0.00  0.00    +0.000 C 
ATOM     16  C   UNL     1       1.762   5.794  18.327  0.00  0.00    +0.000 C 
BRANCH  16  17
ATOM     17  C   UNL     1       1.907   4.338  18.464  0.00  0.00    +0.000 A 
ATOM     18  C   UNL     1       2.425   3.591  17.398  0.00  0.00    +0.000 A 
ATOM     19  C   UNL     1       2.633   2.216  17.529  0.00  0.00    +0.000 A 
ATOM     20  C   UNL     1       2.324   1.576  18.729  0.00  0.00    +0.000 A 
ATOM     21  C   UNL     1       1.796   2.312  19.792  0.00  0.00    +0.000 A 
ATOM     22  C   UNL     1       1.588   3.687  19.660  0.00  0.00    +0.000 A 
ENDBRANCH  16  17
BRANCH  15  23
ATOM     23  C   UNL     1       4.166   6.287  17.992  0.00  0.00    +0.000 C 
ATOM     24  O   UNL     1       4.911   5.881  18.874  0.00  0.00    +0.000 OA
BRANCH  23  25
ATOM     25  O   UNL     1       4.533   6.478  16.697  0.00  0.00    +0.000 OA
BRANCH  25  27
ATOM     26  C   UNL     1       5.520   4.708  15.455  0.00  0.00    +0.000 C 
ATOM     27  C   UNL     1       5.799   5.919  16.326  0.00  0.00    +0.000 C 
ENDBRANCH  25  27
ENDBRANCH  23  25
ENDBRANCH  15  23
ENDBRANCH  14  15
ENDBRANCH  12  14
ENDBRANCH   1  12
BRANCH   1  28
ATOM     28  C   UNL     1      -0.167   9.681  17.818  0.00  0.00    +0.000 C 
BRANCH  28  29
ATOM     29  C   UNL     1      -1.503  10.396  17.739  0.00  0.00    +0.000 A 
ATOM     30  C   UNL     1      -2.411  10.102  16.710  0.00  0.00    +0.000 A 
ATOM     31  C   UNL     1      -3.716  10.606  16.743  0.00  0.00    +0.000 A 
ATOM     32  C   UNL     1      -4.124  11.420  17.795  0.00  0.00    +0.000 A 
ATOM     33  C   UNL     1      -3.218  11.762  18.797  0.00  0.00    +0.000 A 
ATOM     34  C   UNL     1      -1.915  11.256  18.769  0.00  0.00    +0.000 A 
ENDBRANCH  28  29
ENDBRANCH   1  28
TORSDOF 11
ENDMDL
