MODEL 1
REMARK VINA RESULT:      -8.8      0.000      0.000
REMARK  Name = 
REMARK  5 active torsions:
REMARK  status: ('A' for Active; 'I' for Inactive)
REMARK    1  A    between atoms: C_1  and  C_2
REMARK    2  A    between atoms: C_6  and  N_7
REMARK    3  A    between atoms: C_11  and  C_12
REMARK    4  A    between atoms: C_17  and  C_18
REMARK    5  A    between atoms: C_22  and  C_23
REMARK                            x       y       z     vdW  Elec       q    Type
REMARK                         _______ _______ _______ _____ _____    ______ ____
ROOT
ATOM      1  N   UNL     1       2.589   5.147  17.858  0.00  0.00    +0.000 N 
ATOM      2  N   UNL     1       1.549   4.306  17.619  0.00  0.00    +0.000 NA
ATOM      3  N   UNL     1       2.068   3.201  17.119  0.00  0.00    +0.000 NA
ATOM      4  N   UNL     1       3.430   3.253  17.126  0.00  0.00    +0.000 NA
ATOM      5  C   UNL     1       3.770   4.437  17.605  0.00  0.00    +0.000 A 
ENDROOT
BRANCH   1  11
ATOM      6  C   UNL     1       1.158   8.407  21.468  0.00  0.00    +0.000 C 
ATOM      7  C   UNL     1       1.620   8.052  20.078  0.00  0.00    +0.000 A 
ATOM      8  C   UNL     1       1.720   9.079  19.130  0.00  0.00    +0.000 A 
ATOM      9  C   UNL     1       2.165   8.820  17.844  0.00  0.00    +0.000 A 
ATOM     10  C   UNL     1       2.481   7.517  17.474  0.00  0.00    +0.000 A 
ATOM     11  C   UNL     1       2.345   6.448  18.387  0.00  0.00    +0.000 A 
ATOM     12  C   UNL     1       1.963   6.716  19.724  0.00  0.00    +0.000 A 
ATOM     13  C   UNL     1       1.983   5.694  20.834  0.00  0.00    +0.000 C 
ENDBRANCH   1  11
BRANCH   5  14
ATOM     14  C   UNL     1       5.141   4.830  17.924  0.00  0.00    +0.000 A 
ATOM     15  C   UNL     1       5.557   4.848  19.260  0.00  0.00    +0.000 A 
ATOM     16  N   UNL     1       6.767   5.269  19.691  0.00  0.00    +0.000 NA
ATOM     17  C   UNL     1       7.646   5.656  18.752  0.00  0.00    +0.000 A 
ATOM     18  C   UNL     1       7.365   5.627  17.399  0.00  0.00    +0.000 A 
ATOM     19  C   UNL     1       6.091   5.215  16.958  0.00  0.00    +0.000 A 
BRANCH  19  20
ATOM     20  C   UNL     1       5.855   5.266  15.465  0.00  0.00    +0.000 C 
ATOM     21  F   UNL     1       5.261   4.184  14.908  0.00  0.00    +0.000 F 
ATOM     22  F   UNL     1       5.038   6.315  15.139  0.00  0.00    +0.000 F 
ATOM     23  F   UNL     1       7.007   5.480  14.772  0.00  0.00    +0.000 F 
ENDBRANCH  19  20
ENDBRANCH   5  14
TORSDOF 3
ENDMDL
MODEL 2
REMARK VINA RESULT:      -8.6      1.935      3.331
REMARK  Name = 
REMARK  5 active torsions:
REMARK  status: ('A' for Active; 'I' for Inactive)
REMARK    1  A    between atoms: C_1  and  C_2
REMARK    2  A    between atoms: C_6  and  N_7
REMARK    3  A    between atoms: C_11  and  C_12
REMARK    4  A    between atoms: C_17  and  C_18
REMARK    5  A    between atoms: C_22  and  C_23
REMARK                            x       y       z     vdW  Elec       q    Type
REMARK                         _______ _______ _______ _____ _____    ______ ____
ROOT
ATOM      1  N   UNL     1       2.913   5.947  18.148  0.00  0.00    +0.000 N 
ATOM      2  N   UNL     1       2.008   6.894  17.790  0.00  0.00    +0.000 NA
ATOM      3  N   UNL     1       2.698   7.973  17.475  0.00  0.00    +0.000 NA
ATOM      4  N   UNL     1       4.038   7.724  17.511  0.00  0.00    +0.000 NA
ATOM      5  C   UNL     1       4.189   6.469  17.899  0.00  0.00    +0.000 A 
ENDROOT
BRANCH   1  11
ATOM      6  C   UNL     1       1.400   2.538  21.584  0.00  0.00    +0.000 C 
ATOM      7  C   UNL     1       1.782   2.972  20.192  0.00  0.00    +0.000 A 
ATOM      8  C   UNL     1       1.832   1.998  19.185  0.00  0.00    +0.000 A 
ATOM      9  C   UNL     1       2.149   2.339  17.880  0.00  0.00    +0.000 A 
ATOM     10  C   UNL     1       2.460   3.659  17.570  0.00  0.00    +0.000 A 
ATOM     11  C   UNL     1       2.468   4.659  18.567  0.00  0.00    +0.000 A 
ATOM     12  C   UNL     1       2.073   4.332  19.886  0.00  0.00    +0.000 A 
ATOM     13  C   UNL     1       1.845   5.346  20.981  0.00  0.00    +0.000 C 
ENDBRANCH   1  11
BRANCH   5  14
ATOM     14  C   UNL     1       5.469   5.763  17.911  0.00  0.00    +0.000 A 
ATOM     15  C   UNL     1       6.152   5.604  19.122  0.00  0.00    +0.000 A 
ATOM     16  N   UNL     1       7.377   5.046  19.254  0.00  0.00    +0.000 NA
ATOM     17  C   UNL     1       7.952   4.570  18.138  0.00  0.00    +0.000 A 
ATOM     18  C   UNL     1       7.345   4.621  16.897  0.00  0.00    +0.000 A 
ATOM     19  C   UNL     1       6.081   5.231  16.761  0.00  0.00    +0.000 A 
BRANCH  19  20
ATOM     20  C   UNL     1       5.518   5.289  15.358  0.00  0.00    +0.000 C 
ATOM     21  F   UNL     1       5.006   6.477  14.959  0.00  0.00    +0.000 F 
ATOM     22  F   UNL     1       6.487   5.003  14.435  0.00  0.00    +0.000 F 
ATOM     23  F   UNL     1       4.546   4.356  15.158  0.00  0.00    +0.000 F 
ENDBRANCH  19  20
ENDBRANCH   5  14
TORSDOF 3
ENDMDL
MODEL 3
REMARK VINA RESULT:      -8.3      2.724      4.058
REMARK  Name = 
REMARK  5 active torsions:
REMARK  status: ('A' for Active; 'I' for Inactive)
REMARK    1  A    between atoms: C_1  and  C_2
REMARK    2  A    between atoms: C_6  and  N_7
REMARK    3  A    between atoms: C_11  and  C_12
REMARK    4  A    between atoms: C_17  and  C_18
REMARK    5  A    between atoms: C_22  and  C_23
REMARK                            x       y       z     vdW  Elec       q    Type
REMARK                         _______ _______ _______ _____ _____    ______ ____
ROOT
ATOM      1  N   UNL     1       2.759   6.178  18.051  0.00  0.00    +0.000 N 
ATOM      2  N   UNL     1       1.840   7.171  18.170  0.00  0.00    +0.000 NA
ATOM      3  N   UNL     1       2.433   8.280  17.773  0.00  0.00    +0.000 NA
ATOM      4  N   UNL     1       3.682   8.022  17.293  0.00  0.00    +0.000 NA
ATOM      5  C   UNL     1       3.890   6.724  17.432  0.00  0.00    +0.000 A 
ENDROOT
BRANCH   1  11
ATOM      6  C   UNL     1       1.553   2.547  21.379  0.00  0.00    +0.000 C 
ATOM      7  C   UNL     1       1.885   3.056  19.999  0.00  0.00    +0.000 A 
ATOM      8  C   UNL     1       2.000   2.124  18.959  0.00  0.00    +0.000 A 
ATOM      9  C   UNL     1       2.275   2.532  17.664  0.00  0.00    +0.000 A 
ATOM     10  C   UNL     1       2.479   3.882  17.397  0.00  0.00    +0.000 A 
ATOM     11  C   UNL     1       2.420   4.845  18.428  0.00  0.00    +0.000 A 
ATOM     12  C   UNL     1       2.066   4.444  19.739  0.00  0.00    +0.000 A 
ATOM     13  C   UNL     1       1.772   5.399  20.870  0.00  0.00    +0.000 C 
ENDBRANCH   1  11
BRANCH   5  14
ATOM     14  C   UNL     1       5.050   6.017  16.892  0.00  0.00    +0.000 A 
ATOM     15  C   UNL     1       5.290   6.045  15.513  0.00  0.00    +0.000 A 
ATOM     16  N   UNL     1       6.276   5.367  14.883  0.00  0.00    +0.000 NA
ATOM     17  C   UNL     1       7.110   4.651  15.654  0.00  0.00    +0.000 A 
ATOM     18  C   UNL     1       7.003   4.595  17.031  0.00  0.00    +0.000 A 
ATOM     19  C   UNL     1       5.955   5.280  17.679  0.00  0.00    +0.000 A 
BRANCH  19  20
ATOM     20  C   UNL     1       5.884   5.119  19.181  0.00  0.00    +0.000 C 
ATOM     21  F   UNL     1       5.066   5.970  19.844  0.00  0.00    +0.000 F 
ATOM     22  F   UNL     1       5.428   3.872  19.514  0.00  0.00    +0.000 F 
ATOM     23  F   UNL     1       7.110   5.219  19.766  0.00  0.00    +0.000 F 
ENDBRANCH  19  20
ENDBRANCH   5  14
TORSDOF 3
ENDMDL
MODEL 4
REMARK VINA RESULT:      -7.6      2.059      3.469
REMARK  Name = 
REMARK  5 active torsions:
REMARK  status: ('A' for Active; 'I' for Inactive)
REMARK    1  A    between atoms: C_1  and  C_2
REMARK    2  A    between atoms: C_6  and  N_7
REMARK    3  A    between atoms: C_11  and  C_12
REMARK    4  A    between atoms: C_17  and  C_18
REMARK    5  A    between atoms: C_22  and  C_23
REMARK                            x       y       z     vdW  Elec       q    Type
REMARK                         _______ _______ _______ _____ _____    ______ ____
ROOT
ATOM      1  N   UNL     1       2.990   6.343  18.415  0.00  0.00    +0.000 N 
ATOM      2  N   UNL     1       2.103   7.275  17.978  0.00  0.00    +0.000 NA
ATOM      3  N   UNL     1       2.808   8.206  17.365  0.00  0.00    +0.000 NA
ATOM      4  N   UNL     1       4.123   7.854  17.293  0.00  0.00    +0.000 NA
ATOM      5  C   UNL     1       4.249   6.693  17.912  0.00  0.00    +0.000 A 
ENDROOT
BRANCH   1  11
ATOM      6  C   UNL     1       0.789   1.796  18.860  0.00  0.00    +0.000 C 
ATOM      7  C   UNL     1       1.433   3.043  19.411  0.00  0.00    +0.000 A 
ATOM      8  C   UNL     1       1.497   3.196  20.803  0.00  0.00    +0.000 A 
ATOM      9  C   UNL     1       2.102   4.306  21.370  0.00  0.00    +0.000 A 
ATOM     10  C   UNL     1       2.618   5.303  20.549  0.00  0.00    +0.000 A 
ATOM     11  C   UNL     1       2.528   5.208  19.143  0.00  0.00    +0.000 A 
ATOM     12  C   UNL     1       1.979   4.042  18.556  0.00  0.00    +0.000 A 
ATOM     13  C   UNL     1       2.016   3.737  17.078  0.00  0.00    +0.000 C 
ENDBRANCH   1  11
BRANCH   5  14
ATOM     14  C   UNL     1       5.474   5.896  17.920  0.00  0.00    +0.000 A 
ATOM     15  C   UNL     1       6.152   5.692  19.127  0.00  0.00    +0.000 A 
ATOM     16  N   UNL     1       7.334   5.046  19.254  0.00  0.00    +0.000 NA
ATOM     17  C   UNL     1       7.865   4.527  18.136  0.00  0.00    +0.000 A 
ATOM     18  C   UNL     1       7.257   4.617  16.899  0.00  0.00    +0.000 A 
ATOM     19  C   UNL     1       6.039   5.317  16.768  0.00  0.00    +0.000 A 
BRANCH  19  20
ATOM     20  C   UNL     1       5.473   5.411  15.369  0.00  0.00    +0.000 C 
ATOM     21  F   UNL     1       4.972   6.613  14.997  0.00  0.00    +0.000 F 
ATOM     22  F   UNL     1       6.436   5.135  14.437  0.00  0.00    +0.000 F 
ATOM     23  F   UNL     1       4.491   4.493  15.151  0.00  0.00    +0.000 F 
ENDBRANCH  19  20
ENDBRANCH   5  14
TORSDOF 3
ENDMDL
MODEL 5
REMARK VINA RESULT:      -7.4      2.578      5.251
REMARK  Name = 
REMARK  5 active torsions:
REMARK  status: ('A' for Active; 'I' for Inactive)
REMARK    1  A    between atoms: C_1  and  C_2
REMARK    2  A    between atoms: C_6  and  N_7
REMARK    3  A    between atoms: C_11  and  C_12
REMARK    4  A    between atoms: C_17  and  C_18
REMARK    5  A    between atoms: C_22  and  C_23
REMARK                            x       y       z     vdW  Elec       q    Type
REMARK                         _______ _______ _______ _____ _____    ______ ____
ROOT
ATOM      1  N   UNL     1       3.717   6.488  18.202  0.00  0.00    +0.000 N 
ATOM      2  N   UNL     1       3.440   7.768  17.845  0.00  0.00    +0.000 NA
ATOM      3  N   UNL     1       2.184   7.988  18.182  0.00  0.00    +0.000 NA
ATOM      4  N   UNL     1       1.663   6.921  18.851  0.00  0.00    +0.000 NA
ATOM      5  C   UNL     1       2.605   5.995  18.896  0.00  0.00    +0.000 A 
ENDROOT
BRANCH   1  11
ATOM      6  C   UNL     1       7.442   4.804  15.201  0.00  0.00    +0.000 C 
ATOM      7  C   UNL     1       6.809   5.076  16.542  0.00  0.00    +0.000 A 
ATOM      8  C   UNL     1       7.484   4.649  17.693  0.00  0.00    +0.000 A 
ATOM      9  C   UNL     1       6.968   4.894  18.955  0.00  0.00    +0.000 A 
ATOM     10  C   UNL     1       5.742   5.539  19.083  0.00  0.00    +0.000 A 
ATOM     11  C   UNL     1       5.008   5.941  17.945  0.00  0.00    +0.000 A 
ATOM     12  C   UNL     1       5.566   5.760  16.656  0.00  0.00    +0.000 A 
ATOM     13  C   UNL     1       4.975   6.329  15.388  0.00  0.00    +0.000 C 
ENDBRANCH   1  11
BRANCH   5  14
ATOM     14  C   UNL     1       2.502   4.756  19.666  0.00  0.00    +0.000 A 
ATOM     15  C   UNL     1       2.355   4.822  21.056  0.00  0.00    +0.000 A 
ATOM     16  N   UNL     1       2.331   3.754  21.886  0.00  0.00    +0.000 NA
ATOM     17  C   UNL     1       2.410   2.541  21.317  0.00  0.00    +0.000 A 
ATOM     18  C   UNL     1       2.501   2.353  19.950  0.00  0.00    +0.000 A 
ATOM     19  C   UNL     1       2.555   3.471  19.093  0.00  0.00    +0.000 A 
BRANCH  19  20
ATOM     20  C   UNL     1       2.708   3.172  17.618  0.00  0.00    +0.000 C 
ATOM     21  F   UNL     1       2.163   4.066  16.759  0.00  0.00    +0.000 F 
ATOM     22  F   UNL     1       4.030   3.118  17.269  0.00  0.00    +0.000 F 
ATOM     23  F   UNL     1       2.201   1.952  17.288  0.00  0.00    +0.000 F 
ENDBRANCH  19  20
ENDBRANCH   5  14
TORSDOF 3
ENDMDL
MODEL 6
REMARK VINA RESULT:      -7.3      0.857      1.923
REMARK  Name = 
REMARK  5 active torsions:
REMARK  status: ('A' for Active; 'I' for Inactive)
REMARK    1  A    between atoms: C_1  and  C_2
REMARK    2  A    between atoms: C_6  and  N_7
REMARK    3  A    between atoms: C_11  and  C_12
REMARK    4  A    between atoms: C_17  and  C_18
REMARK    5  A    between atoms: C_22  and  C_23
REMARK                            x       y       z     vdW  Elec       q    Type
REMARK                         _______ _______ _______ _____ _____    ______ ____
ROOT
ATOM      1  N   UNL     1       2.858   4.293  18.389  0.00  0.00    +0.000 N 
ATOM      2  N   UNL     1       1.982   3.266  18.240  0.00  0.00    +0.000 NA
ATOM      3  N   UNL     1       2.655   2.275  17.687  0.00  0.00    +0.000 NA
ATOM      4  N   UNL     1       3.977   2.588  17.571  0.00  0.00    +0.000 NA
ATOM      5  C   UNL     1       4.125   3.821  18.025  0.00  0.00    +0.000 A 
ENDROOT
BRANCH   1  11
ATOM      6  C   UNL     1       2.405   9.342  18.506  0.00  0.00    +0.000 C 
ATOM      7  C   UNL     1       2.216   7.958  19.071  0.00  0.00    +0.000 A 
ATOM      8  C   UNL     1       1.652   7.834  20.348  0.00  0.00    +0.000 A 
ATOM      9  C   UNL     1       1.427   6.588  20.911  0.00  0.00    +0.000 A 
ATOM     10  C   UNL     1       1.802   5.443  20.216  0.00  0.00    +0.000 A 
ATOM     11  C   UNL     1       2.418   5.528  18.948  0.00  0.00    +0.000 A 
ATOM     12  C   UNL     1       2.582   6.794  18.336  0.00  0.00    +0.000 A 
ATOM     13  C   UNL     1       3.035   6.996  16.910  0.00  0.00    +0.000 C 
ENDBRANCH   1  11
BRANCH   5  14
ATOM     14  C   UNL     1       5.419   4.473  18.221  0.00  0.00    +0.000 A 
ATOM     15  C   UNL     1       5.825   4.816  19.515  0.00  0.00    +0.000 A 
ATOM     16  N   UNL     1       6.956   5.494  19.820  0.00  0.00    +0.000 NA
ATOM     17  C   UNL     1       7.764   5.817  18.798  0.00  0.00    +0.000 A 
ATOM     18  C   UNL     1       7.494   5.479  17.485  0.00  0.00    +0.000 A 
ATOM     19  C   UNL     1       6.299   4.799  17.171  0.00  0.00    +0.000 A 
BRANCH  19  20
ATOM     20  C   UNL     1       6.060   4.518  15.704  0.00  0.00    +0.000 C 
ATOM     21  F   UNL     1       4.914   5.006  15.172  0.00  0.00    +0.000 F 
ATOM     22  F   UNL     1       7.055   5.063  14.938  0.00  0.00    +0.000 F 
ATOM     23  F   UNL     1       6.084   3.185  15.427  0.00  0.00    +0.000 F 
ENDBRANCH  19  20
ENDBRANCH   5  14
TORSDOF 3
ENDMDL
MODEL 7
REMARK VINA RESULT:      -7.2      2.119      2.545
REMARK  Name = 
REMARK  5 active torsions:
REMARK  status: ('A' for Active; 'I' for Inactive)
REMARK    1  A    between atoms: C_1  and  C_2
REMARK    2  A    between atoms: C_6  and  N_7
REMARK    3  A    between atoms: C_11  and  C_12
REMARK    4  A    between atoms: C_17  and  C_18
REMARK    5  A    between atoms: C_22  and  C_23
REMARK                            x       y       z     vdW  Elec       q    Type
REMARK                         _______ _______ _______ _____ _____    ______ ____
ROOT
ATOM      1  N   UNL     1       2.455   4.596  18.004  0.00  0.00    +0.000 N 
ATOM      2  N   UNL     1       1.535   3.681  18.407  0.00  0.00    +0.000 NA
ATOM      3  N   UNL     1       1.870   2.538  17.839  0.00  0.00    +0.000 NA
ATOM      4  N   UNL     1       3.047   2.655  17.162  0.00  0.00    +0.000 NA
ATOM      5  C   UNL     1       3.437   3.913  17.277  0.00  0.00    +0.000 A 
ENDROOT
BRANCH   1  11
ATOM      6  C   UNL     1       1.355   8.236  21.360  0.00  0.00    +0.000 C 
ATOM      7  C   UNL     1       1.788   7.736  20.005  0.00  0.00    +0.000 A 
ATOM      8  C   UNL     1       2.009   8.678  18.991  0.00  0.00    +0.000 A 
ATOM      9  C   UNL     1       2.436   8.284  17.734  0.00  0.00    +0.000 A 
ATOM     10  C   UNL     1       2.611   6.932  17.459  0.00  0.00    +0.000 A 
ATOM     11  C   UNL     1       2.350   5.950  18.440  0.00  0.00    +0.000 A 
ATOM     12  C   UNL     1       1.986   6.350  19.748  0.00  0.00    +0.000 A 
ATOM     13  C   UNL     1       1.883   5.411  20.926  0.00  0.00    +0.000 C 
ENDBRANCH   1  11
BRANCH   5  14
ATOM     14  C   UNL     1       4.734   4.414  16.826  0.00  0.00    +0.000 A 
ATOM     15  C   UNL     1       4.997   4.501  15.454  0.00  0.00    +0.000 A 
ATOM     16  N   UNL     1       6.181   4.868  14.913  0.00  0.00    +0.000 NA
ATOM     17  C   UNL     1       7.158   5.216  15.766  0.00  0.00    +0.000 A 
ATOM     18  C   UNL     1       6.994   5.223  17.139  0.00  0.00    +0.000 A 
ATOM     19  C   UNL     1       5.766   4.810  17.698  0.00  0.00    +0.000 A 
BRANCH  19  20
ATOM     20  C   UNL     1       5.695   4.799  19.208  0.00  0.00    +0.000 C 
ATOM     21  F   UNL     1       5.181   3.685  19.782  0.00  0.00    +0.000 F 
ATOM     22  F   UNL     1       6.944   4.924  19.754  0.00  0.00    +0.000 F 
ATOM     23  F   UNL     1       4.984   5.853  19.696  0.00  0.00    +0.000 F 
ENDBRANCH  19  20
ENDBRANCH   5  14
TORSDOF 3
ENDMDL
MODEL 8
REMARK VINA RESULT:      -7.1      2.945      5.550
REMARK  Name = 
REMARK  5 active torsions:
REMARK  status: ('A' for Active; 'I' for Inactive)
REMARK    1  A    between atoms: C_1  and  C_2
REMARK    2  A    between atoms: C_6  and  N_7
REMARK    3  A    between atoms: C_11  and  C_12
REMARK    4  A    between atoms: C_17  and  C_18
REMARK    5  A    between atoms: C_22  and  C_23
REMARK                            x       y       z     vdW  Elec       q    Type
REMARK                         _______ _______ _______ _____ _____    ______ ____
ROOT
ATOM      1  N   UNL     1       4.185   4.608  17.668  0.00  0.00    +0.000 N 
ATOM      2  N   UNL     1       4.182   3.748  16.616  0.00  0.00    +0.000 NA
ATOM      3  N   UNL     1       2.948   3.293  16.508  0.00  0.00    +0.000 NA
ATOM      4  N   UNL     1       2.118   3.915  17.392  0.00  0.00    +0.000 NA
ATOM      5  C   UNL     1       2.860   4.750  18.099  0.00  0.00    +0.000 A 
ENDROOT
BRANCH   1  11
ATOM      6  C   UNL     1       7.851   8.080  17.201  0.00  0.00    +0.000 C 
ATOM      7  C   UNL     1       7.206   6.876  17.841  0.00  0.00    +0.000 A 
ATOM      8  C   UNL     1       7.903   6.216  18.862  0.00  0.00    +0.000 A 
ATOM      9  C   UNL     1       7.351   5.122  19.508  0.00  0.00    +0.000 A 
ATOM     10  C   UNL     1       6.105   4.646  19.113  0.00  0.00    +0.000 A 
ATOM     11  C   UNL     1       5.395   5.255  18.055  0.00  0.00    +0.000 A 
ATOM     12  C   UNL     1       5.919   6.418  17.441  0.00  0.00    +0.000 A 
ATOM     13  C   UNL     1       5.163   7.269  16.450  0.00  0.00    +0.000 C 
ENDBRANCH   1  11
BRANCH   5  14
ATOM     14  C   UNL     1       2.322   5.724  19.047  0.00  0.00    +0.000 A 
ATOM     15  C   UNL     1       2.204   7.064  18.661  0.00  0.00    +0.000 A 
ATOM     16  N   UNL     1       1.800   8.071  19.469  0.00  0.00    +0.000 NA
ATOM     17  C   UNL     1       1.446   7.741  20.721  0.00  0.00    +0.000 A 
ATOM     18  C   UNL     1       1.468   6.443  21.194  0.00  0.00    +0.000 A 
ATOM     19  C   UNL     1       1.918   5.401  20.356  0.00  0.00    +0.000 A 
BRANCH  19  20
ATOM     20  C   UNL     1       1.959   4.022  20.975  0.00  0.00    +0.000 C 
ATOM     21  F   UNL     1       2.885   3.164  20.482  0.00  0.00    +0.000 F 
ATOM     22  F   UNL     1       2.237   4.098  22.312  0.00  0.00    +0.000 F 
ATOM     23  F   UNL     1       0.756   3.388  20.894  0.00  0.00    +0.000 F 
ENDBRANCH  19  20
ENDBRANCH   5  14
TORSDOF 3
ENDMDL
MODEL 9
REMARK VINA RESULT:      -7.1      3.128      5.732
REMARK  Name = 
REMARK  5 active torsions:
REMARK  status: ('A' for Active; 'I' for Inactive)
REMARK    1  A    between atoms: C_1  and  C_2
REMARK    2  A    between atoms: C_6  and  N_7
REMARK    3  A    between atoms: C_11  and  C_12
REMARK    4  A    between atoms: C_17  and  C_18
REMARK    5  A    between atoms: C_22  and  C_23
REMARK                            x       y       z     vdW  Elec       q    Type
REMARK                         _______ _______ _______ _____ _____    ______ ____
ROOT
ATOM      1  N   UNL     1       3.768   6.369  17.407  0.00  0.00    +0.000 N 
ATOM      2  N   UNL     1       3.669   7.723  17.462  0.00  0.00    +0.000 NA
ATOM      3  N   UNL     1       2.442   7.993  17.866  0.00  0.00    +0.000 NA
ATOM      4  N   UNL     1       1.769   6.850  18.182  0.00  0.00    +0.000 NA
ATOM      5  C   UNL     1       2.582   5.839  17.930  0.00  0.00    +0.000 A 
ENDROOT
BRANCH   1  11
ATOM      6  C   UNL     1       8.389   4.409  18.130  0.00  0.00    +0.000 C 
ATOM      7  C   UNL     1       7.231   4.855  17.272  0.00  0.00    +0.000 A 
ATOM      8  C   UNL     1       7.375   4.791  15.880  0.00  0.00    +0.000 A 
ATOM      9  C   UNL     1       6.337   5.159  15.039  0.00  0.00    +0.000 A 
ATOM     10  C   UNL     1       5.149   5.637  15.582  0.00  0.00    +0.000 A 
ATOM     11  C   UNL     1       4.985   5.762  16.978  0.00  0.00    +0.000 A 
ATOM     12  C   UNL     1       6.012   5.317  17.844  0.00  0.00    +0.000 A 
ATOM     13  C   UNL     1       5.873   5.209  19.344  0.00  0.00    +0.000 C 
ENDBRANCH   1  11
BRANCH   5  14
ATOM     14  C   UNL     1       2.298   4.449  18.285  0.00  0.00    +0.000 A 
ATOM     15  C   UNL     1       2.247   3.481  17.276  0.00  0.00    +0.000 A 
ATOM     16  N   UNL     1       1.913   2.183  17.462  0.00  0.00    +0.000 NA
ATOM     17  C   UNL     1       1.657   1.797  18.723  0.00  0.00    +0.000 A 
ATOM     18  C   UNL     1       1.733   2.653  19.805  0.00  0.00    +0.000 A 
ATOM     19  C   UNL     1       2.052   4.011  19.600  0.00  0.00    +0.000 A 
BRANCH  19  20
ATOM     20  C   UNL     1       2.059   4.886  20.834  0.00  0.00    +0.000 C 
ATOM     21  F   UNL     1       3.003   5.856  20.884  0.00  0.00    +0.000 F 
ATOM     22  F   UNL     1       0.871   5.553  20.962  0.00  0.00    +0.000 F 
ATOM     23  F   UNL     1       2.186   4.157  21.977  0.00  0.00    +0.000 F 
ENDBRANCH  19  20
ENDBRANCH   5  14
TORSDOF 3
ENDMDL
