MODEL 1
REMARK VINA RESULT:      -6.7      0.000      0.000
REMARK  Name = 
REMARK  5 active torsions:
REMARK  status: ('A' for Active; 'I' for Inactive)
REMARK    1  A    between atoms: C_2  and  S_3
REMARK    2  A    between atoms: S_3  and  C_4
REMARK    3  A    between atoms: C_4  and  N_19
REMARK    4  A    between atoms: N_10  and  C_11
REMARK    5  A    between atoms: C_11  and  C_12
REMARK                            x       y       z     vdW  Elec       q    Type
REMARK                         _______ _______ _______ _____ _____    ______ ____
ROOT
ATOM      1  C   UNL     1       3.157   3.387  18.358  0.00  0.00    +0.000 C 
ATOM      2  C   UNL     1       4.098   4.334  18.085  0.00  0.00    +0.000 C 
ATOM      3  N   UNL     1       5.434   3.986  17.859  0.00  0.00    +0.000 N 
ATOM      4  C   UNL     1       6.065   4.488  16.646  0.00  0.00    +0.000 C 
ATOM      5  C   UNL     1       5.938   5.997  16.619  0.00  0.00    +0.000 C 
ATOM      6  C   UNL     1       4.475   6.392  16.785  0.00  0.00    +0.000 C 
ATOM      7  N   UNL     1       3.833   5.713  17.939  0.00  0.00    +0.000 N 
ATOM      8  H   UNL     1       5.648   3.005  18.019  0.00  0.00    +0.000 HD
ENDROOT
BRANCH   1   9
ATOM      9  N   UNL     1       1.791   3.855  18.419  0.00  0.00    +0.000 N 
ATOM     10  O   UNL     1       1.221   4.069  17.337  0.00  0.00    +0.000 OA
ATOM     11  O   UNL     1       1.322   4.105  19.540  0.00  0.00    +0.000 OA
ENDBRANCH   1   9
BRANCH   1  12
ATOM     12  S   UNL     1       3.431   1.685  18.547  0.00  0.00    +0.000 S 
BRANCH  12  14
ATOM     13  N   UNL     1       5.005   1.744  20.919  0.00  0.00    +0.000 NA
ATOM     14  C   UNL     1       4.391   1.768  19.939  0.00  0.00    +0.000 C 
ENDBRANCH  12  14
ENDBRANCH   1  12
BRANCH   7  15
ATOM     15  C   UNL     1       3.707   6.551  19.167  0.00  0.00    +0.000 C 
BRANCH  15  16
ATOM     16  C   UNL     1       2.596   7.571  19.048  0.00  0.00    +0.000 A 
ATOM     17  C   UNL     1       2.327   8.241  17.851  0.00  0.00    +0.000 A 
ATOM     18  C   UNL     1       1.382   9.264  17.826  0.00  0.00    +0.000 A 
ATOM     19  C   UNL     1       0.734   9.578  19.006  0.00  0.00    +0.000 A 
ATOM     20 CL   UNL     1      -0.365  10.892  19.088  0.00  0.00    +0.000 Cl
ATOM     21  N   UNL     1       0.913   8.922  20.169  0.00  0.00    +0.000 NA
ATOM     22  C   UNL     1       1.828   7.928  20.155  0.00  0.00    +0.000 A 
ENDBRANCH  15  16
ENDBRANCH   7  15
TORSDOF 5
ENDMDL
MODEL 2
REMARK VINA RESULT:      -6.4      3.496      6.033
REMARK  Name = 
REMARK  5 active torsions:
REMARK  status: ('A' for Active; 'I' for Inactive)
REMARK    1  A    between atoms: C_2  and  S_3
REMARK    2  A    between atoms: S_3  and  C_4
REMARK    3  A    between atoms: C_4  and  N_19
REMARK    4  A    between atoms: N_10  and  C_11
REMARK    5  A    between atoms: C_11  and  C_12
REMARK                            x       y       z     vdW  Elec       q    Type
REMARK                         _______ _______ _______ _____ _____    ______ ____
ROOT
ATOM      1  C   UNL     1       2.513   6.730  19.569  0.00  0.00    +0.000 C 
ATOM      2  C   UNL     1       2.925   5.511  20.022  0.00  0.00    +0.000 C 
ATOM      3  N   UNL     1       2.597   5.066  21.307  0.00  0.00    +0.000 N 
ATOM      4  C   UNL     1       1.980   3.751  21.426  0.00  0.00    +0.000 C 
ATOM      5  C   UNL     1       2.880   2.729  20.764  0.00  0.00    +0.000 C 
ATOM      6  C   UNL     1       3.184   3.161  19.334  0.00  0.00    +0.000 C 
ATOM      7  N   UNL     1       3.645   4.570  19.254  0.00  0.00    +0.000 N 
ATOM      8  H   UNL     1       2.131   5.758  21.888  0.00  0.00    +0.000 HD
ENDROOT
BRANCH   1   9
ATOM      9  N   UNL     1       2.784   7.009  18.177  0.00  0.00    +0.000 N 
ATOM     10  O   UNL     1       2.089   6.413  17.339  0.00  0.00    +0.000 OA
ATOM     11  O   UNL     1       3.750   7.743  17.919  0.00  0.00    +0.000 OA
ENDBRANCH   1   9
BRANCH   1  12
ATOM     12  S   UNL     1       1.630   7.919  20.470  0.00  0.00    +0.000 S 
BRANCH  12  14
ATOM     13  N   UNL     1       1.087   9.779  18.385  0.00  0.00    +0.000 NA
ATOM     14  C   UNL     1       1.332   8.990  19.193  0.00  0.00    +0.000 C 
ENDBRANCH  12  14
ENDBRANCH   1  12
BRANCH   7  15
ATOM     15  C   UNL     1       5.121   4.738  19.116  0.00  0.00    +0.000 C 
BRANCH  15  16
ATOM     16  C   UNL     1       5.545   4.873  17.670  0.00  0.00    +0.000 A 
ATOM     17  C   UNL     1       4.887   4.198  16.637  0.00  0.00    +0.000 A 
ATOM     18  C   UNL     1       5.395   4.251  15.340  0.00  0.00    +0.000 A 
ATOM     19  C   UNL     1       6.547   4.984  15.124  0.00  0.00    +0.000 A 
ATOM     20 CL   UNL     1       7.298   5.015  13.583  0.00  0.00    +0.000 Cl
ATOM     21  N   UNL     1       7.181   5.701  16.072  0.00  0.00    +0.000 NA
ATOM     22  C   UNL     1       6.655   5.638  17.315  0.00  0.00    +0.000 A 
ENDBRANCH  15  16
ENDBRANCH   7  15
TORSDOF 5
ENDMDL
MODEL 3
REMARK VINA RESULT:      -6.2      0.681      1.283
REMARK  Name = 
REMARK  5 active torsions:
REMARK  status: ('A' for Active; 'I' for Inactive)
REMARK    1  A    between atoms: C_2  and  S_3
REMARK    2  A    between atoms: S_3  and  C_4
REMARK    3  A    between atoms: C_4  and  N_19
REMARK    4  A    between atoms: N_10  and  C_11
REMARK    5  A    between atoms: C_11  and  C_12
REMARK                            x       y       z     vdW  Elec       q    Type
REMARK                         _______ _______ _______ _____ _____    ______ ____
ROOT
ATOM      1  C   UNL     1       3.033   3.468  18.184  0.00  0.00    +0.000 C 
ATOM      2  C   UNL     1       3.959   4.458  18.033  0.00  0.00    +0.000 C 
ATOM      3  N   UNL     1       5.310   4.162  17.823  0.00  0.00    +0.000 N 
ATOM      4  C   UNL     1       5.967   4.790  16.684  0.00  0.00    +0.000 C 
ATOM      5  C   UNL     1       5.802   6.291  16.794  0.00  0.00    +0.000 C 
ATOM      6  C   UNL     1       4.325   6.637  16.945  0.00  0.00    +0.000 C 
ATOM      7  N   UNL     1       3.663   5.838  18.007  0.00  0.00    +0.000 N 
ATOM      8  H   UNL     1       5.543   3.175  17.898  0.00  0.00    +0.000 HD
ENDROOT
BRANCH   1   9
ATOM      9  N   UNL     1       1.655   3.898  18.241  0.00  0.00    +0.000 N 
ATOM     10  O   UNL     1       1.127   3.947  19.363  0.00  0.00    +0.000 OA
ATOM     11  O   UNL     1       1.071   4.092  17.163  0.00  0.00    +0.000 OA
ENDBRANCH   1   9
BRANCH   1  12
ATOM     12  S   UNL     1       3.345   1.763  18.223  0.00  0.00    +0.000 S 
BRANCH  12  14
ATOM     13  N   UNL     1       4.942   1.822  20.579  0.00  0.00    +0.000 NA
ATOM     14  C   UNL     1       4.311   1.745  19.612  0.00  0.00    +0.000 C 
ENDBRANCH  12  14
ENDBRANCH   1  12
BRANCH   7  15
ATOM     15  C   UNL     1       3.476   6.554  19.303  0.00  0.00    +0.000 C 
BRANCH  15  16
ATOM     16  C   UNL     1       2.493   7.697  19.185  0.00  0.00    +0.000 A 
ATOM     17  C   UNL     1       1.745   8.150  20.276  0.00  0.00    +0.000 A 
ATOM     18  C   UNL     1       0.758   9.116  20.087  0.00  0.00    +0.000 A 
ATOM     19  C   UNL     1       0.559   9.599  18.807  0.00  0.00    +0.000 A 
ATOM     20 CL   UNL     1      -0.703  10.709  18.468  0.00  0.00    +0.000 Cl
ATOM     21  N   UNL     1       1.295   9.241  17.737  0.00  0.00    +0.000 NA
ATOM     22  C   UNL     1       2.251   8.312  17.957  0.00  0.00    +0.000 A 
ENDBRANCH  15  16
ENDBRANCH   7  15
TORSDOF 5
ENDMDL
MODEL 4
REMARK VINA RESULT:      -6.2      3.558      5.365
REMARK  Name = 
REMARK  5 active torsions:
REMARK  status: ('A' for Active; 'I' for Inactive)
REMARK    1  A    between atoms: C_2  and  S_3
REMARK    2  A    between atoms: S_3  and  C_4
REMARK    3  A    between atoms: C_4  and  N_19
REMARK    4  A    between atoms: N_10  and  C_11
REMARK    5  A    between atoms: C_11  and  C_12
REMARK                            x       y       z     vdW  Elec       q    Type
REMARK                         _______ _______ _______ _____ _____    ______ ____
ROOT
ATOM      1  C   UNL     1       3.441   2.593  19.165  0.00  0.00    +0.000 C 
ATOM      2  C   UNL     1       3.727   3.825  18.655  0.00  0.00    +0.000 C 
ATOM      3  N   UNL     1       2.993   4.357  17.590  0.00  0.00    +0.000 N 
ATOM      4  C   UNL     1       2.435   5.693  17.758  0.00  0.00    +0.000 C 
ATOM      5  C   UNL     1       3.557   6.648  18.110  0.00  0.00    +0.000 C 
ATOM      6  C   UNL     1       4.320   6.121  19.320  0.00  0.00    +0.000 C 
ATOM      7  N   UNL     1       4.712   4.697  19.166  0.00  0.00    +0.000 N 
ATOM      8  H   UNL     1       2.321   3.716  17.177  0.00  0.00    +0.000 HD
ENDROOT
BRANCH   1   9
ATOM      9  N   UNL     1       4.167   2.221  20.358  0.00  0.00    +0.000 N 
ATOM     10  O   UNL     1       5.226   1.593  20.199  0.00  0.00    +0.000 OA
ATOM     11  O   UNL     1       3.633   2.466  21.451  0.00  0.00    +0.000 OA
ENDBRANCH   1   9
BRANCH   1  12
ATOM     12  S   UNL     1       2.244   1.486  18.575  0.00  0.00    +0.000 S 
BRANCH  12  14
ATOM     13  N   UNL     1      -0.100   2.916  19.326  0.00  0.00    +0.000 NA
ATOM     14  C   UNL     1       0.877   2.384  19.008  0.00  0.00    +0.000 C 
ENDBRANCH  12  14
ENDBRANCH   1  12
BRANCH   7  15
ATOM     15  C   UNL     1       6.134   4.480  18.769  0.00  0.00    +0.000 C 
BRANCH  15  16
ATOM     16  C   UNL     1       6.340   4.644  17.279  0.00  0.00    +0.000 A 
ATOM     17  C   UNL     1       5.827   3.729  16.354  0.00  0.00    +0.000 A 
ATOM     18  C   UNL     1       6.154   3.850  15.005  0.00  0.00    +0.000 A 
ATOM     19  C   UNL     1       6.984   4.890  14.629  0.00  0.00    +0.000 A 
ATOM     20 CL   UNL     1       7.521   5.051  13.009  0.00  0.00    +0.000 Cl
ATOM     21  N   UNL     1       7.453   5.831  15.472  0.00  0.00    +0.000 NA
ATOM     22  C   UNL     1       7.106   5.691  16.770  0.00  0.00    +0.000 A 
ENDBRANCH  15  16
ENDBRANCH   7  15
TORSDOF 5
ENDMDL
MODEL 5
REMARK VINA RESULT:      -6.2      3.637      5.636
REMARK  Name = 
REMARK  5 active torsions:
REMARK  status: ('A' for Active; 'I' for Inactive)
REMARK    1  A    between atoms: C_2  and  S_3
REMARK    2  A    between atoms: S_3  and  C_4
REMARK    3  A    between atoms: C_4  and  N_19
REMARK    4  A    between atoms: N_10  and  C_11
REMARK    5  A    between atoms: C_11  and  C_12
REMARK                            x       y       z     vdW  Elec       q    Type
REMARK                         _______ _______ _______ _____ _____    ______ ____
ROOT
ATOM      1  C   UNL     1       2.855   2.896  18.931  0.00  0.00    +0.000 C 
ATOM      2  C   UNL     1       3.175   3.936  18.110  0.00  0.00    +0.000 C 
ATOM      3  N   UNL     1       2.274   4.981  17.877  0.00  0.00    +0.000 N 
ATOM      4  C   UNL     1       2.754   6.342  18.083  0.00  0.00    +0.000 C 
ATOM      5  C   UNL     1       3.988   6.556  17.232  0.00  0.00    +0.000 C 
ATOM      6  C   UNL     1       5.014   5.469  17.531  0.00  0.00    +0.000 C 
ATOM      7  N   UNL     1       4.426   4.106  17.478  0.00  0.00    +0.000 N 
ATOM      8  H   UNL     1       1.351   4.840  18.279  0.00  0.00    +0.000 HD
ENDROOT
BRANCH   1   9
ATOM      9  N   UNL     1       3.922   1.962  19.210  0.00  0.00    +0.000 N 
ATOM     10  O   UNL     1       4.811   2.342  19.990  0.00  0.00    +0.000 OA
ATOM     11  O   UNL     1       3.927   0.894  18.579  0.00  0.00    +0.000 OA
ENDBRANCH   1   9
BRANCH   1  12
ATOM     12  S   UNL     1       1.336   2.641  19.727  0.00  0.00    +0.000 S 
BRANCH  12  14
ATOM     13  N   UNL     1       2.225   3.221  22.369  0.00  0.00    +0.000 NA
ATOM     14  C   UNL     1       1.863   2.930  21.310  0.00  0.00    +0.000 C 
ENDBRANCH  12  14
ENDBRANCH   1  12
BRANCH   7  15
ATOM     15  C   UNL     1       4.699   3.356  16.218  0.00  0.00    +0.000 C 
BRANCH  15  16
ATOM     16  C   UNL     1       5.665   4.092  15.316  0.00  0.00    +0.000 A 
ATOM     17  C   UNL     1       5.498   4.136  13.928  0.00  0.00    +0.000 A 
ATOM     18  C   UNL     1       6.484   4.714  13.129  0.00  0.00    +0.000 A 
ATOM     19  C   UNL     1       7.603   5.233  13.753  0.00  0.00    +0.000 A 
ATOM     20 CL   UNL     1       8.910   5.865  12.841  0.00  0.00    +0.000 Cl
ATOM     21  N   UNL     1       7.781   5.270  15.088  0.00  0.00    +0.000 NA
ATOM     22  C   UNL     1       6.800   4.712  15.833  0.00  0.00    +0.000 A 
ENDBRANCH  15  16
ENDBRANCH   7  15
TORSDOF 5
ENDMDL
MODEL 6
REMARK VINA RESULT:      -6.1      3.464      6.102
REMARK  Name = 
REMARK  5 active torsions:
REMARK  status: ('A' for Active; 'I' for Inactive)
REMARK    1  A    between atoms: C_2  and  S_3
REMARK    2  A    between atoms: S_3  and  C_4
REMARK    3  A    between atoms: C_4  and  N_19
REMARK    4  A    between atoms: N_10  and  C_11
REMARK    5  A    between atoms: C_11  and  C_12
REMARK                            x       y       z     vdW  Elec       q    Type
REMARK                         _______ _______ _______ _____ _____    ______ ____
ROOT
ATOM      1  C   UNL     1       2.533   6.569  19.576  0.00  0.00    +0.000 C 
ATOM      2  C   UNL     1       2.929   5.371  20.093  0.00  0.00    +0.000 C 
ATOM      3  N   UNL     1       2.565   4.984  21.387  0.00  0.00    +0.000 N 
ATOM      4  C   UNL     1       1.941   3.677  21.548  0.00  0.00    +0.000 C 
ATOM      5  C   UNL     1       2.855   2.624  20.956  0.00  0.00    +0.000 C 
ATOM      6  C   UNL     1       3.198   2.991  19.517  0.00  0.00    +0.000 C 
ATOM      7  N   UNL     1       3.666   4.395  19.387  0.00  0.00    +0.000 N 
ATOM      8  H   UNL     1       2.085   5.701  21.924  0.00  0.00    +0.000 HD
ENDROOT
BRANCH   1   9
ATOM      9  N   UNL     1       2.842   6.786  18.181  0.00  0.00    +0.000 N 
ATOM     10  O   UNL     1       2.088   6.255  17.349  0.00  0.00    +0.000 OA
ATOM     11  O   UNL     1       3.887   7.399  17.916  0.00  0.00    +0.000 OA
ENDBRANCH   1   9
BRANCH   1  12
ATOM     12  S   UNL     1       1.630   7.799  20.399  0.00  0.00    +0.000 S 
BRANCH  12  14
ATOM     13  N   UNL     1       1.306   9.604  18.222  0.00  0.00    +0.000 NA
ATOM     14  C   UNL     1       1.494   8.880  19.103  0.00  0.00    +0.000 C 
ENDBRANCH  12  14
ENDBRANCH   1  12
BRANCH   7  15
ATOM     15  C   UNL     1       5.146   4.554  19.282  0.00  0.00    +0.000 C 
BRANCH  15  16
ATOM     16  C   UNL     1       5.633   4.405  17.858  0.00  0.00    +0.000 A 
ATOM     17  C   UNL     1       6.962   4.651  17.498  0.00  0.00    +0.000 A 
ATOM     18  C   UNL     1       7.332   4.629  16.154  0.00  0.00    +0.000 A 
ATOM     19  C   UNL     1       6.354   4.354  15.216  0.00  0.00    +0.000 A 
ATOM     20 CL   UNL     1       6.699   4.411  13.537  0.00  0.00    +0.000 Cl
ATOM     21  N   UNL     1       5.077   4.050  15.517  0.00  0.00    +0.000 NA
ATOM     22  C   UNL     1       4.755   4.069  16.829  0.00  0.00    +0.000 A 
ENDBRANCH  15  16
ENDBRANCH   7  15
TORSDOF 5
ENDMDL
MODEL 7
REMARK VINA RESULT:      -6.1      3.278      5.044
REMARK  Name = 
REMARK  5 active torsions:
REMARK  status: ('A' for Active; 'I' for Inactive)
REMARK    1  A    between atoms: C_2  and  S_3
REMARK    2  A    between atoms: S_3  and  C_4
REMARK    3  A    between atoms: C_4  and  N_19
REMARK    4  A    between atoms: N_10  and  C_11
REMARK    5  A    between atoms: C_11  and  C_12
REMARK                            x       y       z     vdW  Elec       q    Type
REMARK                         _______ _______ _______ _____ _____    ______ ____
ROOT
ATOM      1  C   UNL     1       3.509   2.910  19.098  0.00  0.00    +0.000 C 
ATOM      2  C   UNL     1       3.527   4.235  18.778  0.00  0.00    +0.000 C 
ATOM      3  N   UNL     1       2.865   4.716  17.643  0.00  0.00    +0.000 N 
ATOM      4  C   UNL     1       1.942   5.829  17.823  0.00  0.00    +0.000 C 
ATOM      5  C   UNL     1       2.682   6.973  18.484  0.00  0.00    +0.000 C 
ATOM      6  C   UNL     1       3.346   6.484  19.766  0.00  0.00    +0.000 C 
ATOM      7  N   UNL     1       4.134   5.243  19.558  0.00  0.00    +0.000 N 
ATOM      8  H   UNL     1       2.474   3.993  17.044  0.00  0.00    +0.000 HD
ENDROOT
BRANCH   1   9
ATOM      9  N   UNL     1       4.097   2.562  20.372  0.00  0.00    +0.000 N 
ATOM     10  O   UNL     1       5.238   2.073  20.349  0.00  0.00    +0.000 OA
ATOM     11  O   UNL     1       3.387   2.684  21.382  0.00  0.00    +0.000 OA
ENDBRANCH   1   9
BRANCH   1  12
ATOM     12  S   UNL     1       2.779   1.636  18.176  0.00  0.00    +0.000 S 
BRANCH  12  14
ATOM     13  N   UNL     1       0.077   2.236  18.842  0.00  0.00    +0.000 NA
ATOM     14  C   UNL     1       1.171   1.945  18.603  0.00  0.00    +0.000 C 
ENDBRANCH  12  14
ENDBRANCH   1  12
BRANCH   7  15
ATOM     15  C   UNL     1       5.607   5.451  19.436  0.00  0.00    +0.000 C 
BRANCH  15  16
ATOM     16  C   UNL     1       6.066   5.439  17.994  0.00  0.00    +0.000 A 
ATOM     17  C   UNL     1       5.569   6.342  17.049  0.00  0.00    +0.000 A 
ATOM     18  C   UNL     1       5.923   6.206  15.708  0.00  0.00    +0.000 A 
ATOM     19  C   UNL     1       6.768   5.168  15.361  0.00  0.00    +0.000 A 
ATOM     20 CL   UNL     1       7.169   4.864  13.722  0.00  0.00    +0.000 Cl
ATOM     21  N   UNL     1       7.321   4.311  16.242  0.00  0.00    +0.000 NA
ATOM     22  C   UNL     1       6.966   4.479  17.536  0.00  0.00    +0.000 A 
ENDBRANCH  15  16
ENDBRANCH   7  15
TORSDOF 5
ENDMDL
MODEL 8
REMARK VINA RESULT:      -6.1      3.987      6.112
REMARK  Name = 
REMARK  5 active torsions:
REMARK  status: ('A' for Active; 'I' for Inactive)
REMARK    1  A    between atoms: C_2  and  S_3
REMARK    2  A    between atoms: S_3  and  C_4
REMARK    3  A    between atoms: C_4  and  N_19
REMARK    4  A    between atoms: N_10  and  C_11
REMARK    5  A    between atoms: C_11  and  C_12
REMARK                            x       y       z     vdW  Elec       q    Type
REMARK                         _______ _______ _______ _____ _____    ______ ____
ROOT
ATOM      1  C   UNL     1       3.800   4.217  18.610  0.00  0.00    +0.000 C 
ATOM      2  C   UNL     1       4.977   4.853  18.344  0.00  0.00    +0.000 C 
ATOM      3  N   UNL     1       5.594   5.666  19.300  0.00  0.00    +0.000 N 
ATOM      4  C   UNL     1       6.995   5.404  19.602  0.00  0.00    +0.000 C 
ATOM      5  C   UNL     1       7.791   5.464  18.315  0.00  0.00    +0.000 C 
ATOM      6  C   UNL     1       7.176   4.522  17.286  0.00  0.00    +0.000 C 
ATOM      7  N   UNL     1       5.711   4.717  17.146  0.00  0.00    +0.000 N 
ATOM      8  H   UNL     1       5.047   5.818  20.143  0.00  0.00    +0.000 HD
ENDROOT
BRANCH   1   9
ATOM      9  N   UNL     1       3.344   3.288  17.601  0.00  0.00    +0.000 N 
ATOM     10  O   UNL     1       2.372   3.639  16.912  0.00  0.00    +0.000 OA
ATOM     11  O   UNL     1       3.888   2.174  17.562  0.00  0.00    +0.000 OA
ENDBRANCH   1   9
BRANCH   1  12
ATOM     12  S   UNL     1       2.861   4.351  20.061  0.00  0.00    +0.000 S 
BRANCH  12  14
ATOM     13  N   UNL     1       2.176   7.095  19.735  0.00  0.00    +0.000 NA
ATOM     14  C   UNL     1       2.400   5.970  19.880  0.00  0.00    +0.000 C 
ENDBRANCH  12  14
ENDBRANCH   1  12
BRANCH   7  15
ATOM     15  C   UNL     1       5.298   5.521  15.958  0.00  0.00    +0.000 C 
BRANCH  15  16
ATOM     16  C   UNL     1       5.712   4.868  14.658  0.00  0.00    +0.000 A 
ATOM     17  C   UNL     1       4.881   3.970  13.980  0.00  0.00    +0.000 A 
ATOM     18  C   UNL     1       5.359   3.295  12.858  0.00  0.00    +0.000 A 
ATOM     19  C   UNL     1       6.655   3.549  12.451  0.00  0.00    +0.000 A 
ATOM     20 CL   UNL     1       7.358   2.686  11.146  0.00  0.00    +0.000 Cl
ATOM     21  N   UNL     1       7.472   4.450  13.032  0.00  0.00    +0.000 NA
ATOM     22  C   UNL     1       6.973   5.095  14.110  0.00  0.00    +0.000 A 
ENDBRANCH  15  16
ENDBRANCH   7  15
TORSDOF 5
ENDMDL
MODEL 9
REMARK VINA RESULT:      -6.1      2.494      3.855
REMARK  Name = 
REMARK  5 active torsions:
REMARK  status: ('A' for Active; 'I' for Inactive)
REMARK    1  A    between atoms: C_2  and  S_3
REMARK    2  A    between atoms: S_3  and  C_4
REMARK    3  A    between atoms: C_4  and  N_19
REMARK    4  A    between atoms: N_10  and  C_11
REMARK    5  A    between atoms: C_11  and  C_12
REMARK                            x       y       z     vdW  Elec       q    Type
REMARK                         _______ _______ _______ _____ _____    ______ ____
ROOT
ATOM      1  C   UNL     1       5.684   4.604  17.722  0.00  0.00    +0.000 C 
ATOM      2  C   UNL     1       4.530   3.888  17.842  0.00  0.00    +0.000 C 
ATOM      3  N   UNL     1       4.412   2.606  17.295  0.00  0.00    +0.000 N 
ATOM      4  C   UNL     1       3.951   1.539  18.174  0.00  0.00    +0.000 C 
ATOM      5  C   UNL     1       2.622   1.943  18.776  0.00  0.00    +0.000 C 
ATOM      6  C   UNL     1       2.754   3.306  19.446  0.00  0.00    +0.000 C 
ATOM      7  N   UNL     1       3.391   4.313  18.560  0.00  0.00    +0.000 N 
ATOM      8  H   UNL     1       5.203   2.314  16.727  0.00  0.00    +0.000 HD
ENDROOT
BRANCH   1   9
ATOM      9  N   UNL     1       5.734   5.846  18.459  0.00  0.00    +0.000 N 
ATOM     10  O   UNL     1       5.553   6.891  17.813  0.00  0.00    +0.000 OA
ATOM     11  O   UNL     1       6.050   5.788  19.657  0.00  0.00    +0.000 OA
ENDBRANCH   1   9
BRANCH   1  12
ATOM     12  S   UNL     1       7.107   4.128  16.852  0.00  0.00    +0.000 S 
BRANCH  12  14
ATOM     13  N   UNL     1       6.562   5.442  14.386  0.00  0.00    +0.000 NA
ATOM     14  C   UNL     1       6.733   4.883  15.384  0.00  0.00    +0.000 C 
ENDBRANCH  12  14
ENDBRANCH   1  12
BRANCH   7  15
ATOM     15  C   UNL     1       2.441   5.256  17.901  0.00  0.00    +0.000 C 
BRANCH  15  16
ATOM     16  C   UNL     1       2.186   6.486  18.744  0.00  0.00    +0.000 A 
ATOM     17  C   UNL     1       1.930   6.406  20.117  0.00  0.00    +0.000 A 
ATOM     18  C   UNL     1       1.571   7.553  20.823  0.00  0.00    +0.000 A 
ATOM     19  C   UNL     1       1.485   8.744  20.126  0.00  0.00    +0.000 A 
ATOM     20 CL   UNL     1       0.948  10.180  20.894  0.00  0.00    +0.000 Cl
ATOM     21  N   UNL     1       1.781   8.884  18.819  0.00  0.00    +0.000 NA
ATOM     22  C   UNL     1       2.137   7.754  18.168  0.00  0.00    +0.000 A 
ENDBRANCH  15  16
ENDBRANCH   7  15
TORSDOF 5
ENDMDL
