MODEL 1
REMARK VINA RESULT:      -7.2      0.000      0.000
REMARK  Name = 
REMARK  14 active torsions:
REMARK  status: ('A' for Active; 'I' for Inactive)
REMARK    1  A    between atoms: C_1  and  C_2
REMARK    2  A    between atoms: C_2  and  C_3
REMARK    3  A    between atoms: C_3  and  O_4
REMARK    4  A    between atoms: O_4  and  C_5
REMARK    5  A    between atoms: C_5  and  C_6
REMARK    6  A    between atoms: C_6  and  C_7
REMARK    7  A    between atoms: C_6  and  C_13
REMARK    8  A    between atoms: C_6  and  C_19
REMARK    9  A    between atoms: C_19  and  O_20
REMARK   10  A    between atoms: C_19  and  C_29
REMARK   11  A    between atoms: O_20  and  C_21
REMARK   12  A    between atoms: C_23  and  C_24
REMARK   13  A    between atoms: C_26  and  C_27
REMARK   14  A    between atoms: C_29  and  O_31
REMARK                            x       y       z     vdW  Elec       q    Type
REMARK                         _______ _______ _______ _____ _____    ______ ____
ROOT
ATOM      1  C   UNL     1       4.458   5.459  18.115  0.00  0.00    +0.000 C 
ENDROOT
BRANCH   1   2
ATOM      2  C   UNL     1       3.384   6.589  18.399  0.00  0.00    +0.000 A 
ATOM      3  C   UNL     1       3.102   7.610  17.465  0.00  0.00    +0.000 A 
ATOM      4  C   UNL     1       2.205   8.657  17.729  0.00  0.00    +0.000 A 
ATOM      5  C   UNL     1       1.548   8.726  18.947  0.00  0.00    +0.000 A 
ATOM      6  C   UNL     1       1.798   7.748  19.895  0.00  0.00    +0.000 A 
ATOM      7  C   UNL     1       2.707   6.711  19.629  0.00  0.00    +0.000 A 
ENDBRANCH   1   2
BRANCH   1   8
ATOM      8  C   UNL     1       5.948   6.015  18.100  0.00  0.00    +0.000 A 
ATOM      9  C   UNL     1       6.930   5.583  19.006  0.00  0.00    +0.000 A 
ATOM     10  C   UNL     1       8.113   6.317  19.203  0.00  0.00    +0.000 A 
ATOM     11  C   UNL     1       8.388   7.457  18.453  0.00  0.00    +0.000 A 
ATOM     12  C   UNL     1       7.492   7.852  17.478  0.00  0.00    +0.000 A 
ATOM     13  C   UNL     1       6.299   7.146  17.312  0.00  0.00    +0.000 A 
ENDBRANCH   1   8
BRANCH   1  14
ATOM     14  C   UNL     1       4.451   4.488  19.375  0.00  0.00    +0.000 C 
BRANCH  14  15
ATOM     15  O   UNL     1       4.225   3.086  19.155  0.00  0.00    +0.000 OA
BRANCH  15  16
ATOM     16  C   UNL     1       3.651   2.548  20.366  0.00  0.00    +0.000 C 
BRANCH  16  18
ATOM     17  C   UNL     1       1.388   3.504  20.972  0.00  0.00    +0.000 C 
ATOM     18  C   UNL     1       2.147   2.379  20.286  0.00  0.00    +0.000 C 
ENDBRANCH  16  18
ENDBRANCH  15  16
ENDBRANCH  14  15
ENDBRANCH   1  14
BRANCH   1  19
ATOM     19  C   UNL     1       4.066   4.558  16.823  0.00  0.00    +0.000 C 
BRANCH  19  20
ATOM     20  C   UNL     1       2.764   3.719  17.018  0.00  0.00    +0.000 C 
ATOM     21  O   UNL     1       1.650   4.164  17.252  0.00  0.00    +0.000 OA
BRANCH  20  22
ATOM     22  O   UNL     1       2.920   2.376  16.900  0.00  0.00    +0.000 OA
ATOM     23  H   UNL     1       2.474   2.010  16.107  0.00  0.00    +0.000 HD
ENDBRANCH  20  22
ENDBRANCH  19  20
BRANCH  19  24
ATOM     24  O   UNL     1       5.160   3.687  16.384  0.00  0.00    +0.000 OA
BRANCH  24  25
ATOM     25  C   UNL     1       5.631   3.951  15.102  0.00  0.00    +0.000 A 
ATOM     26  N   UNL     1       4.947   3.411  14.075  0.00  0.00    +0.000 NA
ATOM     27  C   UNL     1       5.387   3.667  12.824  0.00  0.00    +0.000 A 
ATOM     28  C   UNL     1       4.545   3.152  11.698  0.00  0.00    +0.000 C 
ATOM     29  C   UNL     1       6.556   4.353  12.590  0.00  0.00    +0.000 A 
ATOM     30  C   UNL     1       7.229   4.823  13.703  0.00  0.00    +0.000 A 
ATOM     31  C   UNL     1       8.502   5.605  13.504  0.00  0.00    +0.000 C 
ATOM     32  N   UNL     1       6.775   4.637  14.972  0.00  0.00    +0.000 NA
ENDBRANCH  24  25
ENDBRANCH  19  24
ENDBRANCH   1  19
TORSDOF 11
ENDMDL
MODEL 2
REMARK VINA RESULT:      -7.1      0.345      1.782
REMARK  Name = 
REMARK  14 active torsions:
REMARK  status: ('A' for Active; 'I' for Inactive)
REMARK    1  A    between atoms: C_1  and  C_2
REMARK    2  A    between atoms: C_2  and  C_3
REMARK    3  A    between atoms: C_3  and  O_4
REMARK    4  A    between atoms: O_4  and  C_5
REMARK    5  A    between atoms: C_5  and  C_6
REMARK    6  A    between atoms: C_6  and  C_7
REMARK    7  A    between atoms: C_6  and  C_13
REMARK    8  A    between atoms: C_6  and  C_19
REMARK    9  A    between atoms: C_19  and  O_20
REMARK   10  A    between atoms: C_19  and  C_29
REMARK   11  A    between atoms: O_20  and  C_21
REMARK   12  A    between atoms: C_23  and  C_24
REMARK   13  A    between atoms: C_26  and  C_27
REMARK   14  A    between atoms: C_29  and  O_31
REMARK                            x       y       z     vdW  Elec       q    Type
REMARK                         _______ _______ _______ _____ _____    ______ ____
ROOT
ATOM      1  C   UNL     1       4.376   5.458  18.230  0.00  0.00    +0.000 C 
ENDROOT
BRANCH   1   2
ATOM      2  C   UNL     1       3.372   6.661  18.466  0.00  0.00    +0.000 A 
ATOM      3  C   UNL     1       2.634   6.801  19.662  0.00  0.00    +0.000 A 
ATOM      4  C   UNL     1       1.691   7.821  19.860  0.00  0.00    +0.000 A 
ATOM      5  C   UNL     1       1.444   8.750  18.862  0.00  0.00    +0.000 A 
ATOM      6  C   UNL     1       2.141   8.648  17.669  0.00  0.00    +0.000 A 
ATOM      7  C   UNL     1       3.075   7.618  17.474  0.00  0.00    +0.000 A 
ENDBRANCH   1   2
BRANCH   1   8
ATOM      8  C   UNL     1       5.899   5.919  18.231  0.00  0.00    +0.000 A 
ATOM      9  C   UNL     1       6.828   5.471  19.183  0.00  0.00    +0.000 A 
ATOM     10  C   UNL     1       8.051   6.138  19.377  0.00  0.00    +0.000 A 
ATOM     11  C   UNL     1       8.416   7.220  18.582  0.00  0.00    +0.000 A 
ATOM     12  C   UNL     1       7.572   7.622  17.564  0.00  0.00    +0.000 A 
ATOM     13  C   UNL     1       6.341   6.986  17.399  0.00  0.00    +0.000 A 
ENDBRANCH   1   8
BRANCH   1  14
ATOM     14  C   UNL     1       4.285   4.523  19.514  0.00  0.00    +0.000 C 
BRANCH  14  15
ATOM     15  O   UNL     1       4.592   3.127  19.364  0.00  0.00    +0.000 OA
BRANCH  15  16
ATOM     16  C   UNL     1       3.849   2.414  20.377  0.00  0.00    +0.000 C 
BRANCH  16  18
ATOM     17  C   UNL     1       1.342   2.725  20.518  0.00  0.00    +0.000 C 
ATOM     18  C   UNL     1       2.709   3.224  20.959  0.00  0.00    +0.000 C 
ENDBRANCH  16  18
ENDBRANCH  15  16
ENDBRANCH  14  15
ENDBRANCH   1  14
BRANCH   1  19
ATOM     19  C   UNL     1       3.951   4.550  16.954  0.00  0.00    +0.000 C 
BRANCH  19  20
ATOM     20  C   UNL     1       2.619   3.764  17.163  0.00  0.00    +0.000 C 
ATOM     21  O   UNL     1       1.504   4.253  17.268  0.00  0.00    +0.000 OA
BRANCH  20  22
ATOM     22  O   UNL     1       2.749   2.414  17.219  0.00  0.00    +0.000 OA
ATOM     23  H   UNL     1       3.188   2.108  18.041  0.00  0.00    +0.000 HD
ENDBRANCH  20  22
ENDBRANCH  19  20
BRANCH  19  24
ATOM     24  O   UNL     1       5.011   3.632  16.530  0.00  0.00    +0.000 OA
BRANCH  24  25
ATOM     25  C   UNL     1       5.498   3.862  15.247  0.00  0.00    +0.000 A 
ATOM     26  N   UNL     1       6.617   4.605  15.141  0.00  0.00    +0.000 NA
ATOM     27  C   UNL     1       7.106   4.829  13.903  0.00  0.00    +0.000 A 
ATOM     28  C   UNL     1       8.411   5.558  13.818  0.00  0.00    +0.000 C 
ATOM     29  C   UNL     1       6.437   4.422  12.771  0.00  0.00    +0.000 A 
ATOM     30  C   UNL     1       5.264   3.716  12.968  0.00  0.00    +0.000 A 
ATOM     31  C   UNL     1       4.504   3.223  11.764  0.00  0.00    +0.000 C 
ATOM     32  N   UNL     1       4.782   3.419  14.204  0.00  0.00    +0.000 NA
ENDBRANCH  24  25
ENDBRANCH  19  24
ENDBRANCH   1  19
TORSDOF 11
ENDMDL
MODEL 3
REMARK VINA RESULT:      -7.0      0.984      4.070
REMARK  Name = 
REMARK  14 active torsions:
REMARK  status: ('A' for Active; 'I' for Inactive)
REMARK    1  A    between atoms: C_1  and  C_2
REMARK    2  A    between atoms: C_2  and  C_3
REMARK    3  A    between atoms: C_3  and  O_4
REMARK    4  A    between atoms: O_4  and  C_5
REMARK    5  A    between atoms: C_5  and  C_6
REMARK    6  A    between atoms: C_6  and  C_7
REMARK    7  A    between atoms: C_6  and  C_13
REMARK    8  A    between atoms: C_6  and  C_19
REMARK    9  A    between atoms: C_19  and  O_20
REMARK   10  A    between atoms: C_19  and  C_29
REMARK   11  A    between atoms: O_20  and  C_21
REMARK   12  A    between atoms: C_23  and  C_24
REMARK   13  A    between atoms: C_26  and  C_27
REMARK   14  A    between atoms: C_29  and  O_31
REMARK                            x       y       z     vdW  Elec       q    Type
REMARK                         _______ _______ _______ _____ _____    ______ ____
ROOT
ATOM      1  C   UNL     1       4.285   5.243  17.977  0.00  0.00    +0.000 C 
ENDROOT
BRANCH   1   2
ATOM      2  C   UNL     1       5.688   5.943  18.207  0.00  0.00    +0.000 A 
ATOM      3  C   UNL     1       6.138   7.011  17.398  0.00  0.00    +0.000 A 
ATOM      4  C   UNL     1       7.405   7.596  17.545  0.00  0.00    +0.000 A 
ATOM      5  C   UNL     1       8.281   7.135  18.514  0.00  0.00    +0.000 A 
ATOM      6  C   UNL     1       7.884   6.086  19.327  0.00  0.00    +0.000 A 
ATOM      7  C   UNL     1       6.620   5.497  19.166  0.00  0.00    +0.000 A 
ENDBRANCH   1   2
BRANCH   1   8
ATOM      8  C   UNL     1       3.658   4.665  19.320  0.00  0.00    +0.000 A 
ATOM      9  C   UNL     1       4.125   3.493  19.934  0.00  0.00    +0.000 A 
ATOM     10  C   UNL     1       3.357   2.821  20.900  0.00  0.00    +0.000 A 
ATOM     11  C   UNL     1       2.139   3.334  21.337  0.00  0.00    +0.000 A 
ATOM     12  C   UNL     1       1.697   4.542  20.831  0.00  0.00    +0.000 A 
ATOM     13  C   UNL     1       2.442   5.187  19.842  0.00  0.00    +0.000 A 
ENDBRANCH   1   8
BRANCH   1  14
ATOM     14  C   UNL     1       3.260   6.389  17.567  0.00  0.00    +0.000 C 
BRANCH  14  15
ATOM     15  O   UNL     1       3.140   7.536  18.424  0.00  0.00    +0.000 OA
BRANCH  15  16
ATOM     16  C   UNL     1       2.355   8.520  17.716  0.00  0.00    +0.000 C 
BRANCH  16  18
ATOM     17  C   UNL     1       1.355   8.737  20.030  0.00  0.00    +0.000 C 
ATOM     18  C   UNL     1       1.435   9.311  18.624  0.00  0.00    +0.000 C 
ENDBRANCH  16  18
ENDBRANCH  15  16
ENDBRANCH  14  15
ENDBRANCH   1  14
BRANCH   1  19
ATOM     19  C   UNL     1       4.327   4.186  16.747  0.00  0.00    +0.000 C 
BRANCH  19  20
ATOM     20  C   UNL     1       3.428   2.930  16.971  0.00  0.00    +0.000 C 
ATOM     21  O   UNL     1       2.210   2.891  16.883  0.00  0.00    +0.000 OA
BRANCH  20  22
ATOM     22  O   UNL     1       4.097   1.791  17.284  0.00  0.00    +0.000 OA
ATOM     23  H   UNL     1       3.508   1.009  17.341  0.00  0.00    +0.000 HD
ENDBRANCH  20  22
ENDBRANCH  19  20
BRANCH  19  24
ATOM     24  O   UNL     1       5.688   3.771  16.398  0.00  0.00    +0.000 OA
BRANCH  24  25
ATOM     25  C   UNL     1       6.051   4.025  15.080  0.00  0.00    +0.000 A 
ATOM     26  N   UNL     1       5.322   3.428  14.118  0.00  0.00    +0.000 NA
ATOM     27  C   UNL     1       5.656   3.673  12.833  0.00  0.00    +0.000 A 
ATOM     28  C   UNL     1       4.762   3.091  11.783  0.00  0.00    +0.000 C 
ATOM     29  C   UNL     1       6.771   4.408  12.499  0.00  0.00    +0.000 A 
ATOM     30  C   UNL     1       7.499   4.937  13.548  0.00  0.00    +0.000 A 
ATOM     31  C   UNL     1       8.714   5.772  13.240  0.00  0.00    +0.000 C 
ATOM     32  N   UNL     1       7.148   4.761  14.851  0.00  0.00    +0.000 NA
ENDBRANCH  24  25
ENDBRANCH  19  24
ENDBRANCH   1  19
TORSDOF 11
ENDMDL
MODEL 4
REMARK VINA RESULT:      -6.9      0.291      1.074
REMARK  Name = 
REMARK  14 active torsions:
REMARK  status: ('A' for Active; 'I' for Inactive)
REMARK    1  A    between atoms: C_1  and  C_2
REMARK    2  A    between atoms: C_2  and  C_3
REMARK    3  A    between atoms: C_3  and  O_4
REMARK    4  A    between atoms: O_4  and  C_5
REMARK    5  A    between atoms: C_5  and  C_6
REMARK    6  A    between atoms: C_6  and  C_7
REMARK    7  A    between atoms: C_6  and  C_13
REMARK    8  A    between atoms: C_6  and  C_19
REMARK    9  A    between atoms: C_19  and  O_20
REMARK   10  A    between atoms: C_19  and  C_29
REMARK   11  A    between atoms: O_20  and  C_21
REMARK   12  A    between atoms: C_23  and  C_24
REMARK   13  A    between atoms: C_26  and  C_27
REMARK   14  A    between atoms: C_29  and  O_31
REMARK                            x       y       z     vdW  Elec       q    Type
REMARK                         _______ _______ _______ _____ _____    ______ ____
ROOT
ATOM      1  C   UNL     1       4.454   5.484  18.145  0.00  0.00    +0.000 C 
ENDROOT
BRANCH   1   2
ATOM      2  C   UNL     1       3.415   6.646  18.429  0.00  0.00    +0.000 A 
ATOM      3  C   UNL     1       2.693   6.729  19.640  0.00  0.00    +0.000 A 
ATOM      4  C   UNL     1       1.720   7.712  19.880  0.00  0.00    +0.000 A 
ATOM      5  C   UNL     1       1.428   8.659  18.913  0.00  0.00    +0.000 A 
ATOM      6  C   UNL     1       2.109   8.613  17.707  0.00  0.00    +0.000 A 
ATOM      7  C   UNL     1       3.071   7.619  17.469  0.00  0.00    +0.000 A 
ENDBRANCH   1   2
BRANCH   1   8
ATOM      8  C   UNL     1       5.962   5.992  18.145  0.00  0.00    +0.000 A 
ATOM      9  C   UNL     1       6.913   5.546  19.076  0.00  0.00    +0.000 A 
ATOM     10  C   UNL     1       8.116   6.246  19.279  0.00  0.00    +0.000 A 
ATOM     11  C   UNL     1       8.440   7.361  18.512  0.00  0.00    +0.000 A 
ATOM     12  C   UNL     1       7.574   7.765  17.514  0.00  0.00    +0.000 A 
ATOM     13  C   UNL     1       6.362   7.095  17.341  0.00  0.00    +0.000 A 
ENDBRANCH   1   8
BRANCH   1  14
ATOM     14  C   UNL     1       4.405   4.505  19.398  0.00  0.00    +0.000 C 
BRANCH  14  15
ATOM     15  O   UNL     1       4.654   3.107  19.182  0.00  0.00    +0.000 OA
BRANCH  15  16
ATOM     16  C   UNL     1       3.983   2.383  20.236  0.00  0.00    +0.000 C 
BRANCH  16  18
ATOM     17  C   UNL     1       1.459   2.515  20.355  0.00  0.00    +0.000 C 
ATOM     18  C   UNL     1       2.782   3.122  20.793  0.00  0.00    +0.000 C 
ENDBRANCH  16  18
ENDBRANCH  15  16
ENDBRANCH  14  15
ENDBRANCH   1  14
BRANCH   1  19
ATOM     19  C   UNL     1       4.043   4.604  16.844  0.00  0.00    +0.000 C 
BRANCH  19  20
ATOM     20  C   UNL     1       2.727   3.787  17.032  0.00  0.00    +0.000 C 
ATOM     21  O   UNL     1       2.618   2.571  16.962  0.00  0.00    +0.000 OA
BRANCH  20  22
ATOM     22  O   UNL     1       1.623   4.527  17.306  0.00  0.00    +0.000 OA
ATOM     23  H   UNL     1       1.114   4.182  18.070  0.00  0.00    +0.000 HD
ENDBRANCH  20  22
ENDBRANCH  19  20
BRANCH  19  24
ATOM     24  O   UNL     1       5.120   3.719  16.392  0.00  0.00    +0.000 OA
BRANCH  24  25
ATOM     25  C   UNL     1       5.582   3.978  15.106  0.00  0.00    +0.000 A 
ATOM     26  N   UNL     1       4.879   3.450  14.086  0.00  0.00    +0.000 NA
ATOM     27  C   UNL     1       5.310   3.701  12.831  0.00  0.00    +0.000 A 
ATOM     28  C   UNL     1       4.450   3.201  11.712  0.00  0.00    +0.000 C 
ATOM     29  C   UNL     1       6.487   4.371  12.586  0.00  0.00    +0.000 A 
ATOM     30  C   UNL     1       7.178   4.830  13.692  0.00  0.00    +0.000 A 
ATOM     31  C   UNL     1       8.460   5.593  13.482  0.00  0.00    +0.000 C 
ATOM     32  N   UNL     1       6.734   4.648  14.966  0.00  0.00    +0.000 NA
ENDBRANCH  24  25
ENDBRANCH  19  24
ENDBRANCH   1  19
TORSDOF 11
ENDMDL
MODEL 5
REMARK VINA RESULT:      -6.8      1.066      4.442
REMARK  Name = 
REMARK  14 active torsions:
REMARK  status: ('A' for Active; 'I' for Inactive)
REMARK    1  A    between atoms: C_1  and  C_2
REMARK    2  A    between atoms: C_2  and  C_3
REMARK    3  A    between atoms: C_3  and  O_4
REMARK    4  A    between atoms: O_4  and  C_5
REMARK    5  A    between atoms: C_5  and  C_6
REMARK    6  A    between atoms: C_6  and  C_7
REMARK    7  A    between atoms: C_6  and  C_13
REMARK    8  A    between atoms: C_6  and  C_19
REMARK    9  A    between atoms: C_19  and  O_20
REMARK   10  A    between atoms: C_19  and  C_29
REMARK   11  A    between atoms: O_20  and  C_21
REMARK   12  A    between atoms: C_23  and  C_24
REMARK   13  A    between atoms: C_26  and  C_27
REMARK   14  A    between atoms: C_29  and  O_31
REMARK                            x       y       z     vdW  Elec       q    Type
REMARK                         _______ _______ _______ _____ _____    ______ ____
ROOT
ATOM      1  C   UNL     1       4.199   5.171  17.954  0.00  0.00    +0.000 C 
ENDROOT
BRANCH   1   2
ATOM      2  C   UNL     1       5.615   5.830  18.225  0.00  0.00    +0.000 A 
ATOM      3  C   UNL     1       6.144   6.843  17.395  0.00  0.00    +0.000 A 
ATOM      4  C   UNL     1       7.423   7.388  17.581  0.00  0.00    +0.000 A 
ATOM      5  C   UNL     1       8.232   6.941  18.612  0.00  0.00    +0.000 A 
ATOM      6  C   UNL     1       7.756   5.945  19.449  0.00  0.00    +0.000 A 
ATOM      7  C   UNL     1       6.480   5.395  19.249  0.00  0.00    +0.000 A 
ENDBRANCH   1   2
BRANCH   1   8
ATOM      8  C   UNL     1       3.501   4.644  19.283  0.00  0.00    +0.000 A 
ATOM      9  C   UNL     1       3.992   3.555  20.020  0.00  0.00    +0.000 A 
ATOM     10  C   UNL     1       3.191   2.898  20.970  0.00  0.00    +0.000 A 
ATOM     11  C   UNL     1       1.909   3.351  21.269  0.00  0.00    +0.000 A 
ATOM     12  C   UNL     1       1.432   4.485  20.640  0.00  0.00    +0.000 A 
ATOM     13  C   UNL     1       2.213   5.111  19.666  0.00  0.00    +0.000 A 
ENDBRANCH   1   8
BRANCH   1  14
ATOM     14  C   UNL     1       3.230   6.339  17.479  0.00  0.00    +0.000 C 
BRANCH  14  15
ATOM     15  O   UNL     1       3.486   7.672  17.950  0.00  0.00    +0.000 OA
BRANCH  15  16
ATOM     16  C   UNL     1       2.264   8.159  18.546  0.00  0.00    +0.000 C 
BRANCH  16  18
ATOM     17  C   UNL     1       0.646  10.105  18.541  0.00  0.00    +0.000 C 
ATOM     18  C   UNL     1       1.591   9.240  17.722  0.00  0.00    +0.000 C 
ENDBRANCH  16  18
ENDBRANCH  15  16
ENDBRANCH  14  15
ENDBRANCH   1  14
BRANCH   1  19
ATOM     19  C   UNL     1       4.253   4.085  16.750  0.00  0.00    +0.000 C 
BRANCH  19  20
ATOM     20  C   UNL     1       3.395   2.810  17.019  0.00  0.00    +0.000 C 
ATOM     21  O   UNL     1       2.178   2.729  16.934  0.00  0.00    +0.000 OA
BRANCH  20  22
ATOM     22  O   UNL     1       4.099   1.704  17.369  0.00  0.00    +0.000 OA
ATOM     23  H   UNL     1       3.648   0.870  17.117  0.00  0.00    +0.000 HD
ENDBRANCH  20  22
ENDBRANCH  19  20
BRANCH  19  24
ATOM     24  O   UNL     1       5.621   3.700  16.391  0.00  0.00    +0.000 OA
BRANCH  24  25
ATOM     25  C   UNL     1       5.951   3.911  15.056  0.00  0.00    +0.000 A 
ATOM     26  N   UNL     1       7.021   4.690  14.806  0.00  0.00    +0.000 NA
ATOM     27  C   UNL     1       7.359   4.897  13.516  0.00  0.00    +0.000 A 
ATOM     28  C   UNL     1       8.617   5.670  13.266  0.00  0.00    +0.000 C 
ATOM     29  C   UNL     1       6.584   4.434  12.477  0.00  0.00    +0.000 A 
ATOM     30  C   UNL     1       5.469   3.692  12.822  0.00  0.00    +0.000 A 
ATOM     31  C   UNL     1       4.599   3.139  11.724  0.00  0.00    +0.000 C 
ATOM     32  N   UNL     1       5.140   3.413  14.112  0.00  0.00    +0.000 NA
ENDBRANCH  24  25
ENDBRANCH  19  24
ENDBRANCH   1  19
TORSDOF 11
ENDMDL
MODEL 6
REMARK VINA RESULT:      -6.7      2.911      6.767
REMARK  Name = 
REMARK  14 active torsions:
REMARK  status: ('A' for Active; 'I' for Inactive)
REMARK    1  A    between atoms: C_1  and  C_2
REMARK    2  A    between atoms: C_2  and  C_3
REMARK    3  A    between atoms: C_3  and  O_4
REMARK    4  A    between atoms: O_4  and  C_5
REMARK    5  A    between atoms: C_5  and  C_6
REMARK    6  A    between atoms: C_6  and  C_7
REMARK    7  A    between atoms: C_6  and  C_13
REMARK    8  A    between atoms: C_6  and  C_19
REMARK    9  A    between atoms: C_19  and  O_20
REMARK   10  A    between atoms: C_19  and  C_29
REMARK   11  A    between atoms: O_20  and  C_21
REMARK   12  A    between atoms: C_23  and  C_24
REMARK   13  A    between atoms: C_26  and  C_27
REMARK   14  A    between atoms: C_29  and  O_31
REMARK                            x       y       z     vdW  Elec       q    Type
REMARK                         _______ _______ _______ _____ _____    ______ ____
ROOT
ATOM      1  C   UNL     1       3.606   5.516  18.563  0.00  0.00    +0.000 C 
ENDROOT
BRANCH   1   2
ATOM      2  C   UNL     1       4.313   5.489  17.145  0.00  0.00    +0.000 A 
ATOM      3  C   UNL     1       4.669   4.280  16.506  0.00  0.00    +0.000 A 
ATOM      4  C   UNL     1       5.356   4.240  15.283  0.00  0.00    +0.000 A 
ATOM      5  C   UNL     1       5.718   5.414  14.644  0.00  0.00    +0.000 A 
ATOM      6  C   UNL     1       5.393   6.624  15.237  0.00  0.00    +0.000 A 
ATOM      7  C   UNL     1       4.717   6.656  16.467  0.00  0.00    +0.000 A 
ENDBRANCH   1   2
BRANCH   1   8
ATOM      8  C   UNL     1       2.658   4.261  18.803  0.00  0.00    +0.000 A 
ATOM      9  C   UNL     1       1.481   4.047  18.069  0.00  0.00    +0.000 A 
ATOM     10  C   UNL     1       0.497   3.148  18.517  0.00  0.00    +0.000 A 
ATOM     11  C   UNL     1       0.688   2.382  19.662  0.00  0.00    +0.000 A 
ATOM     12  C   UNL     1       1.882   2.489  20.352  0.00  0.00    +0.000 A 
ATOM     13  C   UNL     1       2.840   3.412  19.930  0.00  0.00    +0.000 A 
ENDBRANCH   1   8
BRANCH   1  14
ATOM     14  C   UNL     1       4.749   5.314  19.652  0.00  0.00    +0.000 C 
BRANCH  14  15
ATOM     15  O   UNL     1       5.950   4.628  19.261  0.00  0.00    +0.000 OA
BRANCH  15  16
ATOM     16  C   UNL     1       7.054   5.527  19.498  0.00  0.00    +0.000 C 
BRANCH  16  18
ATOM     17  C   UNL     1       7.839   7.423  18.018  0.00  0.00    +0.000 C 
ATOM     18  C   UNL     1       7.785   5.919  18.229  0.00  0.00    +0.000 C 
ENDBRANCH  16  18
ENDBRANCH  15  16
ENDBRANCH  14  15
ENDBRANCH   1  14
BRANCH   1  19
ATOM     19  C   UNL     1       2.912   6.950  18.871  0.00  0.00    +0.000 C 
BRANCH  19  20
ATOM     20  C   UNL     1       2.099   6.978  20.202  0.00  0.00    +0.000 C 
ATOM     21  O   UNL     1       1.545   6.023  20.728  0.00  0.00    +0.000 OA
BRANCH  20  22
ATOM     22  O   UNL     1       2.028   8.190  20.810  0.00  0.00    +0.000 OA
ATOM     23  H   UNL     1       1.124   8.570  20.793  0.00  0.00    +0.000 HD
ENDBRANCH  20  22
ENDBRANCH  19  20
BRANCH  19  24
ATOM     24  O   UNL     1       2.076   7.427  17.765  0.00  0.00    +0.000 OA
BRANCH  24  25
ATOM     25  C   UNL     1       1.565   8.709  17.937  0.00  0.00    +0.000 A 
ATOM     26  N   UNL     1       0.225   8.829  18.008  0.00  0.00    +0.000 NA
ATOM     27  C   UNL     1      -0.286  10.066  18.184  0.00  0.00    +0.000 A 
ATOM     28  C   UNL     1      -1.768  10.160  18.374  0.00  0.00    +0.000 C 
ATOM     29  C   UNL     1       0.509  11.189  18.177  0.00  0.00    +0.000 A 
ATOM     30  C   UNL     1       1.870  10.982  18.040  0.00  0.00    +0.000 A 
ATOM     31  C   UNL     1       2.789  12.175  18.052  0.00  0.00    +0.000 C 
ATOM     32  N   UNL     1       2.418   9.743  17.926  0.00  0.00    +0.000 NA
ENDBRANCH  24  25
ENDBRANCH  19  24
ENDBRANCH   1  19
TORSDOF 11
ENDMDL
MODEL 7
REMARK VINA RESULT:      -6.6      2.978      6.914
REMARK  Name = 
REMARK  14 active torsions:
REMARK  status: ('A' for Active; 'I' for Inactive)
REMARK    1  A    between atoms: C_1  and  C_2
REMARK    2  A    between atoms: C_2  and  C_3
REMARK    3  A    between atoms: C_3  and  O_4
REMARK    4  A    between atoms: O_4  and  C_5
REMARK    5  A    between atoms: C_5  and  C_6
REMARK    6  A    between atoms: C_6  and  C_7
REMARK    7  A    between atoms: C_6  and  C_13
REMARK    8  A    between atoms: C_6  and  C_19
REMARK    9  A    between atoms: C_19  and  O_20
REMARK   10  A    between atoms: C_19  and  C_29
REMARK   11  A    between atoms: O_20  and  C_21
REMARK   12  A    between atoms: C_23  and  C_24
REMARK   13  A    between atoms: C_26  and  C_27
REMARK   14  A    between atoms: C_29  and  O_31
REMARK                            x       y       z     vdW  Elec       q    Type
REMARK                         _______ _______ _______ _____ _____    ______ ____
ROOT
ATOM      1  C   UNL     1       3.553   5.665  18.637  0.00  0.00    +0.000 C 
ENDROOT
BRANCH   1   2
ATOM      2  C   UNL     1       4.242   5.558  17.215  0.00  0.00    +0.000 A 
ATOM      3  C   UNL     1       4.572   4.314  16.631  0.00  0.00    +0.000 A 
ATOM      4  C   UNL     1       5.244   4.204  15.404  0.00  0.00    +0.000 A 
ATOM      5  C   UNL     1       5.615   5.340  14.704  0.00  0.00    +0.000 A 
ATOM      6  C   UNL     1       5.316   6.582  15.241  0.00  0.00    +0.000 A 
ATOM      7  C   UNL     1       4.655   6.685  16.475  0.00  0.00    +0.000 A 
ENDBRANCH   1   2
BRANCH   1   8
ATOM      8  C   UNL     1       2.573   4.449  18.941  0.00  0.00    +0.000 A 
ATOM      9  C   UNL     1       2.848   3.476  19.915  0.00  0.00    +0.000 A 
ATOM     10  C   UNL     1       2.165   2.248  19.930  0.00  0.00    +0.000 A 
ATOM     11  C   UNL     1       1.140   1.981  19.028  0.00  0.00    +0.000 A 
ATOM     12  C   UNL     1       0.771   2.958  18.122  0.00  0.00    +0.000 A 
ATOM     13  C   UNL     1       1.477   4.161  18.081  0.00  0.00    +0.000 A 
ENDBRANCH   1   8
BRANCH   1  14
ATOM     14  C   UNL     1       4.702   5.479  19.722  0.00  0.00    +0.000 C 
BRANCH  14  15
ATOM     15  O   UNL     1       5.874   4.734  19.352  0.00  0.00    +0.000 OA
BRANCH  15  16
ATOM     16  C   UNL     1       7.013   5.598  19.556  0.00  0.00    +0.000 C 
BRANCH  16  18
ATOM     17  C   UNL     1       7.778   7.398  17.951  0.00  0.00    +0.000 C 
ATOM     18  C   UNL     1       7.758   5.912  18.274  0.00  0.00    +0.000 C 
ENDBRANCH  16  18
ENDBRANCH  15  16
ENDBRANCH  14  15
ENDBRANCH   1  14
BRANCH   1  19
ATOM     19  C   UNL     1       2.901   7.130  18.890  0.00  0.00    +0.000 C 
BRANCH  19  20
ATOM     20  C   UNL     1       2.067   7.225  20.206  0.00  0.00    +0.000 C 
ATOM     21  O   UNL     1       1.417   6.322  20.713  0.00  0.00    +0.000 OA
BRANCH  20  22
ATOM     22  O   UNL     1       2.095   8.434  20.821  0.00  0.00    +0.000 OA
ATOM     23  H   UNL     1       1.836   8.386  21.766  0.00  0.00    +0.000 HD
ENDBRANCH  20  22
ENDBRANCH  19  20
BRANCH  19  24
ATOM     24  O   UNL     1       2.101   7.600  17.756  0.00  0.00    +0.000 OA
BRANCH  24  25
ATOM     25  C   UNL     1       1.534   8.859  17.930  0.00  0.00    +0.000 A 
ATOM     26  N   UNL     1       2.380   9.905  18.004  0.00  0.00    +0.000 NA
ATOM     27  C   UNL     1       1.844  11.135  18.162  0.00  0.00    +0.000 A 
ATOM     28  C   UNL     1       2.795  12.291  18.126  0.00  0.00    +0.000 C 
ATOM     29  C   UNL     1       0.496  11.321  18.360  0.00  0.00    +0.000 A 
ATOM     30  C   UNL     1      -0.296  10.187  18.328  0.00  0.00    +0.000 A 
ATOM     31  C   UNL     1      -1.783  10.335  18.513  0.00  0.00    +0.000 C 
ATOM     32  N   UNL     1       0.208   8.943  18.105  0.00  0.00    +0.000 NA
ENDBRANCH  24  25
ENDBRANCH  19  24
ENDBRANCH   1  19
TORSDOF 11
ENDMDL
MODEL 8
REMARK VINA RESULT:      -6.5      1.021      4.477
REMARK  Name = 
REMARK  14 active torsions:
REMARK  status: ('A' for Active; 'I' for Inactive)
REMARK    1  A    between atoms: C_1  and  C_2
REMARK    2  A    between atoms: C_2  and  C_3
REMARK    3  A    between atoms: C_3  and  O_4
REMARK    4  A    between atoms: O_4  and  C_5
REMARK    5  A    between atoms: C_5  and  C_6
REMARK    6  A    between atoms: C_6  and  C_7
REMARK    7  A    between atoms: C_6  and  C_13
REMARK    8  A    between atoms: C_6  and  C_19
REMARK    9  A    between atoms: C_19  and  O_20
REMARK   10  A    between atoms: C_19  and  C_29
REMARK   11  A    between atoms: O_20  and  C_21
REMARK   12  A    between atoms: C_23  and  C_24
REMARK   13  A    between atoms: C_26  and  C_27
REMARK   14  A    between atoms: C_29  and  O_31
REMARK                            x       y       z     vdW  Elec       q    Type
REMARK                         _______ _______ _______ _____ _____    ______ ____
ROOT
ATOM      1  C   UNL     1       4.281   5.142  18.066  0.00  0.00    +0.000 C 
ENDROOT
BRANCH   1   2
ATOM      2  C   UNL     1       5.696   5.848  18.172  0.00  0.00    +0.000 A 
ATOM      3  C   UNL     1       6.645   5.485  19.153  0.00  0.00    +0.000 A 
ATOM      4  C   UNL     1       7.874   6.147  19.304  0.00  0.00    +0.000 A 
ATOM      5  C   UNL     1       8.206   7.205  18.475  0.00  0.00    +0.000 A 
ATOM      6  C   UNL     1       7.302   7.599  17.502  0.00  0.00    +0.000 A 
ATOM      7  C   UNL     1       6.070   6.941  17.365  0.00  0.00    +0.000 A 
ENDBRANCH   1   2
BRANCH   1   8
ATOM      8  C   UNL     1       3.840   4.440  19.424  0.00  0.00    +0.000 A 
ATOM      9  C   UNL     1       4.314   3.179  19.817  0.00  0.00    +0.000 A 
ATOM     10  C   UNL     1       3.666   2.437  20.820  0.00  0.00    +0.000 A 
ATOM     11  C   UNL     1       2.576   2.958  21.512  0.00  0.00    +0.000 A 
ATOM     12  C   UNL     1       2.148   4.240  21.224  0.00  0.00    +0.000 A 
ATOM     13  C   UNL     1       2.766   4.959  20.200  0.00  0.00    +0.000 A 
ENDBRANCH   1   8
BRANCH   1  14
ATOM     14  C   UNL     1       3.201   6.297  17.892  0.00  0.00    +0.000 C 
BRANCH  14  15
ATOM     15  O   UNL     1       3.435   7.554  18.547  0.00  0.00    +0.000 OA
BRANCH  15  16
ATOM     16  C   UNL     1       2.145   8.148  18.810  0.00  0.00    +0.000 C 
BRANCH  16  18
ATOM     17  C   UNL     1       0.453   9.908  18.146  0.00  0.00    +0.000 C 
ATOM     18  C   UNL     1       1.796   9.263  17.845  0.00  0.00    +0.000 C 
ENDBRANCH  16  18
ENDBRANCH  15  16
ENDBRANCH  14  15
ENDBRANCH   1  14
BRANCH   1  19
ATOM     19  C   UNL     1       4.171   4.193  16.755  0.00  0.00    +0.000 C 
BRANCH  19  20
ATOM     20  C   UNL     1       3.090   3.074  16.881  0.00  0.00    +0.000 C 
ATOM     21  O   UNL     1       3.304   1.881  17.041  0.00  0.00    +0.000 OA
BRANCH  20  22
ATOM     22  O   UNL     1       1.804   3.504  16.812  0.00  0.00    +0.000 OA
ATOM     23  H   UNL     1       1.733   4.479  16.731  0.00  0.00    +0.000 HD
ENDBRANCH  20  22
ENDBRANCH  19  20
BRANCH  19  24
ATOM     24  O   UNL     1       5.456   3.604  16.368  0.00  0.00    +0.000 OA
BRANCH  24  25
ATOM     25  C   UNL     1       5.825   3.835  15.047  0.00  0.00    +0.000 A 
ATOM     26  N   UNL     1       6.901   4.617  14.840  0.00  0.00    +0.000 NA
ATOM     27  C   UNL     1       7.278   4.843  13.563  0.00  0.00    +0.000 A 
ATOM     28  C   UNL     1       8.542   5.620  13.363  0.00  0.00    +0.000 C 
ATOM     29  C   UNL     1       6.534   4.396  12.496  0.00  0.00    +0.000 A 
ATOM     30  C   UNL     1       5.409   3.648  12.796  0.00  0.00    +0.000 A 
ATOM     31  C   UNL     1       4.572   3.111  11.665  0.00  0.00    +0.000 C 
ATOM     32  N   UNL     1       5.043   3.351  14.072  0.00  0.00    +0.000 NA
ENDBRANCH  24  25
ENDBRANCH  19  24
ENDBRANCH   1  19
TORSDOF 11
ENDMDL
MODEL 9
REMARK VINA RESULT:      -6.4      0.885      4.258
REMARK  Name = 
REMARK  14 active torsions:
REMARK  status: ('A' for Active; 'I' for Inactive)
REMARK    1  A    between atoms: C_1  and  C_2
REMARK    2  A    between atoms: C_2  and  C_3
REMARK    3  A    between atoms: C_3  and  O_4
REMARK    4  A    between atoms: O_4  and  C_5
REMARK    5  A    between atoms: C_5  and  C_6
REMARK    6  A    between atoms: C_6  and  C_7
REMARK    7  A    between atoms: C_6  and  C_13
REMARK    8  A    between atoms: C_6  and  C_19
REMARK    9  A    between atoms: C_19  and  O_20
REMARK   10  A    between atoms: C_19  and  C_29
REMARK   11  A    between atoms: O_20  and  C_21
REMARK   12  A    between atoms: C_23  and  C_24
REMARK   13  A    between atoms: C_26  and  C_27
REMARK   14  A    between atoms: C_29  and  O_31
REMARK                            x       y       z     vdW  Elec       q    Type
REMARK                         _______ _______ _______ _____ _____    ______ ____
ROOT
ATOM      1  C   UNL     1       4.186   5.143  18.341  0.00  0.00    +0.000 C 
ENDROOT
BRANCH   1   2
ATOM      2  C   UNL     1       5.654   5.736  18.399  0.00  0.00    +0.000 A 
ATOM      3  C   UNL     1       6.593   5.324  19.370  0.00  0.00    +0.000 A 
ATOM      4  C   UNL     1       7.874   5.888  19.478  0.00  0.00    +0.000 A 
ATOM      5  C   UNL     1       8.271   6.895  18.613  0.00  0.00    +0.000 A 
ATOM      6  C   UNL     1       7.380   7.334  17.648  0.00  0.00    +0.000 A 
ATOM      7  C   UNL     1       6.096   6.774  17.554  0.00  0.00    +0.000 A 
ENDBRANCH   1   2
BRANCH   1   8
ATOM      8  C   UNL     1       3.810   4.301  19.638  0.00  0.00    +0.000 A 
ATOM      9  C   UNL     1       4.339   3.027  19.896  0.00  0.00    +0.000 A 
ATOM     10  C   UNL     1       3.748   2.170  20.841  0.00  0.00    +0.000 A 
ATOM     11  C   UNL     1       2.663   2.583  21.608  0.00  0.00    +0.000 A 
ATOM     12  C   UNL     1       2.182   3.869  21.456  0.00  0.00    +0.000 A 
ATOM     13  C   UNL     1       2.743   4.704  20.488  0.00  0.00    +0.000 A 
ENDBRANCH   1   8
BRANCH   1  14
ATOM     14  C   UNL     1       3.186   6.378  18.416  0.00  0.00    +0.000 C 
BRANCH  14  15
ATOM     15  O   UNL     1       2.866   7.072  17.198  0.00  0.00    +0.000 OA
BRANCH  15  16
ATOM     16  C   UNL     1       2.773   8.477  17.516  0.00  0.00    +0.000 C 
BRANCH  16  18
ATOM     17  C   UNL     1       0.623   9.682  18.087  0.00  0.00    +0.000 C 
ATOM     18  C   UNL     1       1.740   8.778  18.583  0.00  0.00    +0.000 C 
ENDBRANCH  16  18
ENDBRANCH  15  16
ENDBRANCH  14  15
ENDBRANCH   1  14
BRANCH   1  19
ATOM     19  C   UNL     1       3.890   4.382  16.939  0.00  0.00    +0.000 C 
BRANCH  19  20
ATOM     20  C   UNL     1       2.584   3.529  16.953  0.00  0.00    +0.000 C 
ATOM     21  O   UNL     1       2.520   2.309  16.922  0.00  0.00    +0.000 OA
BRANCH  20  22
ATOM     22  O   UNL     1       1.430   4.242  17.015  0.00  0.00    +0.000 OA
ATOM     23  H   UNL     1       0.900   4.179  16.192  0.00  0.00    +0.000 HD
ENDBRANCH  20  22
ENDBRANCH  19  20
BRANCH  19  24
ATOM     24  O   UNL     1       5.017   3.562  16.488  0.00  0.00    +0.000 OA
BRANCH  24  25
ATOM     25  C   UNL     1       5.504   3.889  15.227  0.00  0.00    +0.000 A 
ATOM     26  N   UNL     1       4.836   3.396  14.166  0.00  0.00    +0.000 NA
ATOM     27  C   UNL     1       5.292   3.713  12.935  0.00  0.00    +0.000 A 
ATOM     28  C   UNL     1       4.468   3.249  11.774  0.00  0.00    +0.000 C 
ATOM     29  C   UNL     1       6.460   4.415  12.750  0.00  0.00    +0.000 A 
ATOM     30  C   UNL     1       7.117   4.834  13.893  0.00  0.00    +0.000 A 
ATOM     31  C   UNL     1       8.388   5.630  13.749  0.00  0.00    +0.000 C 
ATOM     32  N   UNL     1       6.647   4.585  15.145  0.00  0.00    +0.000 NA
ENDBRANCH  24  25
ENDBRANCH  19  24
ENDBRANCH   1  19
TORSDOF 11
ENDMDL
