MODEL 1
REMARK VINA RESULT:      -6.7      0.000      0.000
REMARK  Name = 
REMARK  8 active torsions:
REMARK  status: ('A' for Active; 'I' for Inactive)
REMARK    1  A    between atoms: C_1  and  O_2
REMARK    2  A    between atoms: O_2  and  C_3
REMARK    3  A    between atoms: C_6  and  O_7
REMARK    4  A    between atoms: O_7  and  C_8
REMARK    5  A    between atoms: C_8  and  C_9
REMARK    6  A    between atoms: C_8  and  C_10
REMARK    7  A    between atoms: N_12  and  C_13
REMARK    8  A    between atoms: C_13  and  C_14
REMARK                            x       y       z     vdW  Elec       q    Type
REMARK                         _______ _______ _______ _____ _____    ______ ____
ROOT
ATOM      1  C   UNL     1       4.759   4.597  16.323  0.00  0.00    +0.000 C 
ATOM      2  C   UNL     1       5.940   3.838  15.720  0.00  0.00    +0.000 C 
ENDROOT
BRANCH   1   3
ATOM      3  C   UNL     1       3.763   3.541  16.852  0.00  0.00    +0.000 C 
ATOM      4  O   UNL     1       2.594   3.497  16.473  0.00  0.00    +0.000 OA
ATOM      5  N   UNL     1       4.296   2.625  17.731  0.00  0.00    +0.000 N 
ATOM      6  H   UNL     1       5.205   2.843  18.125  0.00  0.00    +0.000 HD
BRANCH   5   7
ATOM      7  C   UNL     1       3.486   1.596  18.342  0.00  0.00    +0.000 C 
BRANCH   7   8
ATOM      8  C   UNL     1       2.739   2.104  19.540  0.00  0.00    +0.000 A 
ATOM      9  C   UNL     1       1.404   2.513  19.453  0.00  0.00    +0.000 A 
ATOM     10  C   UNL     1       0.759   3.015  20.580  0.00  0.00    +0.000 A 
ATOM     11  C   UNL     1       1.473   3.099  21.764  0.00  0.00    +0.000 A 
ATOM     12  N   UNL     1       2.760   2.718  21.888  0.00  0.00    +0.000 NA
ATOM     13  C   UNL     1       3.364   2.236  20.776  0.00  0.00    +0.000 A 
ENDBRANCH   7   8
ENDBRANCH   5   7
ENDBRANCH   1   3
BRANCH   1  14
ATOM     14  O   UNL     1       5.179   5.430  17.411  0.00  0.00    +0.000 OA
BRANCH  14  18
ATOM     15  C   UNL     1       2.196   7.868  19.014  0.00  0.00    +0.000 A 
ATOM     16  C   UNL     1       2.880   8.208  17.848  0.00  0.00    +0.000 A 
ATOM     17  C   UNL     1       3.879   7.367  17.345  0.00  0.00    +0.000 A 
ATOM     18  C   UNL     1       4.233   6.201  18.027  0.00  0.00    +0.000 A 
ATOM     19  C   UNL     1       3.578   5.886  19.216  0.00  0.00    +0.000 A 
ATOM     20  C   UNL     1       2.556   6.712  19.704  0.00  0.00    +0.000 A 
BRANCH  15  22
ATOM     21  C   UNL     1       0.838   9.712  18.431  0.00  0.00    +0.000 C 
ATOM     22  O   UNL     1       1.226   8.750  19.407  0.00  0.00    +0.000 OA
ENDBRANCH  15  22
ENDBRANCH  14  18
ENDBRANCH   1  14
TORSDOF 6
ENDMDL
MODEL 2
REMARK VINA RESULT:      -6.5      3.139      5.224
REMARK  Name = 
REMARK  8 active torsions:
REMARK  status: ('A' for Active; 'I' for Inactive)
REMARK    1  A    between atoms: C_1  and  O_2
REMARK    2  A    between atoms: O_2  and  C_3
REMARK    3  A    between atoms: C_6  and  O_7
REMARK    4  A    between atoms: O_7  and  C_8
REMARK    5  A    between atoms: C_8  and  C_9
REMARK    6  A    between atoms: C_8  and  C_10
REMARK    7  A    between atoms: N_12  and  C_13
REMARK    8  A    between atoms: C_13  and  C_14
REMARK                            x       y       z     vdW  Elec       q    Type
REMARK                         _______ _______ _______ _____ _____    ______ ____
ROOT
ATOM      1  C   UNL     1       7.263   5.713  17.638  0.00  0.00    +0.000 C 
ATOM      2  C   UNL     1       7.884   7.017  18.136  0.00  0.00    +0.000 C 
ENDROOT
BRANCH   1   3
ATOM      3  C   UNL     1       6.610   5.026  18.857  0.00  0.00    +0.000 C 
ATOM      4  O   UNL     1       6.855   5.371  20.011  0.00  0.00    +0.000 OA
ATOM      5  N   UNL     1       5.695   4.043  18.552  0.00  0.00    +0.000 N 
ATOM      6  H   UNL     1       5.691   3.702  17.596  0.00  0.00    +0.000 HD
BRANCH   5   7
ATOM      7  C   UNL     1       5.023   3.282  19.580  0.00  0.00    +0.000 C 
BRANCH   7   8
ATOM      8  C   UNL     1       3.544   3.198  19.344  0.00  0.00    +0.000 A 
ATOM      9  C   UNL     1       2.962   3.669  18.162  0.00  0.00    +0.000 A 
ATOM     10  C   UNL     1       1.581   3.608  17.998  0.00  0.00    +0.000 A 
ATOM     11  C   UNL     1       0.819   3.083  19.029  0.00  0.00    +0.000 A 
ATOM     12  N   UNL     1       1.341   2.623  20.184  0.00  0.00    +0.000 NA
ATOM     13  C   UNL     1       2.686   2.696  20.318  0.00  0.00    +0.000 A 
ENDBRANCH   7   8
ENDBRANCH   5   7
ENDBRANCH   1   3
BRANCH   1  14
ATOM     14  O   UNL     1       6.258   5.962  16.647  0.00  0.00    +0.000 OA
BRANCH  14  18
ATOM     15  C   UNL     1       6.118   3.804  13.078  0.00  0.00    +0.000 A 
ATOM     16  C   UNL     1       5.079   3.766  14.006  0.00  0.00    +0.000 A 
ATOM     17  C   UNL     1       5.165   4.499  15.194  0.00  0.00    +0.000 A 
ATOM     18  C   UNL     1       6.312   5.241  15.486  0.00  0.00    +0.000 A 
ATOM     19  C   UNL     1       7.368   5.242  14.578  0.00  0.00    +0.000 A 
ATOM     20  C   UNL     1       7.269   4.534  13.373  0.00  0.00    +0.000 A 
BRANCH  15  22
ATOM     21  C   UNL     1       4.588   3.043  11.447  0.00  0.00    +0.000 C 
ATOM     22  O   UNL     1       5.923   3.068  11.942  0.00  0.00    +0.000 OA
ENDBRANCH  15  22
ENDBRANCH  14  18
ENDBRANCH   1  14
TORSDOF 6
ENDMDL
MODEL 3
REMARK VINA RESULT:      -6.5      2.813      5.591
REMARK  Name = 
REMARK  8 active torsions:
REMARK  status: ('A' for Active; 'I' for Inactive)
REMARK    1  A    between atoms: C_1  and  O_2
REMARK    2  A    between atoms: O_2  and  C_3
REMARK    3  A    between atoms: C_6  and  O_7
REMARK    4  A    between atoms: O_7  and  C_8
REMARK    5  A    between atoms: C_8  and  C_9
REMARK    6  A    between atoms: C_8  and  C_10
REMARK    7  A    between atoms: N_12  and  C_13
REMARK    8  A    between atoms: C_13  and  C_14
REMARK                            x       y       z     vdW  Elec       q    Type
REMARK                         _______ _______ _______ _____ _____    ______ ____
ROOT
ATOM      1  C   UNL     1       6.806   5.124  16.992  0.00  0.00    +0.000 C 
ATOM      2  C   UNL     1       7.778   5.337  18.152  0.00  0.00    +0.000 C 
ENDROOT
BRANCH   1   3
ATOM      3  C   UNL     1       5.531   5.934  17.314  0.00  0.00    +0.000 C 
ATOM      4  O   UNL     1       5.522   7.164  17.322  0.00  0.00    +0.000 OA
ATOM      5  N   UNL     1       4.400   5.180  17.535  0.00  0.00    +0.000 N 
ATOM      6  H   UNL     1       4.535   4.187  17.689  0.00  0.00    +0.000 HD
BRANCH   5   7
ATOM      7  C   UNL     1       3.136   5.787  17.882  0.00  0.00    +0.000 C 
BRANCH   7   8
ATOM      8  C   UNL     1       2.265   4.860  18.678  0.00  0.00    +0.000 A 
ATOM      9  C   UNL     1       2.072   5.034  20.053  0.00  0.00    +0.000 A 
ATOM     10  C   UNL     1       1.288   4.129  20.762  0.00  0.00    +0.000 A 
ATOM     11  C   UNL     1       0.724   3.067  20.074  0.00  0.00    +0.000 A 
ATOM     12  N   UNL     1       0.890   2.862  18.752  0.00  0.00    +0.000 NA
ATOM     13  C   UNL     1       1.658   3.756  18.087  0.00  0.00    +0.000 A 
ENDBRANCH   7   8
ENDBRANCH   5   7
ENDBRANCH   1   3
BRANCH   1  14
ATOM     14  O   UNL     1       7.360   5.596  15.758  0.00  0.00    +0.000 OA
BRANCH  14  18
ATOM     15  C   UNL     1       6.063   3.570  12.348  0.00  0.00    +0.000 A 
ATOM     16  C   UNL     1       5.439   3.411  13.583  0.00  0.00    +0.000 A 
ATOM     17  C   UNL     1       5.907   4.102  14.706  0.00  0.00    +0.000 A 
ATOM     18  C   UNL     1       7.031   4.925  14.612  0.00  0.00    +0.000 A 
ATOM     19  C   UNL     1       7.681   5.049  13.385  0.00  0.00    +0.000 A 
ATOM     20  C   UNL     1       7.193   4.381  12.254  0.00  0.00    +0.000 A 
BRANCH  15  22
ATOM     21  C   UNL     1       4.108   3.017  11.142  0.00  0.00    +0.000 C 
ATOM     22  O   UNL     1       5.514   2.863  11.313  0.00  0.00    +0.000 OA
ENDBRANCH  15  22
ENDBRANCH  14  18
ENDBRANCH   1  14
TORSDOF 6
ENDMDL
MODEL 4
REMARK VINA RESULT:      -6.5      2.736      5.824
REMARK  Name = 
REMARK  8 active torsions:
REMARK  status: ('A' for Active; 'I' for Inactive)
REMARK    1  A    between atoms: C_1  and  O_2
REMARK    2  A    between atoms: O_2  and  C_3
REMARK    3  A    between atoms: C_6  and  O_7
REMARK    4  A    between atoms: O_7  and  C_8
REMARK    5  A    between atoms: C_8  and  C_9
REMARK    6  A    between atoms: C_8  and  C_10
REMARK    7  A    between atoms: N_12  and  C_13
REMARK    8  A    between atoms: C_13  and  C_14
REMARK                            x       y       z     vdW  Elec       q    Type
REMARK                         _______ _______ _______ _____ _____    ______ ____
ROOT
ATOM      1  C   UNL     1       3.276   3.721  19.153  0.00  0.00    +0.000 C 
ATOM      2  C   UNL     1       3.130   2.349  19.809  0.00  0.00    +0.000 C 
ENDROOT
BRANCH   1   3
ATOM      3  C   UNL     1       2.214   4.644  19.788  0.00  0.00    +0.000 C 
ATOM      4  O   UNL     1       1.052   4.279  19.965  0.00  0.00    +0.000 OA
ATOM      5  N   UNL     1       2.676   5.877  20.189  0.00  0.00    +0.000 N 
ATOM      6  H   UNL     1       3.587   6.159  19.843  0.00  0.00    +0.000 HD
BRANCH   5   7
ATOM      7  C   UNL     1       1.798   6.868  20.769  0.00  0.00    +0.000 C 
BRANCH   7   8
ATOM      8  C   UNL     1       1.637   8.067  19.881  0.00  0.00    +0.000 A 
ATOM      9  C   UNL     1       2.202   8.113  18.602  0.00  0.00    +0.000 A 
ATOM     10  C   UNL     1       2.062   9.260  17.825  0.00  0.00    +0.000 A 
ATOM     11  C   UNL     1       1.364  10.333  18.355  0.00  0.00    +0.000 A 
ATOM     12  N   UNL     1       0.809  10.328  19.584  0.00  0.00    +0.000 NA
ATOM     13  C   UNL     1       0.962   9.202  20.319  0.00  0.00    +0.000 A 
ENDBRANCH   7   8
ENDBRANCH   5   7
ENDBRANCH   1   3
BRANCH   1  14
ATOM     14  O   UNL     1       4.577   4.274  19.390  0.00  0.00    +0.000 OA
BRANCH  14  18
ATOM     15  C   UNL     1       6.850   4.956  15.957  0.00  0.00    +0.000 A 
ATOM     16  C   UNL     1       5.503   4.604  15.893  0.00  0.00    +0.000 A 
ATOM     17  C   UNL     1       4.776   4.377  17.066  0.00  0.00    +0.000 A 
ATOM     18  C   UNL     1       5.400   4.456  18.313  0.00  0.00    +0.000 A 
ATOM     19  C   UNL     1       6.758   4.766  18.373  0.00  0.00    +0.000 A 
ATOM     20  C   UNL     1       7.479   5.024  17.199  0.00  0.00    +0.000 A 
BRANCH  15  22
ATOM     21  C   UNL     1       6.858   4.534  13.633  0.00  0.00    +0.000 C 
ATOM     22  O   UNL     1       7.461   5.174  14.753  0.00  0.00    +0.000 OA
ENDBRANCH  15  22
ENDBRANCH  14  18
ENDBRANCH   1  14
TORSDOF 6
ENDMDL
MODEL 5
REMARK VINA RESULT:      -6.5      5.071      7.573
REMARK  Name = 
REMARK  8 active torsions:
REMARK  status: ('A' for Active; 'I' for Inactive)
REMARK    1  A    between atoms: C_1  and  O_2
REMARK    2  A    between atoms: O_2  and  C_3
REMARK    3  A    between atoms: C_6  and  O_7
REMARK    4  A    between atoms: O_7  and  C_8
REMARK    5  A    between atoms: C_8  and  C_9
REMARK    6  A    between atoms: C_8  and  C_10
REMARK    7  A    between atoms: N_12  and  C_13
REMARK    8  A    between atoms: C_13  and  C_14
REMARK                            x       y       z     vdW  Elec       q    Type
REMARK                         _______ _______ _______ _____ _____    ______ ____
ROOT
ATOM      1  C   UNL     1       7.532   5.743  18.369  0.00  0.00    +0.000 C 
ATOM      2  C   UNL     1       7.300   4.679  17.297  0.00  0.00    +0.000 C 
ENDROOT
BRANCH   1   3
ATOM      3  C   UNL     1       7.489   7.116  17.663  0.00  0.00    +0.000 C 
ATOM      4  O   UNL     1       6.846   7.301  16.632  0.00  0.00    +0.000 OA
ATOM      5  N   UNL     1       8.175   8.123  18.304  0.00  0.00    +0.000 N 
ATOM      6  H   UNL     1       8.819   7.844  19.037  0.00  0.00    +0.000 HD
BRANCH   5   7
ATOM      7  C   UNL     1       8.260   9.456  17.754  0.00  0.00    +0.000 C 
BRANCH   7   8
ATOM      8  C   UNL     1       9.199  10.330  18.534  0.00  0.00    +0.000 A 
ATOM      9  C   UNL     1       9.124  10.425  19.928  0.00  0.00    +0.000 A 
ATOM     10  C   UNL     1       9.987  11.276  20.611  0.00  0.00    +0.000 A 
ATOM     11  C   UNL     1      10.899  12.016  19.876  0.00  0.00    +0.000 A 
ATOM     12  N   UNL     1      11.000  11.955  18.533  0.00  0.00    +0.000 NA
ATOM     13  C   UNL     1      10.147  11.121  17.893  0.00  0.00    +0.000 A 
ENDBRANCH   7   8
ENDBRANCH   5   7
ENDBRANCH   1   3
BRANCH   1  14
ATOM     14  O   UNL     1       6.509   5.700  19.372  0.00  0.00    +0.000 OA
BRANCH  14  18
ATOM     15  C   UNL     1       2.897   3.988  18.175  0.00  0.00    +0.000 A 
ATOM     16  C   UNL     1       3.162   5.346  18.008  0.00  0.00    +0.000 A 
ATOM     17  C   UNL     1       4.382   5.885  18.428  0.00  0.00    +0.000 A 
ATOM     18  C   UNL     1       5.332   5.079  19.059  0.00  0.00    +0.000 A 
ATOM     19  C   UNL     1       5.047   3.730  19.265  0.00  0.00    +0.000 A 
ATOM     20  C   UNL     1       3.837   3.184  18.816  0.00  0.00    +0.000 A 
BRANCH  15  22
ATOM     21  C   UNL     1       1.029   2.581  18.511  0.00  0.00    +0.000 C 
ATOM     22  O   UNL     1       1.682   3.562  17.711  0.00  0.00    +0.000 OA
ENDBRANCH  15  22
ENDBRANCH  14  18
ENDBRANCH   1  14
TORSDOF 6
ENDMDL
MODEL 6
REMARK VINA RESULT:      -6.4      3.164      5.215
REMARK  Name = 
REMARK  8 active torsions:
REMARK  status: ('A' for Active; 'I' for Inactive)
REMARK    1  A    between atoms: C_1  and  O_2
REMARK    2  A    between atoms: O_2  and  C_3
REMARK    3  A    between atoms: C_6  and  O_7
REMARK    4  A    between atoms: O_7  and  C_8
REMARK    5  A    between atoms: C_8  and  C_9
REMARK    6  A    between atoms: C_8  and  C_10
REMARK    7  A    between atoms: N_12  and  C_13
REMARK    8  A    between atoms: C_13  and  C_14
REMARK                            x       y       z     vdW  Elec       q    Type
REMARK                         _______ _______ _______ _____ _____    ______ ____
ROOT
ATOM      1  C   UNL     1       6.713   4.897  18.091  0.00  0.00    +0.000 C 
ATOM      2  C   UNL     1       7.670   5.862  18.788  0.00  0.00    +0.000 C 
ENDROOT
BRANCH   1   3
ATOM      3  C   UNL     1       5.667   4.459  19.140  0.00  0.00    +0.000 C 
ATOM      4  O   UNL     1       5.044   5.271  19.822  0.00  0.00    +0.000 OA
ATOM      5  N   UNL     1       5.446   3.101  19.212  0.00  0.00    +0.000 N 
ATOM      6  H   UNL     1       6.124   2.502  18.752  0.00  0.00    +0.000 HD
BRANCH   5   7
ATOM      7  C   UNL     1       4.524   2.529  20.166  0.00  0.00    +0.000 C 
BRANCH   7   8
ATOM      8  C   UNL     1       3.098   2.647  19.713  0.00  0.00    +0.000 A 
ATOM      9  C   UNL     1       2.085   3.068  20.582  0.00  0.00    +0.000 A 
ATOM     10  C   UNL     1       0.769   3.126  20.133  0.00  0.00    +0.000 A 
ATOM     11  C   UNL     1       0.503   2.754  18.826  0.00  0.00    +0.000 A 
ATOM     12  N   UNL     1       1.450   2.340  17.960  0.00  0.00    +0.000 NA
ATOM     13  C   UNL     1       2.721   2.290  18.423  0.00  0.00    +0.000 A 
ENDBRANCH   7   8
ENDBRANCH   5   7
ENDBRANCH   1   3
BRANCH   1  14
ATOM     14  O   UNL     1       6.040   5.534  16.998  0.00  0.00    +0.000 OA
BRANCH  14  18
ATOM     15  C   UNL     1       6.420   4.082  13.104  0.00  0.00    +0.000 A 
ATOM     16  C   UNL     1       5.298   3.813  13.886  0.00  0.00    +0.000 A 
ATOM     17  C   UNL     1       5.210   4.313  15.190  0.00  0.00    +0.000 A 
ATOM     18  C   UNL     1       6.263   5.048  15.739  0.00  0.00    +0.000 A 
ATOM     19  C   UNL     1       7.402   5.278  14.970  0.00  0.00    +0.000 A 
ATOM     20  C   UNL     1       7.477   4.805  13.653  0.00  0.00    +0.000 A 
BRANCH  15  22
ATOM     21  C   UNL     1       6.108   2.171  11.751  0.00  0.00    +0.000 C 
ATOM     22  O   UNL     1       6.395   3.563  11.838  0.00  0.00    +0.000 OA
ENDBRANCH  15  22
ENDBRANCH  14  18
ENDBRANCH   1  14
TORSDOF 6
ENDMDL
MODEL 7
REMARK VINA RESULT:      -6.4      2.766      5.754
REMARK  Name = 
REMARK  8 active torsions:
REMARK  status: ('A' for Active; 'I' for Inactive)
REMARK    1  A    between atoms: C_1  and  O_2
REMARK    2  A    between atoms: O_2  and  C_3
REMARK    3  A    between atoms: C_6  and  O_7
REMARK    4  A    between atoms: O_7  and  C_8
REMARK    5  A    between atoms: C_8  and  C_9
REMARK    6  A    between atoms: C_8  and  C_10
REMARK    7  A    between atoms: N_12  and  C_13
REMARK    8  A    between atoms: C_13  and  C_14
REMARK                            x       y       z     vdW  Elec       q    Type
REMARK                         _______ _______ _______ _____ _____    ______ ____
ROOT
ATOM      1  C   UNL     1       6.499   5.641  16.885  0.00  0.00    +0.000 C 
ATOM      2  C   UNL     1       7.570   6.195  17.823  0.00  0.00    +0.000 C 
ENDROOT
BRANCH   1   3
ATOM      3  C   UNL     1       5.135   6.139  17.409  0.00  0.00    +0.000 C 
ATOM      4  O   UNL     1       4.491   7.012  16.830  0.00  0.00    +0.000 OA
ATOM      5  N   UNL     1       4.670   5.494  18.534  0.00  0.00    +0.000 N 
ATOM      6  H   UNL     1       5.338   4.925  19.043  0.00  0.00    +0.000 HD
BRANCH   5   7
ATOM      7  C   UNL     1       3.426   5.868  19.167  0.00  0.00    +0.000 C 
BRANCH   7   8
ATOM      8  C   UNL     1       2.436   4.741  19.172  0.00  0.00    +0.000 A 
ATOM      9  C   UNL     1       1.722   4.397  20.325  0.00  0.00    +0.000 A 
ATOM     10  C   UNL     1       0.841   3.319  20.298  0.00  0.00    +0.000 A 
ATOM     11  C   UNL     1       0.705   2.610  19.117  0.00  0.00    +0.000 A 
ATOM     12  N   UNL     1       1.378   2.907  17.986  0.00  0.00    +0.000 NA
ATOM     13  C   UNL     1       2.229   3.958  18.040  0.00  0.00    +0.000 A 
ENDBRANCH   7   8
ENDBRANCH   5   7
ENDBRANCH   1   3
BRANCH   1  14
ATOM     14  O   UNL     1       6.688   6.114  15.546  0.00  0.00    +0.000 OA
BRANCH  14  18
ATOM     15  C   UNL     1       6.098   3.386  12.444  0.00  0.00    +0.000 A 
ATOM     16  C   UNL     1       5.193   3.515  13.496  0.00  0.00    +0.000 A 
ATOM     17  C   UNL     1       5.428   4.437  14.521  0.00  0.00    +0.000 A 
ATOM     18  C   UNL     1       6.594   5.207  14.527  0.00  0.00    +0.000 A 
ATOM     19  C   UNL     1       7.519   5.044  13.498  0.00  0.00    +0.000 A 
ATOM     20  C   UNL     1       7.268   4.143  12.454  0.00  0.00    +0.000 A 
BRANCH  15  22
ATOM     21  C   UNL     1       6.751   1.485  11.203  0.00  0.00    +0.000 C 
ATOM     22  O   UNL     1       5.762   2.470  11.485  0.00  0.00    +0.000 OA
ENDBRANCH  15  22
ENDBRANCH  14  18
ENDBRANCH   1  14
TORSDOF 6
ENDMDL
MODEL 8
REMARK VINA RESULT:      -6.3      2.431      5.200
REMARK  Name = 
REMARK  8 active torsions:
REMARK  status: ('A' for Active; 'I' for Inactive)
REMARK    1  A    between atoms: C_1  and  O_2
REMARK    2  A    between atoms: O_2  and  C_3
REMARK    3  A    between atoms: C_6  and  O_7
REMARK    4  A    between atoms: O_7  and  C_8
REMARK    5  A    between atoms: C_8  and  C_9
REMARK    6  A    between atoms: C_8  and  C_10
REMARK    7  A    between atoms: N_12  and  C_13
REMARK    8  A    between atoms: C_13  and  C_14
REMARK                            x       y       z     vdW  Elec       q    Type
REMARK                         _______ _______ _______ _____ _____    ______ ____
ROOT
ATOM      1  C   UNL     1       5.930   5.750  17.593  0.00  0.00    +0.000 C 
ATOM      2  C   UNL     1       7.297   6.164  17.051  0.00  0.00    +0.000 C 
ENDROOT
BRANCH   1   3
ATOM      3  C   UNL     1       4.888   6.707  16.976  0.00  0.00    +0.000 C 
ATOM      4  O   UNL     1       4.915   7.026  15.789  0.00  0.00    +0.000 OA
ATOM      5  N   UNL     1       3.900   7.129  17.838  0.00  0.00    +0.000 N 
ATOM      6  H   UNL     1       4.056   6.968  18.827  0.00  0.00    +0.000 HD
BRANCH   5   7
ATOM      7  C   UNL     1       2.871   8.054  17.422  0.00  0.00    +0.000 C 
BRANCH   7   8
ATOM      8  C   UNL     1       1.995   8.474  18.566  0.00  0.00    +0.000 A 
ATOM      9  C   UNL     1       1.164   9.597  18.481  0.00  0.00    +0.000 A 
ATOM     10  C   UNL     1       0.397   9.975  19.579  0.00  0.00    +0.000 A 
ATOM     11  C   UNL     1       0.489   9.221  20.737  0.00  0.00    +0.000 A 
ATOM     12  N   UNL     1       1.280   8.135  20.860  0.00  0.00    +0.000 NA
ATOM     13  C   UNL     1       2.017   7.791  19.778  0.00  0.00    +0.000 A 
ENDBRANCH   7   8
ENDBRANCH   5   7
ENDBRANCH   1   3
BRANCH   1  14
ATOM     14  O   UNL     1       5.609   4.404  17.219  0.00  0.00    +0.000 OA
BRANCH  14  18
ATOM     15  C   UNL     1       2.417   2.753  19.339  0.00  0.00    +0.000 A 
ATOM     16  C   UNL     1       3.609   3.116  19.963  0.00  0.00    +0.000 A 
ATOM     17  C   UNL     1       4.659   3.661  19.217  0.00  0.00    +0.000 A 
ATOM     18  C   UNL     1       4.544   3.806  17.833  0.00  0.00    +0.000 A 
ATOM     19  C   UNL     1       3.368   3.402  17.205  0.00  0.00    +0.000 A 
ATOM     20  C   UNL     1       2.303   2.885  17.956  0.00  0.00    +0.000 A 
BRANCH  15  22
ATOM     21  C   UNL     1       1.523   2.663  21.524  0.00  0.00    +0.000 C 
ATOM     22  O   UNL     1       1.449   2.248  20.163  0.00  0.00    +0.000 OA
ENDBRANCH  15  22
ENDBRANCH  14  18
ENDBRANCH   1  14
TORSDOF 6
ENDMDL
MODEL 9
REMARK VINA RESULT:      -6.3      2.902      5.272
REMARK  Name = 
REMARK  8 active torsions:
REMARK  status: ('A' for Active; 'I' for Inactive)
REMARK    1  A    between atoms: C_1  and  O_2
REMARK    2  A    between atoms: O_2  and  C_3
REMARK    3  A    between atoms: C_6  and  O_7
REMARK    4  A    between atoms: O_7  and  C_8
REMARK    5  A    between atoms: C_8  and  C_9
REMARK    6  A    between atoms: C_8  and  C_10
REMARK    7  A    between atoms: N_12  and  C_13
REMARK    8  A    between atoms: C_13  and  C_14
REMARK                            x       y       z     vdW  Elec       q    Type
REMARK                         _______ _______ _______ _____ _____    ______ ____
ROOT
ATOM      1  C   UNL     1       3.156   3.716  18.048  0.00  0.00    +0.000 C 
ATOM      2  C   UNL     1       2.509   2.346  17.851  0.00  0.00    +0.000 C 
ENDROOT
BRANCH   1   3
ATOM      3  C   UNL     1       2.300   4.478  19.082  0.00  0.00    +0.000 C 
ATOM      4  O   UNL     1       1.331   3.963  19.636  0.00  0.00    +0.000 OA
ATOM      5  N   UNL     1       2.736   5.751  19.377  0.00  0.00    +0.000 N 
ATOM      6  H   UNL     1       3.422   6.156  18.749  0.00  0.00    +0.000 HD
BRANCH   5   7
ATOM      7  C   UNL     1       2.024   6.606  20.298  0.00  0.00    +0.000 C 
BRANCH   7   8
ATOM      8  C   UNL     1       1.735   7.955  19.707  0.00  0.00    +0.000 A 
ATOM      9  C   UNL     1       2.135   8.288  18.408  0.00  0.00    +0.000 A 
ATOM     10  C   UNL     1       1.882   9.563  17.912  0.00  0.00    +0.000 A 
ATOM     11  C   UNL     1       1.240  10.474  18.734  0.00  0.00    +0.000 A 
ATOM     12  N   UNL     1       0.843  10.193  19.992  0.00  0.00    +0.000 NA
ATOM     13  C   UNL     1       1.103   8.947  20.451  0.00  0.00    +0.000 A 
ENDBRANCH   7   8
ENDBRANCH   5   7
ENDBRANCH   1   3
BRANCH   1  14
ATOM     14  O   UNL     1       4.494   3.591  18.548  0.00  0.00    +0.000 OA
BRANCH  14  18
ATOM     15  C   UNL     1       7.017   6.704  17.383  0.00  0.00    +0.000 A 
ATOM     16  C   UNL     1       6.018   6.210  16.546  0.00  0.00    +0.000 A 
ATOM     17  C   UNL     1       5.195   5.161  16.970  0.00  0.00    +0.000 A 
ATOM     18  C   UNL     1       5.394   4.566  18.218  0.00  0.00    +0.000 A 
ATOM     19  C   UNL     1       6.422   5.032  19.035  0.00  0.00    +0.000 A 
ATOM     20  C   UNL     1       7.225   6.104  18.624  0.00  0.00    +0.000 A 
BRANCH  15  22
ATOM     21  C   UNL     1       8.073   8.774  17.807  0.00  0.00    +0.000 C 
ATOM     22  O   UNL     1       7.750   7.743  16.879  0.00  0.00    +0.000 OA
ENDBRANCH  15  22
ENDBRANCH  14  18
ENDBRANCH   1  14
TORSDOF 6
ENDMDL
