MODEL 1
REMARK VINA RESULT:      -8.5      0.000      0.000
REMARK  Name = 
REMARK  4 active torsions:
REMARK  status: ('A' for Active; 'I' for Inactive)
REMARK    1  A    between atoms: N_1  and  S_2
REMARK    2  A    between atoms: S_2  and  C_5
REMARK    3  A    between atoms: C_8  and  C_9
REMARK    4  A    between atoms: C_13  and  C_14
REMARK                            x       y       z     vdW  Elec       q    Type
REMARK                         _______ _______ _______ _____ _____    ______ ____
ROOT
ATOM      1  C   UNL     1       2.454   6.407  19.701  0.00  0.00    +0.000 A 
ATOM      2  C   UNL     1       1.752   5.334  20.280  0.00  0.00    +0.000 A 
ATOM      3  C   UNL     1       2.326   4.065  20.402  0.00  0.00    +0.000 A 
ATOM      4  C   UNL     1       3.617   3.834  19.936  0.00  0.00    +0.000 A 
ATOM      5  C   UNL     1       4.329   4.870  19.335  0.00  0.00    +0.000 A 
ATOM      6  C   UNL     1       3.745   6.140  19.210  0.00  0.00    +0.000 A 
ENDROOT
BRANCH   5   7
ATOM      7  C   UNL     1       5.715   4.664  18.907  0.00  0.00    +0.000 C 
ATOM      8  C   UNL     1       6.103   4.660  17.624  0.00  0.00    +0.000 C 
ATOM      9  S   UNL     1       5.128   4.917  16.222  0.00  0.00    +0.000 S 
ATOM     10  C   UNL     1       6.483   4.677  15.139  0.00  0.00    +0.000 C 
ATOM     11  O   UNL     1       6.404   4.703  13.924  0.00  0.00    +0.000 OA
ATOM     12  N   UNL     1       7.609   4.450  15.862  0.00  0.00    +0.000 N 
ATOM     13  C   UNL     1       7.509   4.415  17.223  0.00  0.00    +0.000 C 
ATOM     14  O   UNL     1       8.437   4.199  17.983  0.00  0.00    +0.000 OA
ATOM     15  H   UNL     1       8.487   4.281  15.400  0.00  0.00    +0.000 HD
ENDBRANCH   5   7
BRANCH   1  19
ATOM     16  C   UNL     1       0.672  10.318  19.551  0.00  0.00    +0.000 A 
ATOM     17  C   UNL     1       1.342   9.821  18.437  0.00  0.00    +0.000 A 
ATOM     18  C   UNL     1       1.939   8.559  18.505  0.00  0.00    +0.000 A 
ATOM     19  C   UNL     1       1.893   7.778  19.679  0.00  0.00    +0.000 A 
ATOM     20  C   UNL     1       1.243   8.332  20.798  0.00  0.00    +0.000 A 
ATOM     21  C   UNL     1       0.629   9.588  20.738  0.00  0.00    +0.000 A 
BRANCH  16  22
ATOM     22  S   UNL     1      -0.203  11.847  19.434  0.00  0.00    +0.000 S 
ATOM     23  O   UNL     1       0.752  12.930  19.384  0.00  0.00    +0.000 OA
ATOM     24  O   UNL     1      -1.323  11.833  20.344  0.00  0.00    +0.000 OA
BRANCH  22  25
ATOM     25  N   UNL     1      -0.883  11.736  17.900  0.00  0.00    +0.000 NA
ATOM     26  H   UNL     1      -0.995  10.755  17.645  0.00  0.00    +0.000 HD
ATOM     27  H   UNL     1      -0.336  12.278  17.229  0.00  0.00    +0.000 HD
ENDBRANCH  22  25
ENDBRANCH  16  22
ENDBRANCH   1  19
TORSDOF 4
ENDMDL
MODEL 2
REMARK VINA RESULT:      -8.4      0.690      1.200
REMARK  Name = 
REMARK  4 active torsions:
REMARK  status: ('A' for Active; 'I' for Inactive)
REMARK    1  A    between atoms: N_1  and  S_2
REMARK    2  A    between atoms: S_2  and  C_5
REMARK    3  A    between atoms: C_8  and  C_9
REMARK    4  A    between atoms: C_13  and  C_14
REMARK                            x       y       z     vdW  Elec       q    Type
REMARK                         _______ _______ _______ _____ _____    ______ ____
ROOT
ATOM      1  C   UNL     1       2.310   6.298  19.866  0.00  0.00    +0.000 A 
ATOM      2  C   UNL     1       1.616   5.151  20.296  0.00  0.00    +0.000 A 
ATOM      3  C   UNL     1       2.217   3.889  20.295  0.00  0.00    +0.000 A 
ATOM      4  C   UNL     1       3.528   3.739  19.853  0.00  0.00    +0.000 A 
ATOM      5  C   UNL     1       4.234   4.851  19.398  0.00  0.00    +0.000 A 
ATOM      6  C   UNL     1       3.623   6.114  19.395  0.00  0.00    +0.000 A 
ENDROOT
BRANCH   5   7
ATOM      7  C   UNL     1       5.638   4.723  19.000  0.00  0.00    +0.000 C 
ATOM      8  C   UNL     1       6.045   4.657  17.724  0.00  0.00    +0.000 C 
ATOM      9  S   UNL     1       5.074   4.736  16.298  0.00  0.00    +0.000 S 
ATOM     10  C   UNL     1       6.460   4.525  15.249  0.00  0.00    +0.000 C 
ATOM     11  O   UNL     1       6.398   4.458  14.034  0.00  0.00    +0.000 OA
ATOM     12  N   UNL     1       7.589   4.440  15.996  0.00  0.00    +0.000 N 
ATOM     13  C   UNL     1       7.472   4.495  17.356  0.00  0.00    +0.000 C 
ATOM     14  O   UNL     1       8.402   4.407  18.138  0.00  0.00    +0.000 OA
ATOM     15  H   UNL     1       8.485   4.307  15.557  0.00  0.00    +0.000 HD
ENDBRANCH   5   7
BRANCH   1  19
ATOM     16  C   UNL     1       0.749  10.284  20.272  0.00  0.00    +0.000 A 
ATOM     17  C   UNL     1       0.680   9.402  21.347  0.00  0.00    +0.000 A 
ATOM     18  C   UNL     1       1.169   8.101  21.196  0.00  0.00    +0.000 A 
ATOM     19  C   UNL     1       1.717   7.651  19.977  0.00  0.00    +0.000 A 
ATOM     20  C   UNL     1       1.731   8.558  18.901  0.00  0.00    +0.000 A 
ATOM     21  C   UNL     1       1.258   9.867  19.043  0.00  0.00    +0.000 A 
BRANCH  16  22
ATOM     22  S   UNL     1       0.265  11.967  20.492  0.00  0.00    +0.000 S 
ATOM     23  O   UNL     1       1.264  12.643  21.287  0.00  0.00    +0.000 OA
ATOM     24  O   UNL     1      -1.146  12.028  20.793  0.00  0.00    +0.000 OA
BRANCH  22  25
ATOM     25  N   UNL     1       0.406  12.571  18.929  0.00  0.00    +0.000 NA
ATOM     26  H   UNL     1       0.192  11.835  18.256  0.00  0.00    +0.000 HD
ATOM     27  H   UNL     1       1.323  12.999  18.796  0.00  0.00    +0.000 HD
ENDBRANCH  22  25
ENDBRANCH  16  22
ENDBRANCH   1  19
TORSDOF 4
ENDMDL
MODEL 3
REMARK VINA RESULT:      -8.4      0.937      1.185
REMARK  Name = 
REMARK  4 active torsions:
REMARK  status: ('A' for Active; 'I' for Inactive)
REMARK    1  A    between atoms: N_1  and  S_2
REMARK    2  A    between atoms: S_2  and  C_5
REMARK    3  A    between atoms: C_8  and  C_9
REMARK    4  A    between atoms: C_13  and  C_14
REMARK                            x       y       z     vdW  Elec       q    Type
REMARK                         _______ _______ _______ _____ _____    ______ ____
ROOT
ATOM      1  C   UNL     1       2.363   6.317  19.859  0.00  0.00    +0.000 A 
ATOM      2  C   UNL     1       1.632   5.182  20.256  0.00  0.00    +0.000 A 
ATOM      3  C   UNL     1       2.188   3.900  20.208  0.00  0.00    +0.000 A 
ATOM      4  C   UNL     1       3.490   3.720  19.751  0.00  0.00    +0.000 A 
ATOM      5  C   UNL     1       4.231   4.821  19.327  0.00  0.00    +0.000 A 
ATOM      6  C   UNL     1       3.665   6.104  19.372  0.00  0.00    +0.000 A 
ENDROOT
BRANCH   5   7
ATOM      7  C   UNL     1       5.627   4.658  18.914  0.00  0.00    +0.000 C 
ATOM      8  C   UNL     1       6.022   4.618  17.633  0.00  0.00    +0.000 C 
ATOM      9  S   UNL     1       5.045   4.775  16.219  0.00  0.00    +0.000 S 
ATOM     10  C   UNL     1       6.415   4.549  15.152  0.00  0.00    +0.000 C 
ATOM     11  O   UNL     1       6.342   4.522  13.936  0.00  0.00    +0.000 OA
ATOM     12  N   UNL     1       7.545   4.402  15.887  0.00  0.00    +0.000 N 
ATOM     13  C   UNL     1       7.440   4.418  17.248  0.00  0.00    +0.000 C 
ATOM     14  O   UNL     1       8.372   4.274  18.020  0.00  0.00    +0.000 OA
ATOM     15  H   UNL     1       8.433   4.253  15.437  0.00  0.00    +0.000 HD
ENDBRANCH   5   7
BRANCH   1  19
ATOM     16  C   UNL     1       0.619  10.229  20.249  0.00  0.00    +0.000 A 
ATOM     17  C   UNL     1       1.186   9.843  19.038  0.00  0.00    +0.000 A 
ATOM     18  C   UNL     1       1.772   8.578  18.930  0.00  0.00    +0.000 A 
ATOM     19  C   UNL     1       1.818   7.686  20.021  0.00  0.00    +0.000 A 
ATOM     20  C   UNL     1       1.272   8.127  21.241  0.00  0.00    +0.000 A 
ATOM     21  C   UNL     1       0.671   9.385  21.358  0.00  0.00    +0.000 A 
BRANCH  16  22
ATOM     22  S   UNL     1      -0.244  11.765  20.359  0.00  0.00    +0.000 S 
ATOM     23  O   UNL     1      -1.655  11.524  20.163  0.00  0.00    +0.000 OA
ATOM     24  O   UNL     1       0.483  12.780  19.635  0.00  0.00    +0.000 OA
BRANCH  22  25
ATOM     25  N   UNL     1      -0.045  12.155  21.982  0.00  0.00    +0.000 NA
ATOM     26  H   UNL     1       0.883  12.552  22.128  0.00  0.00    +0.000 HD
ATOM     27  H   UNL     1      -0.245  11.344  22.569  0.00  0.00    +0.000 HD
ENDBRANCH  22  25
ENDBRANCH  16  22
ENDBRANCH   1  19
TORSDOF 4
ENDMDL
MODEL 4
REMARK VINA RESULT:      -8.3      0.885      1.506
REMARK  Name = 
REMARK  4 active torsions:
REMARK  status: ('A' for Active; 'I' for Inactive)
REMARK    1  A    between atoms: N_1  and  S_2
REMARK    2  A    between atoms: S_2  and  C_5
REMARK    3  A    between atoms: C_8  and  C_9
REMARK    4  A    between atoms: C_13  and  C_14
REMARK                            x       y       z     vdW  Elec       q    Type
REMARK                         _______ _______ _______ _____ _____    ______ ____
ROOT
ATOM      1  C   UNL     1       2.345   6.480  19.749  0.00  0.00    +0.000 A 
ATOM      2  C   UNL     1       1.643   5.379  20.274  0.00  0.00    +0.000 A 
ATOM      3  C   UNL     1       2.233   4.115  20.372  0.00  0.00    +0.000 A 
ATOM      4  C   UNL     1       3.540   3.918  19.935  0.00  0.00    +0.000 A 
ATOM      5  C   UNL     1       4.253   4.983  19.387  0.00  0.00    +0.000 A 
ATOM      6  C   UNL     1       3.653   6.247  19.287  0.00  0.00    +0.000 A 
ENDROOT
BRANCH   5   7
ATOM      7  C   UNL     1       5.652   4.810  18.992  0.00  0.00    +0.000 C 
ATOM      8  C   UNL     1       6.056   4.699  17.718  0.00  0.00    +0.000 C 
ATOM      9  S   UNL     1       5.086   4.763  16.291  0.00  0.00    +0.000 S 
ATOM     10  C   UNL     1       6.465   4.489  15.247  0.00  0.00    +0.000 C 
ATOM     11  O   UNL     1       6.400   4.390  14.034  0.00  0.00    +0.000 OA
ATOM     12  N   UNL     1       7.592   4.397  15.996  0.00  0.00    +0.000 N 
ATOM     13  C   UNL     1       7.478   4.492  17.354  0.00  0.00    +0.000 C 
ATOM     14  O   UNL     1       8.407   4.403  18.138  0.00  0.00    +0.000 OA
ATOM     15  H   UNL     1       8.484   4.231  15.561  0.00  0.00    +0.000 HD
ENDBRANCH   5   7
BRANCH   1  19
ATOM     16  C   UNL     1       0.823  10.501  19.841  0.00  0.00    +0.000 A 
ATOM     17  C   UNL     1       0.763   9.713  20.987  0.00  0.00    +0.000 A 
ATOM     18  C   UNL     1       1.238   8.399  20.938  0.00  0.00    +0.000 A 
ATOM     19  C   UNL     1       1.765   7.843  19.755  0.00  0.00    +0.000 A 
ATOM     20  C   UNL     1       1.771   8.657  18.606  0.00  0.00    +0.000 A 
ATOM     21  C   UNL     1       1.312   9.978  18.644  0.00  0.00    +0.000 A 
BRANCH  16  22
ATOM     22  S   UNL     1       0.356  12.202  19.925  0.00  0.00    +0.000 S 
ATOM     23  O   UNL     1      -1.069  12.307  19.713  0.00  0.00    +0.000 OA
ATOM     24  O   UNL     1       1.316  13.002  19.202  0.00  0.00    +0.000 OA
BRANCH  22  25
ATOM     25  N   UNL     1       0.627  12.552  21.547  0.00  0.00    +0.000 NA
ATOM     26  H   UNL     1       1.311  11.899  21.929  0.00  0.00    +0.000 HD
ATOM     27  H   UNL     1      -0.256  12.571  22.058  0.00  0.00    +0.000 HD
ENDBRANCH  22  25
ENDBRANCH  16  22
ENDBRANCH   1  19
TORSDOF 4
ENDMDL
MODEL 5
REMARK VINA RESULT:      -8.2      2.054      8.372
REMARK  Name = 
REMARK  4 active torsions:
REMARK  status: ('A' for Active; 'I' for Inactive)
REMARK    1  A    between atoms: N_1  and  S_2
REMARK    2  A    between atoms: S_2  and  C_5
REMARK    3  A    between atoms: C_8  and  C_9
REMARK    4  A    between atoms: C_13  and  C_14
REMARK                            x       y       z     vdW  Elec       q    Type
REMARK                         _______ _______ _______ _____ _____    ______ ____
ROOT
ATOM      1  C   UNL     1       2.403   7.467  19.151  0.00  0.00    +0.000 A 
ATOM      2  C   UNL     1       1.888   6.858  20.311  0.00  0.00    +0.000 A 
ATOM      3  C   UNL     1       0.957   7.509  21.127  0.00  0.00    +0.000 A 
ATOM      4  C   UNL     1       0.525   8.793  20.808  0.00  0.00    +0.000 A 
ATOM      5  C   UNL     1       1.035   9.432  19.680  0.00  0.00    +0.000 A 
ATOM      6  C   UNL     1       1.973   8.776  18.868  0.00  0.00    +0.000 A 
ENDROOT
BRANCH   5   7
ATOM      7  C   UNL     1       0.536  10.753  19.289  0.00  0.00    +0.000 C 
ATOM      8  C   UNL     1      -0.477  10.939  18.431  0.00  0.00    +0.000 C 
ATOM      9  S   UNL     1      -1.425   9.736  17.634  0.00  0.00    +0.000 S 
ATOM     10  C   UNL     1      -2.367  10.935  16.774  0.00  0.00    +0.000 C 
ATOM     11  O   UNL     1      -3.241  10.672  15.966  0.00  0.00    +0.000 OA
ATOM     12  N   UNL     1      -1.964  12.178  17.138  0.00  0.00    +0.000 N 
ATOM     13  C   UNL     1      -0.937  12.291  18.031  0.00  0.00    +0.000 C 
ATOM     14  O   UNL     1      -0.468  13.346  18.422  0.00  0.00    +0.000 OA
ATOM     15  H   UNL     1      -2.393  12.994  16.734  0.00  0.00    +0.000 HD
ENDBRANCH   5   7
BRANCH   1  19
ATOM     16  C   UNL     1       5.142   5.385  16.573  0.00  0.00    +0.000 A 
ATOM     17  C   UNL     1       5.007   6.766  16.465  0.00  0.00    +0.000 A 
ATOM     18  C   UNL     1       4.095   7.429  17.292  0.00  0.00    +0.000 A 
ATOM     19  C   UNL     1       3.296   6.735  18.223  0.00  0.00    +0.000 A 
ATOM     20  C   UNL     1       3.431   5.334  18.274  0.00  0.00    +0.000 A 
ATOM     21  C   UNL     1       4.350   4.660  17.462  0.00  0.00    +0.000 A 
BRANCH  16  22
ATOM     22  S   UNL     1       6.387   4.554  15.635  0.00  0.00    +0.000 S 
ATOM     23  O   UNL     1       6.912   5.464  14.644  0.00  0.00    +0.000 OA
ATOM     24  O   UNL     1       5.937   3.221  15.312  0.00  0.00    +0.000 OA
BRANCH  22  25
ATOM     25  N   UNL     1       7.597   4.343  16.782  0.00  0.00    +0.000 NA
ATOM     26  H   UNL     1       8.356   5.002  16.606  0.00  0.00    +0.000 HD
ATOM     27  H   UNL     1       7.895   3.367  16.808  0.00  0.00    +0.000 HD
ENDBRANCH  22  25
ENDBRANCH  16  22
ENDBRANCH   1  19
TORSDOF 4
ENDMDL
MODEL 6
REMARK VINA RESULT:      -8.1      1.867      2.593
REMARK  Name = 
REMARK  4 active torsions:
REMARK  status: ('A' for Active; 'I' for Inactive)
REMARK    1  A    between atoms: N_1  and  S_2
REMARK    2  A    between atoms: S_2  and  C_5
REMARK    3  A    between atoms: C_8  and  C_9
REMARK    4  A    between atoms: C_13  and  C_14
REMARK                            x       y       z     vdW  Elec       q    Type
REMARK                         _______ _______ _______ _____ _____    ______ ____
ROOT
ATOM      1  C   UNL     1       1.616   7.282  20.330  0.00  0.00    +0.000 A 
ATOM      2  C   UNL     1       1.524   6.040  20.985  0.00  0.00    +0.000 A 
ATOM      3  C   UNL     1       2.172   4.903  20.491  0.00  0.00    +0.000 A 
ATOM      4  C   UNL     1       2.921   4.978  19.321  0.00  0.00    +0.000 A 
ATOM      5  C   UNL     1       3.011   6.189  18.636  0.00  0.00    +0.000 A 
ATOM      6  C   UNL     1       2.354   7.324  19.133  0.00  0.00    +0.000 A 
ENDROOT
BRANCH   5   7
ATOM      7  C   UNL     1       3.855   6.302  17.444  0.00  0.00    +0.000 C 
ATOM      8  C   UNL     1       5.088   5.782  17.356  0.00  0.00    +0.000 C 
ATOM      9  S   UNL     1       5.938   4.864  18.546  0.00  0.00    +0.000 S 
ATOM     10  C   UNL     1       7.360   4.722  17.535  0.00  0.00    +0.000 C 
ATOM     11  O   UNL     1       8.390   4.166  17.872  0.00  0.00    +0.000 OA
ATOM     12  N   UNL     1       7.134   5.331  16.343  0.00  0.00    +0.000 N 
ATOM     13  C   UNL     1       5.930   5.943  16.146  0.00  0.00    +0.000 C 
ATOM     14  O   UNL     1       5.612   6.542  15.133  0.00  0.00    +0.000 OA
ATOM     15  H   UNL     1       7.851   5.354  15.637  0.00  0.00    +0.000 HD
ENDBRANCH   5   7
BRANCH   1  19
ATOM     16  C   UNL     1      -0.249  10.804  21.946  0.00  0.00    +0.000 A 
ATOM     17  C   UNL     1       0.220  10.810  20.635  0.00  0.00    +0.000 A 
ATOM     18  C   UNL     1       0.847   9.668  20.128  0.00  0.00    +0.000 A 
ATOM     19  C   UNL     1       1.031   8.512  20.914  0.00  0.00    +0.000 A 
ATOM     20  C   UNL     1       0.581   8.558  22.248  0.00  0.00    +0.000 A 
ATOM     21  C   UNL     1      -0.061   9.689  22.762  0.00  0.00    +0.000 A 
BRANCH  16  22
ATOM     22  S   UNL     1      -1.164  12.187  22.552  0.00  0.00    +0.000 S 
ATOM     23  O   UNL     1      -0.239  13.188  23.030  0.00  0.00    +0.000 OA
ATOM     24  O   UNL     1      -2.284  11.719  23.335  0.00  0.00    +0.000 OA
BRANCH  22  25
ATOM     25  N   UNL     1      -1.842  12.795  21.139  0.00  0.00    +0.000 NA
ATOM     26  H   UNL     1      -1.644  13.794  21.066  0.00  0.00    +0.000 HD
ATOM     27  H   UNL     1      -2.836  12.567  21.095  0.00  0.00    +0.000 HD
ENDBRANCH  22  25
ENDBRANCH  16  22
ENDBRANCH   1  19
TORSDOF 4
ENDMDL
MODEL 7
REMARK VINA RESULT:      -8.1      1.853      2.740
REMARK  Name = 
REMARK  4 active torsions:
REMARK  status: ('A' for Active; 'I' for Inactive)
REMARK    1  A    between atoms: N_1  and  S_2
REMARK    2  A    between atoms: S_2  and  C_5
REMARK    3  A    between atoms: C_8  and  C_9
REMARK    4  A    between atoms: C_13  and  C_14
REMARK                            x       y       z     vdW  Elec       q    Type
REMARK                         _______ _______ _______ _____ _____    ______ ____
ROOT
ATOM      1  C   UNL     1       3.927   6.276  18.280  0.00  0.00    +0.000 A 
ATOM      2  C   UNL     1       4.155   5.223  19.185  0.00  0.00    +0.000 A 
ATOM      3  C   UNL     1       5.195   4.307  18.994  0.00  0.00    +0.000 A 
ATOM      4  C   UNL     1       6.028   4.416  17.886  0.00  0.00    +0.000 A 
ATOM      5  C   UNL     1       5.813   5.434  16.958  0.00  0.00    +0.000 A 
ATOM      6  C   UNL     1       4.765   6.346  17.152  0.00  0.00    +0.000 A 
ENDROOT
BRANCH   5   7
ATOM      7  C   UNL     1       6.726   5.608  15.826  0.00  0.00    +0.000 C 
ATOM      8  C   UNL     1       6.607   4.944  14.667  0.00  0.00    +0.000 C 
ATOM      9  S   UNL     1       5.392   3.801  14.223  0.00  0.00    +0.000 S 
ATOM     10  C   UNL     1       6.119   3.519  12.655  0.00  0.00    +0.000 C 
ATOM     11  O   UNL     1       5.698   2.722  11.835  0.00  0.00    +0.000 OA
ATOM     12  N   UNL     1       7.213   4.309  12.512  0.00  0.00    +0.000 N 
ATOM     13  C   UNL     1       7.568   5.119  13.552  0.00  0.00    +0.000 C 
ATOM     14  O   UNL     1       8.538   5.858  13.560  0.00  0.00    +0.000 OA
ATOM     15  H   UNL     1       7.764   4.273  11.671  0.00  0.00    +0.000 HD
ENDBRANCH   5   7
BRANCH   1  19
ATOM     16  C   UNL     1       1.091   9.395  19.129  0.00  0.00    +0.000 A 
ATOM     17  C   UNL     1       1.378   8.440  20.100  0.00  0.00    +0.000 A 
ATOM     18  C   UNL     1       2.284   7.416  19.804  0.00  0.00    +0.000 A 
ATOM     19  C   UNL     1       2.904   7.315  18.542  0.00  0.00    +0.000 A 
ATOM     20  C   UNL     1       2.557   8.275  17.573  0.00  0.00    +0.000 A 
ATOM     21  C   UNL     1       1.664   9.313  17.860  0.00  0.00    +0.000 A 
BRANCH  16  22
ATOM     22  S   UNL     1       0.059  10.769  19.535  0.00  0.00    +0.000 S 
ATOM     23  O   UNL     1       0.433  11.268  20.837  0.00  0.00    +0.000 OA
ATOM     24  O   UNL     1      -1.307  10.469  19.175  0.00  0.00    +0.000 OA
BRANCH  22  25
ATOM     25  N   UNL     1       0.564  11.919  18.417  0.00  0.00    +0.000 NA
ATOM     26  H   UNL     1      -0.223  12.514  18.158  0.00  0.00    +0.000 HD
ATOM     27  H   UNL     1       1.019  11.466  17.623  0.00  0.00    +0.000 HD
ENDBRANCH  22  25
ENDBRANCH  16  22
ENDBRANCH   1  19
TORSDOF 4
ENDMDL
MODEL 8
REMARK VINA RESULT:      -7.9      1.844      2.547
REMARK  Name = 
REMARK  4 active torsions:
REMARK  status: ('A' for Active; 'I' for Inactive)
REMARK    1  A    between atoms: N_1  and  S_2
REMARK    2  A    between atoms: S_2  and  C_5
REMARK    3  A    between atoms: C_8  and  C_9
REMARK    4  A    between atoms: C_13  and  C_14
REMARK                            x       y       z     vdW  Elec       q    Type
REMARK                         _______ _______ _______ _____ _____    ______ ____
ROOT
ATOM      1  C   UNL     1       3.853   6.370  18.304  0.00  0.00    +0.000 A 
ATOM      2  C   UNL     1       4.011   5.277  19.177  0.00  0.00    +0.000 A 
ATOM      3  C   UNL     1       4.997   4.308  18.965  0.00  0.00    +0.000 A 
ATOM      4  C   UNL     1       5.844   4.402  17.865  0.00  0.00    +0.000 A 
ATOM      5  C   UNL     1       5.696   5.459  16.968  0.00  0.00    +0.000 A 
ATOM      6  C   UNL     1       4.702   6.425  17.184  0.00  0.00    +0.000 A 
ENDROOT
BRANCH   5   7
ATOM      7  C   UNL     1       6.627   5.614  15.848  0.00  0.00    +0.000 C 
ATOM      8  C   UNL     1       6.523   4.933  14.697  0.00  0.00    +0.000 C 
ATOM      9  S   UNL     1       5.312   3.786  14.252  0.00  0.00    +0.000 S 
ATOM     10  C   UNL     1       6.062   3.479  12.700  0.00  0.00    +0.000 C 
ATOM     11  O   UNL     1       5.651   2.671  11.885  0.00  0.00    +0.000 OA
ATOM     12  N   UNL     1       7.160   4.264  12.561  0.00  0.00    +0.000 N 
ATOM     13  C   UNL     1       7.502   5.088  13.595  0.00  0.00    +0.000 C 
ATOM     14  O   UNL     1       8.474   5.824  13.605  0.00  0.00    +0.000 OA
ATOM     15  H   UNL     1       7.724   4.214  11.729  0.00  0.00    +0.000 HD
ENDBRANCH   5   7
BRANCH   1  19
ATOM     16  C   UNL     1       0.925   9.431  19.046  0.00  0.00    +0.000 A 
ATOM     17  C   UNL     1       1.601   9.401  17.830  0.00  0.00    +0.000 A 
ATOM     18  C   UNL     1       2.568   8.417  17.609  0.00  0.00    +0.000 A 
ATOM     19  C   UNL     1       2.890   7.458  18.592  0.00  0.00    +0.000 A 
ATOM     20  C   UNL     1       2.216   7.546  19.825  0.00  0.00    +0.000 A 
ATOM     21  C   UNL     1       1.236   8.517  20.053  0.00  0.00    +0.000 A 
BRANCH  16  22
ATOM     22  S   UNL     1      -0.393  10.580  19.285  0.00  0.00    +0.000 S 
ATOM     23  O   UNL     1      -0.419  10.983  20.672  0.00  0.00    +0.000 OA
ATOM     24  O   UNL     1      -1.568  10.119  18.583  0.00  0.00    +0.000 OA
BRANCH  22  25
ATOM     25  N   UNL     1       0.148  11.909  18.410  0.00  0.00    +0.000 NA
ATOM     26  H   UNL     1       1.079  11.720  18.039  0.00  0.00    +0.000 HD
ATOM     27  H   UNL     1       0.093  12.755  18.979  0.00  0.00    +0.000 HD
ENDBRANCH  22  25
ENDBRANCH  16  22
ENDBRANCH   1  19
TORSDOF 4
ENDMDL
MODEL 9
REMARK VINA RESULT:      -7.9      1.741      2.643
REMARK  Name = 
REMARK  4 active torsions:
REMARK  status: ('A' for Active; 'I' for Inactive)
REMARK    1  A    between atoms: N_1  and  S_2
REMARK    2  A    between atoms: S_2  and  C_5
REMARK    3  A    between atoms: C_8  and  C_9
REMARK    4  A    between atoms: C_13  and  C_14
REMARK                            x       y       z     vdW  Elec       q    Type
REMARK                         _______ _______ _______ _____ _____    ______ ____
ROOT
ATOM      1  C   UNL     1       1.784   7.326  19.898  0.00  0.00    +0.000 A 
ATOM      2  C   UNL     1       1.711   6.187  20.721  0.00  0.00    +0.000 A 
ATOM      3  C   UNL     1       2.387   5.006  20.398  0.00  0.00    +0.000 A 
ATOM      4  C   UNL     1       3.146   4.932  19.234  0.00  0.00    +0.000 A 
ATOM      5  C   UNL     1       3.218   6.035  18.385  0.00  0.00    +0.000 A 
ATOM      6  C   UNL     1       2.533   7.214  18.712  0.00  0.00    +0.000 A 
ENDROOT
BRANCH   5   7
ATOM      7  C   UNL     1       4.072   5.997  17.196  0.00  0.00    +0.000 C 
ATOM      8  C   UNL     1       5.318   5.501  17.192  0.00  0.00    +0.000 C 
ATOM      9  S   UNL     1       6.177   4.787  18.508  0.00  0.00    +0.000 S 
ATOM     10  C   UNL     1       7.613   4.537  17.538  0.00  0.00    +0.000 C 
ATOM     11  O   UNL     1       8.653   4.062  17.959  0.00  0.00    +0.000 OA
ATOM     12  N   UNL     1       7.386   4.961  16.270  0.00  0.00    +0.000 N 
ATOM     13  C   UNL     1       6.169   5.508  15.978  0.00  0.00    +0.000 C 
ATOM     14  O   UNL     1       5.847   5.947  14.887  0.00  0.00    +0.000 OA
ATOM     15  H   UNL     1       8.109   4.902  15.573  0.00  0.00    +0.000 HD
ENDBRANCH   5   7
BRANCH   1  19
ATOM     16  C   UNL     1       0.163  11.116  21.122  0.00  0.00    +0.000 A 
ATOM     17  C   UNL     1       0.306  10.092  22.054  0.00  0.00    +0.000 A 
ATOM     18  C   UNL     1       0.810   8.856  21.639  0.00  0.00    +0.000 A 
ATOM     19  C   UNL     1       1.167   8.612  20.297  0.00  0.00    +0.000 A 
ATOM     20  C   UNL     1       0.969   9.658  19.376  0.00  0.00    +0.000 A 
ATOM     21  C   UNL     1       0.479  10.904  19.780  0.00  0.00    +0.000 A 
BRANCH  16  22
ATOM     22  S   UNL     1      -0.341  12.721  21.658  0.00  0.00    +0.000 S 
ATOM     23  O   UNL     1      -1.431  13.172  20.825  0.00  0.00    +0.000 OA
ATOM     24  O   UNL     1       0.826  13.529  21.924  0.00  0.00    +0.000 OA
BRANCH  22  25
ATOM     25  N   UNL     1      -0.997  12.387  23.169  0.00  0.00    +0.000 NA
ATOM     26  H   UNL     1      -1.945  12.027  23.060  0.00  0.00    +0.000 HD
ATOM     27  H   UNL     1      -0.934  13.208  23.773  0.00  0.00    +0.000 HD
ENDBRANCH  22  25
ENDBRANCH  16  22
ENDBRANCH   1  19
TORSDOF 4
ENDMDL
