MODEL 1
REMARK VINA RESULT:      -6.3      0.000      0.000
REMARK  Name = 
REMARK  6 active torsions:
REMARK  status: ('A' for Active; 'I' for Inactive)
REMARK    1  A    between atoms: C_1  and  C_2
REMARK    2  A    between atoms: C_3  and  C_4
REMARK    3  A    between atoms: N_6  and  C_7
REMARK    4  A    between atoms: C_10  and  C_11
REMARK    5  A    between atoms: C_11  and  O_13
REMARK    6  A    between atoms: N_18  and  C_19
REMARK                            x       y       z     vdW  Elec       q    Type
REMARK                         _______ _______ _______ _____ _____    ______ ____
ROOT
ATOM      1  C   UNL     1       3.600   4.884  18.039  0.00  0.00    +0.000 C 
ATOM      2  O   UNL     1       3.164   5.830  17.386  0.00  0.00    +0.000 OA
ATOM      3  N   UNL     1       4.644   4.077  17.607  0.00  0.00    +0.000 N 
ATOM      4  H   UNL     1       4.803   3.208  18.096  0.00  0.00    +0.000 HD
ENDROOT
BRANCH   1   7
ATOM      5  C   UNL     1       2.438   1.990  18.943  0.00  0.00    +0.000 C 
ATOM      6  C   UNL     1       2.499   3.286  19.675  0.00  0.00    +0.000 A 
ATOM      7  C   UNL     1       2.992   4.541  19.323  0.00  0.00    +0.000 A 
ATOM      8  C   UNL     1       2.726   5.334  20.462  0.00  0.00    +0.000 A 
ATOM      9  N   UNL     1       2.138   4.656  21.449  0.00  0.00    +0.000 NA
ATOM     10  N   UNL     1       1.996   3.417  20.945  0.00  0.00    +0.000 N 
ATOM     11  C   UNL     1       1.353   2.388  21.731  0.00  0.00    +0.000 C 
ENDBRANCH   1   7
BRANCH   3  12
ATOM     12  C   UNL     1       5.429   4.321  16.451  0.00  0.00    +0.000 A 
ATOM     13  C   UNL     1       5.058   3.874  15.178  0.00  0.00    +0.000 A 
ATOM     14  C   UNL     1       5.855   4.131  14.060  0.00  0.00    +0.000 A 
ATOM     15  C   UNL     1       7.041   4.850  14.192  0.00  0.00    +0.000 A 
ATOM     16  C   UNL     1       7.414   5.327  15.455  0.00  0.00    +0.000 A 
ATOM     17  C   UNL     1       6.606   5.065  16.576  0.00  0.00    +0.000 A 
BRANCH  15  18
ATOM     18  C   UNL     1       7.809   5.125  12.949  0.00  0.00    +0.000 C 
ATOM     19  O   UNL     1       7.541   4.606  11.881  0.00  0.00    +0.000 OA
BRANCH  18  20
ATOM     20  O   UNL     1       8.846   5.972  13.113  0.00  0.00    +0.000 OA
ATOM     21  H   UNL     1       8.782   6.562  13.883  0.00  0.00    +0.000 HD
ENDBRANCH  18  20
ENDBRANCH  15  18
ENDBRANCH   3  12
TORSDOF 4
ENDMDL
MODEL 2
REMARK VINA RESULT:      -6.2      0.997      1.724
REMARK  Name = 
REMARK  6 active torsions:
REMARK  status: ('A' for Active; 'I' for Inactive)
REMARK    1  A    between atoms: C_1  and  C_2
REMARK    2  A    between atoms: C_3  and  C_4
REMARK    3  A    between atoms: N_6  and  C_7
REMARK    4  A    between atoms: C_10  and  C_11
REMARK    5  A    between atoms: C_11  and  O_13
REMARK    6  A    between atoms: N_18  and  C_19
REMARK                            x       y       z     vdW  Elec       q    Type
REMARK                         _______ _______ _______ _____ _____    ______ ____
ROOT
ATOM      1  C   UNL     1       4.266   4.067  18.186  0.00  0.00    +0.000 C 
ATOM      2  O   UNL     1       3.889   5.204  17.907  0.00  0.00    +0.000 OA
ATOM      3  N   UNL     1       5.139   3.338  17.390  0.00  0.00    +0.000 N 
ATOM      4  H   UNL     1       5.235   2.350  17.576  0.00  0.00    +0.000 HD
ENDROOT
BRANCH   1   7
ATOM      5  C   UNL     1       1.271   4.266  19.424  0.00  0.00    +0.000 C 
ATOM      6  C   UNL     1       2.472   3.519  19.894  0.00  0.00    +0.000 A 
ATOM      7  C   UNL     1       3.766   3.407  19.389  0.00  0.00    +0.000 A 
ATOM      8  C   UNL     1       4.414   2.565  20.320  0.00  0.00    +0.000 A 
ATOM      9  N   UNL     1       3.616   2.164  21.311  0.00  0.00    +0.000 NA
ATOM     10  N   UNL     1       2.444   2.766  21.041  0.00  0.00    +0.000 N 
ATOM     11  C   UNL     1       1.322   2.592  21.935  0.00  0.00    +0.000 C 
ENDBRANCH   1   7
BRANCH   3  12
ATOM     12  C   UNL     1       5.815   3.849  16.252  0.00  0.00    +0.000 A 
ATOM     13  C   UNL     1       6.917   4.706  16.349  0.00  0.00    +0.000 A 
ATOM     14  C   UNL     1       7.559   5.192  15.208  0.00  0.00    +0.000 A 
ATOM     15  C   UNL     1       7.114   4.823  13.940  0.00  0.00    +0.000 A 
ATOM     16  C   UNL     1       6.028   3.945  13.825  0.00  0.00    +0.000 A 
ATOM     17  C   UNL     1       5.387   3.459  14.979  0.00  0.00    +0.000 A 
BRANCH  15  18
ATOM     18  C   UNL     1       7.879   5.341  12.775  0.00  0.00    +0.000 C 
ATOM     19  O   UNL     1       7.556   5.116  11.623  0.00  0.00    +0.000 OA
BRANCH  18  20
ATOM     20  O   UNL     1       8.977   6.052  13.103  0.00  0.00    +0.000 OA
ATOM     21  H   UNL     1       9.384   6.550  12.373  0.00  0.00    +0.000 HD
ENDBRANCH  18  20
ENDBRANCH  15  18
ENDBRANCH   3  12
TORSDOF 4
ENDMDL
MODEL 3
REMARK VINA RESULT:      -6.2      0.989      1.310
REMARK  Name = 
REMARK  6 active torsions:
REMARK  status: ('A' for Active; 'I' for Inactive)
REMARK    1  A    between atoms: C_1  and  C_2
REMARK    2  A    between atoms: C_3  and  C_4
REMARK    3  A    between atoms: N_6  and  C_7
REMARK    4  A    between atoms: C_10  and  C_11
REMARK    5  A    between atoms: C_11  and  O_13
REMARK    6  A    between atoms: N_18  and  C_19
REMARK                            x       y       z     vdW  Elec       q    Type
REMARK                         _______ _______ _______ _____ _____    ______ ____
ROOT
ATOM      1  C   UNL     1       4.239   4.025  18.164  0.00  0.00    +0.000 C 
ATOM      2  O   UNL     1       3.857   5.152  17.856  0.00  0.00    +0.000 OA
ATOM      3  N   UNL     1       5.119   3.281  17.390  0.00  0.00    +0.000 N 
ATOM      4  H   UNL     1       5.219   2.298  17.600  0.00  0.00    +0.000 HD
ENDROOT
BRANCH   1   7
ATOM      5  C   UNL     1       1.225   4.205  19.360  0.00  0.00    +0.000 C 
ATOM      6  C   UNL     1       2.433   3.495  19.866  0.00  0.00    +0.000 A 
ATOM      7  C   UNL     1       3.735   3.391  19.380  0.00  0.00    +0.000 A 
ATOM      8  C   UNL     1       4.386   2.587  20.342  0.00  0.00    +0.000 A 
ATOM      9  N   UNL     1       3.583   2.201  21.335  0.00  0.00    +0.000 NA
ATOM     10  N   UNL     1       2.405   2.775  21.034  0.00  0.00    +0.000 N 
ATOM     11  C   UNL     1       1.274   2.607  21.919  0.00  0.00    +0.000 C 
ENDBRANCH   1   7
BRANCH   3  12
ATOM     12  C   UNL     1       5.798   3.768  16.244  0.00  0.00    +0.000 A 
ATOM     13  C   UNL     1       5.373   3.493  14.939  0.00  0.00    +0.000 A 
ATOM     14  C   UNL     1       6.066   3.989  13.832  0.00  0.00    +0.000 A 
ATOM     15  C   UNL     1       7.200   4.779  14.009  0.00  0.00    +0.000 A 
ATOM     16  C   UNL     1       7.625   5.085  15.308  0.00  0.00    +0.000 A 
ATOM     17  C   UNL     1       6.921   4.583  16.418  0.00  0.00    +0.000 A 
BRANCH  15  18
ATOM     18  C   UNL     1       7.855   5.309  12.783  0.00  0.00    +0.000 C 
ATOM     19  O   UNL     1       7.494   5.007  11.661  0.00  0.00    +0.000 OA
BRANCH  18  20
ATOM     20  O   UNL     1       8.901   6.126  13.022  0.00  0.00    +0.000 OA
ATOM     21  H   UNL     1       9.775   5.701  12.993  0.00  0.00    +0.000 HD
ENDBRANCH  18  20
ENDBRANCH  15  18
ENDBRANCH   3  12
TORSDOF 4
ENDMDL
MODEL 4
REMARK VINA RESULT:      -6.2      4.595      6.754
REMARK  Name = 
REMARK  6 active torsions:
REMARK  status: ('A' for Active; 'I' for Inactive)
REMARK    1  A    between atoms: C_1  and  C_2
REMARK    2  A    between atoms: C_3  and  C_4
REMARK    3  A    between atoms: N_6  and  C_7
REMARK    4  A    between atoms: C_10  and  C_11
REMARK    5  A    between atoms: C_11  and  O_13
REMARK    6  A    between atoms: N_18  and  C_19
REMARK                            x       y       z     vdW  Elec       q    Type
REMARK                         _______ _______ _______ _____ _____    ______ ____
ROOT
ATOM      1  C   UNL     1       1.485   7.870  20.580  0.00  0.00    +0.000 C 
ATOM      2  O   UNL     1       2.185   8.143  19.607  0.00  0.00    +0.000 OA
ATOM      3  N   UNL     1       1.261   6.571  21.018  0.00  0.00    +0.000 N 
ATOM      4  H   UNL     1       0.519   6.418  21.685  0.00  0.00    +0.000 HD
ENDROOT
BRANCH   1   7
ATOM      5  C   UNL     1      -0.563  10.085  19.380  0.00  0.00    +0.000 C 
ATOM      6  C   UNL     1      -0.059   9.875  20.766  0.00  0.00    +0.000 A 
ATOM      7  C   UNL     1       0.812   8.937  21.317  0.00  0.00    +0.000 A 
ATOM      8  C   UNL     1       0.879   9.305  22.680  0.00  0.00    +0.000 A 
ATOM      9  N   UNL     1       0.118  10.360  22.977  0.00  0.00    +0.000 NA
ATOM     10  N   UNL     1      -0.433  10.699  21.798  0.00  0.00    +0.000 N 
ATOM     11  C   UNL     1      -1.311  11.844  21.716  0.00  0.00    +0.000 C 
ENDBRANCH   1   7
BRANCH   3  12
ATOM     12  C   UNL     1       1.915   5.421  20.505  0.00  0.00    +0.000 A 
ATOM     13  C   UNL     1       2.342   5.325  19.175  0.00  0.00    +0.000 A 
ATOM     14  C   UNL     1       2.982   4.177  18.703  0.00  0.00    +0.000 A 
ATOM     15  C   UNL     1       3.216   3.100  19.555  0.00  0.00    +0.000 A 
ATOM     16  C   UNL     1       2.818   3.190  20.896  0.00  0.00    +0.000 A 
ATOM     17  C   UNL     1       2.175   4.350  21.365  0.00  0.00    +0.000 A 
BRANCH  15  18
ATOM     18  C   UNL     1       3.946   1.934  18.991  0.00  0.00    +0.000 C 
ATOM     19  O   UNL     1       3.614   1.387  17.956  0.00  0.00    +0.000 OA
BRANCH  18  20
ATOM     20  O   UNL     1       4.986   1.515  19.741  0.00  0.00    +0.000 OA
ATOM     21  H   UNL     1       5.015   1.868  20.646  0.00  0.00    +0.000 HD
ENDBRANCH  18  20
ENDBRANCH  15  18
ENDBRANCH   3  12
TORSDOF 4
ENDMDL
MODEL 5
REMARK VINA RESULT:      -6.2      0.129      1.328
REMARK  Name = 
REMARK  6 active torsions:
REMARK  status: ('A' for Active; 'I' for Inactive)
REMARK    1  A    between atoms: C_1  and  C_2
REMARK    2  A    between atoms: C_3  and  C_4
REMARK    3  A    between atoms: N_6  and  C_7
REMARK    4  A    between atoms: C_10  and  C_11
REMARK    5  A    between atoms: C_11  and  O_13
REMARK    6  A    between atoms: N_18  and  C_19
REMARK                            x       y       z     vdW  Elec       q    Type
REMARK                         _______ _______ _______ _____ _____    ______ ____
ROOT
ATOM      1  C   UNL     1       3.633   5.005  18.084  0.00  0.00    +0.000 C 
ATOM      2  O   UNL     1       3.219   5.980  17.459  0.00  0.00    +0.000 OA
ATOM      3  N   UNL     1       4.667   4.195  17.636  0.00  0.00    +0.000 N 
ATOM      4  H   UNL     1       4.806   3.308  18.096  0.00  0.00    +0.000 HD
ENDROOT
BRANCH   1   7
ATOM      5  C   UNL     1       2.608   2.052  18.961  0.00  0.00    +0.000 C 
ATOM      6  C   UNL     1       2.573   3.350  19.690  0.00  0.00    +0.000 A 
ATOM      7  C   UNL     1       3.005   4.631  19.349  0.00  0.00    +0.000 A 
ATOM      8  C   UNL     1       2.660   5.409  20.477  0.00  0.00    +0.000 A 
ATOM      9  N   UNL     1       2.081   4.700  21.448  0.00  0.00    +0.000 NA
ATOM     10  N   UNL     1       2.025   3.455  20.944  0.00  0.00    +0.000 N 
ATOM     11  C   UNL     1       1.416   2.393  21.713  0.00  0.00    +0.000 C 
ENDBRANCH   1   7
BRANCH   3  12
ATOM     12  C   UNL     1       5.468   4.463  16.496  0.00  0.00    +0.000 A 
ATOM     13  C   UNL     1       6.600   5.284  16.544  0.00  0.00    +0.000 A 
ATOM     14  C   UNL     1       7.367   5.528  15.401  0.00  0.00    +0.000 A 
ATOM     15  C   UNL     1       7.019   4.946  14.184  0.00  0.00    +0.000 A 
ATOM     16  C   UNL     1       5.903   4.100  14.124  0.00  0.00    +0.000 A 
ATOM     17  C   UNL     1       5.137   3.859  15.279  0.00  0.00    +0.000 A 
BRANCH  15  18
ATOM     18  C   UNL     1       7.911   5.213  13.025  0.00  0.00    +0.000 C 
ATOM     19  O   UNL     1       8.886   5.938  13.098  0.00  0.00    +0.000 OA
BRANCH  18  20
ATOM     20  O   UNL     1       7.530   4.611  11.880  0.00  0.00    +0.000 OA
ATOM     21  H   UNL     1       8.238   4.152  11.396  0.00  0.00    +0.000 HD
ENDBRANCH  18  20
ENDBRANCH  15  18
ENDBRANCH   3  12
TORSDOF 4
ENDMDL
MODEL 6
REMARK VINA RESULT:      -6.1      4.117      6.551
REMARK  Name = 
REMARK  6 active torsions:
REMARK  status: ('A' for Active; 'I' for Inactive)
REMARK    1  A    between atoms: C_1  and  C_2
REMARK    2  A    between atoms: C_3  and  C_4
REMARK    3  A    between atoms: N_6  and  C_7
REMARK    4  A    between atoms: C_10  and  C_11
REMARK    5  A    between atoms: C_11  and  O_13
REMARK    6  A    between atoms: N_18  and  C_19
REMARK                            x       y       z     vdW  Elec       q    Type
REMARK                         _______ _______ _______ _____ _____    ______ ____
ROOT
ATOM      1  C   UNL     1       1.420   8.010  20.452  0.00  0.00    +0.000 C 
ATOM      2  O   UNL     1       1.799   8.349  19.332  0.00  0.00    +0.000 OA
ATOM      3  N   UNL     1       1.462   6.699  20.906  0.00  0.00    +0.000 N 
ATOM      4  H   UNL     1       0.948   6.473  21.745  0.00  0.00    +0.000 HD
ENDROOT
BRANCH   1   7
ATOM      5  C   UNL     1      -0.655  10.396  19.713  0.00  0.00    +0.000 C 
ATOM      6  C   UNL     1      -0.026  10.020  21.010  0.00  0.00    +0.000 A 
ATOM      7  C   UNL     1       0.861   9.005  21.365  0.00  0.00    +0.000 A 
ATOM      8  C   UNL     1       1.074   9.217  22.745  0.00  0.00    +0.000 A 
ATOM      9  N   UNL     1       0.383  10.250  23.231  0.00  0.00    +0.000 NA
ATOM     10  N   UNL     1      -0.267  10.733  22.158  0.00  0.00    +0.000 N 
ATOM     11  C   UNL     1      -1.108  11.901  22.290  0.00  0.00    +0.000 C 
ENDBRANCH   1   7
BRANCH   3  12
ATOM     12  C   UNL     1       2.072   5.622  20.212  0.00  0.00    +0.000 A 
ATOM     13  C   UNL     1       3.417   5.637  19.826  0.00  0.00    +0.000 A 
ATOM     14  C   UNL     1       3.986   4.559  19.143  0.00  0.00    +0.000 A 
ATOM     15  C   UNL     1       3.219   3.437  18.838  0.00  0.00    +0.000 A 
ATOM     16  C   UNL     1       1.878   3.394  19.240  0.00  0.00    +0.000 A 
ATOM     17  C   UNL     1       1.312   4.484  19.928  0.00  0.00    +0.000 A 
BRANCH  15  18
ATOM     18  C   UNL     1       3.908   2.311  18.153  0.00  0.00    +0.000 C 
ATOM     19  O   UNL     1       3.731   1.146  18.461  0.00  0.00    +0.000 OA
BRANCH  18  20
ATOM     20  O   UNL     1       4.767   2.691  17.186  0.00  0.00    +0.000 OA
ATOM     21  H   UNL     1       5.423   3.358  17.452  0.00  0.00    +0.000 HD
ENDBRANCH  18  20
ENDBRANCH  15  18
ENDBRANCH   3  12
TORSDOF 4
ENDMDL
MODEL 7
REMARK VINA RESULT:      -6.1      3.551      4.525
REMARK  Name = 
REMARK  6 active torsions:
REMARK  status: ('A' for Active; 'I' for Inactive)
REMARK    1  A    between atoms: C_1  and  C_2
REMARK    2  A    between atoms: C_3  and  C_4
REMARK    3  A    between atoms: N_6  and  C_7
REMARK    4  A    between atoms: C_10  and  C_11
REMARK    5  A    between atoms: C_11  and  O_13
REMARK    6  A    between atoms: N_18  and  C_19
REMARK                            x       y       z     vdW  Elec       q    Type
REMARK                         _______ _______ _______ _____ _____    ______ ____
ROOT
ATOM      1  C   UNL     1       2.226   8.071  18.549  0.00  0.00    +0.000 C 
ATOM      2  O   UNL     1       2.181   8.671  17.477  0.00  0.00    +0.000 OA
ATOM      3  N   UNL     1       2.942   6.896  18.735  0.00  0.00    +0.000 N 
ATOM      4  H   UNL     1       2.762   6.361  19.572  0.00  0.00    +0.000 HD
ENDROOT
BRANCH   1   7
ATOM      5  C   UNL     1       0.427  10.771  18.683  0.00  0.00    +0.000 C 
ATOM      6  C   UNL     1       0.714   9.740  19.719  0.00  0.00    +0.000 A 
ATOM      7  C   UNL     1       1.473   8.571  19.697  0.00  0.00    +0.000 A 
ATOM      8  C   UNL     1       1.344   8.066  21.010  0.00  0.00    +0.000 A 
ATOM      9  N   UNL     1       0.570   8.821  21.791  0.00  0.00    +0.000 NA
ATOM     10  N   UNL     1       0.209   9.841  20.992  0.00  0.00    +0.000 N 
ATOM     11  C   UNL     1      -0.623  10.903  21.510  0.00  0.00    +0.000 C 
ENDBRANCH   1   7
BRANCH   3  12
ATOM     12  C   UNL     1       3.819   6.324  17.778  0.00  0.00    +0.000 A 
ATOM     13  C   UNL     1       3.756   4.976  17.406  0.00  0.00    +0.000 A 
ATOM     14  C   UNL     1       4.636   4.444  16.461  0.00  0.00    +0.000 A 
ATOM     15  C   UNL     1       5.596   5.255  15.859  0.00  0.00    +0.000 A 
ATOM     16  C   UNL     1       5.656   6.613  16.200  0.00  0.00    +0.000 A 
ATOM     17  C   UNL     1       4.765   7.141  17.153  0.00  0.00    +0.000 A 
BRANCH  15  18
ATOM     18  C   UNL     1       6.464   4.629  14.827  0.00  0.00    +0.000 C 
ATOM     19  O   UNL     1       6.136   3.632  14.209  0.00  0.00    +0.000 OA
BRANCH  18  20
ATOM     20  O   UNL     1       7.654   5.238  14.657  0.00  0.00    +0.000 OA
ATOM     21  H   UNL     1       7.642   6.020  14.079  0.00  0.00    +0.000 HD
ENDBRANCH  18  20
ENDBRANCH  15  18
ENDBRANCH   3  12
TORSDOF 4
ENDMDL
MODEL 8
REMARK VINA RESULT:      -6.1      4.380      7.863
REMARK  Name = 
REMARK  6 active torsions:
REMARK  status: ('A' for Active; 'I' for Inactive)
REMARK    1  A    between atoms: C_1  and  C_2
REMARK    2  A    between atoms: C_3  and  C_4
REMARK    3  A    between atoms: N_6  and  C_7
REMARK    4  A    between atoms: C_10  and  C_11
REMARK    5  A    between atoms: C_11  and  O_13
REMARK    6  A    between atoms: N_18  and  C_19
REMARK                            x       y       z     vdW  Elec       q    Type
REMARK                         _______ _______ _______ _____ _____    ______ ____
ROOT
ATOM      1  C   UNL     1       2.933   6.329  18.373  0.00  0.00    +0.000 C 
ATOM      2  O   UNL     1       1.875   5.739  18.163  0.00  0.00    +0.000 OA
ATOM      3  N   UNL     1       3.008   7.692  18.629  0.00  0.00    +0.000 N 
ATOM      4  H   UNL     1       3.915   8.132  18.585  0.00  0.00    +0.000 HD
ENDROOT
BRANCH   1   7
ATOM      5  C   UNL     1       5.143   6.396  15.995  0.00  0.00    +0.000 C 
ATOM      6  C   UNL     1       5.122   5.649  17.284  0.00  0.00    +0.000 A 
ATOM      7  C   UNL     1       4.198   5.599  18.326  0.00  0.00    +0.000 A 
ATOM      8  C   UNL     1       4.773   4.685  19.237  0.00  0.00    +0.000 A 
ATOM      9  N   UNL     1       5.952   4.210  18.832  0.00  0.00    +0.000 NA
ATOM     10  N   UNL     1       6.138   4.797  17.636  0.00  0.00    +0.000 N 
ATOM     11  C   UNL     1       7.319   4.491  16.860  0.00  0.00    +0.000 C 
ENDBRANCH   1   7
BRANCH   3  12
ATOM     12  C   UNL     1       1.887   8.540  18.826  0.00  0.00    +0.000 A 
ATOM     13  C   UNL     1       1.254   9.213  17.775  0.00  0.00    +0.000 A 
ATOM     14  C   UNL     1       0.153  10.041  18.004  0.00  0.00    +0.000 A 
ATOM     15  C   UNL     1      -0.344  10.209  19.295  0.00  0.00    +0.000 A 
ATOM     16  C   UNL     1       0.262   9.522  20.356  0.00  0.00    +0.000 A 
ATOM     17  C   UNL     1       1.370   8.688  20.116  0.00  0.00    +0.000 A 
BRANCH  15  18
ATOM     18  C   UNL     1      -1.548  11.067  19.452  0.00  0.00    +0.000 C 
ATOM     19  O   UNL     1      -2.431  11.122  18.616  0.00  0.00    +0.000 OA
BRANCH  18  20
ATOM     20  O   UNL     1      -1.562  11.802  20.583  0.00  0.00    +0.000 OA
ATOM     21  H   UNL     1      -1.082  11.415  21.336  0.00  0.00    +0.000 HD
ENDBRANCH  18  20
ENDBRANCH  15  18
ENDBRANCH   3  12
TORSDOF 4
ENDMDL
MODEL 9
REMARK VINA RESULT:      -6.1      4.030      8.187
REMARK  Name = 
REMARK  6 active torsions:
REMARK  status: ('A' for Active; 'I' for Inactive)
REMARK    1  A    between atoms: C_1  and  C_2
REMARK    2  A    between atoms: C_3  and  C_4
REMARK    3  A    between atoms: N_6  and  C_7
REMARK    4  A    between atoms: C_10  and  C_11
REMARK    5  A    between atoms: C_11  and  O_13
REMARK    6  A    between atoms: N_18  and  C_19
REMARK                            x       y       z     vdW  Elec       q    Type
REMARK                         _______ _______ _______ _____ _____    ______ ____
ROOT
ATOM      1  C   UNL     1       3.660   6.473  18.299  0.00  0.00    +0.000 C 
ATOM      2  O   UNL     1       3.826   5.899  19.373  0.00  0.00    +0.000 OA
ATOM      3  N   UNL     1       2.745   7.502  18.118  0.00  0.00    +0.000 N 
ATOM      4  H   UNL     1       2.523   7.776  17.173  0.00  0.00    +0.000 HD
ENDROOT
BRANCH   1   7
ATOM      5  C   UNL     1       4.204   3.433  17.297  0.00  0.00    +0.000 C 
ATOM      6  C   UNL     1       4.638   4.738  16.726  0.00  0.00    +0.000 A 
ATOM      7  C   UNL     1       4.421   6.057  17.123  0.00  0.00    +0.000 A 
ATOM      8  C   UNL     1       5.122   6.814  16.159  0.00  0.00    +0.000 A 
ATOM      9  N   UNL     1       5.714   6.063  15.229  0.00  0.00    +0.000 NA
ATOM     10  N   UNL     1       5.420   4.805  15.600  0.00  0.00    +0.000 N 
ATOM     11  C   UNL     1       5.930   3.689  14.835  0.00  0.00    +0.000 C 
ENDBRANCH   1   7
BRANCH   3  12
ATOM     12  C   UNL     1       2.003   8.116  19.160  0.00  0.00    +0.000 A 
ATOM     13  C   UNL     1       1.862   7.541  20.428  0.00  0.00    +0.000 A 
ATOM     14  C   UNL     1       1.123   8.173  21.431  0.00  0.00    +0.000 A 
ATOM     15  C   UNL     1       0.514   9.402  21.187  0.00  0.00    +0.000 A 
ATOM     16  C   UNL     1       0.668  10.005  19.932  0.00  0.00    +0.000 A 
ATOM     17  C   UNL     1       1.414   9.363  18.927  0.00  0.00    +0.000 A 
BRANCH  15  18
ATOM     18  C   UNL     1      -0.213  10.035  22.319  0.00  0.00    +0.000 C 
ATOM     19  O   UNL     1      -0.225  11.238  22.504  0.00  0.00    +0.000 OA
BRANCH  18  20
ATOM     20  O   UNL     1      -0.831   9.162  23.140  0.00  0.00    +0.000 OA
ATOM     21  H   UNL     1      -1.767   8.992  22.939  0.00  0.00    +0.000 HD
ENDBRANCH  18  20
ENDBRANCH  15  18
ENDBRANCH   3  12
TORSDOF 4
ENDMDL
