MODEL 1
REMARK VINA RESULT:      -9.8      0.000      0.000
REMARK  Name = 
REMARK  8 active torsions:
REMARK  status: ('A' for Active; 'I' for Inactive)
REMARK    1  A    between atoms: C_1  and  C_2
REMARK    2  A    between atoms: C_6  and  C_7
REMARK    3  A    between atoms: C_8  and  C_9
REMARK    4  A    between atoms: N_11  and  N_12
REMARK    5  A    between atoms: C_13  and  C_15
REMARK    6  A    between atoms: C_15  and  C_16
REMARK    7  A    between atoms: N_18  and  C_19
REMARK    8  A    between atoms: C_24  and  O_25
REMARK                            x       y       z     vdW  Elec       q    Type
REMARK                         _______ _______ _______ _____ _____    ______ ____
ROOT
ATOM      1  C   UNL     1       3.074   4.334  19.417  0.00  0.00    +0.000 C 
ATOM      2  C   UNL     1       2.710   3.481  20.659  0.00  0.00    +0.000 C 
ATOM      3  C   UNL     1       1.235   3.090  20.778  0.00  0.00    +0.000 C 
ATOM      4  C   UNL     1       0.658   2.531  19.484  0.00  0.00    +0.000 C 
ATOM      5  C   UNL     1       0.906   3.480  18.323  0.00  0.00    +0.000 C 
ATOM      6  C   UNL     1       2.409   3.726  18.144  0.00  0.00    +0.000 C 
ENDROOT
BRANCH   1   8
ATOM      7  N   UNL     1       2.236   6.316  20.753  0.00  0.00    +0.000 N 
ATOM      8  C   UNL     1       2.579   5.805  19.516  0.00  0.00    +0.000 C 
ATOM      9  O   UNL     1       2.492   6.537  18.521  0.00  0.00    +0.000 OA
ATOM     10  H   UNL     1       2.674   5.963  21.606  0.00  0.00    +0.000 HD
BRANCH   7  13
ATOM     11  C   UNL     1       0.652   8.151  20.955  0.00  0.00    +0.000 C 
ATOM     12  O   UNL     1      -0.260   7.373  21.221  0.00  0.00    +0.000 OA
ATOM     13  N   UNL     1       1.941   7.705  20.756  0.00  0.00    +0.000 N 
ATOM     14  H   UNL     1       2.743   8.315  20.629  0.00  0.00    +0.000 HD
BRANCH  11  22
ATOM     15  C   UNL     1       0.923   9.766  18.318  0.00  0.00    +0.000 C 
ATOM     16  C   UNL     1       0.531  10.369  19.642  0.00  0.00    +0.000 A 
ATOM     17  C   UNL     1       0.245  11.752  19.628  0.00  0.00    +0.000 A 
ATOM     18  C   UNL     1      -0.176  12.416  20.773  0.00  0.00    +0.000 A 
ATOM     19  C   UNL     1      -0.300  11.715  21.963  0.00  0.00    +0.000 A 
ATOM     20  C   UNL     1      -0.006  10.339  22.030  0.00  0.00    +0.000 A 
ATOM     21  C   UNL     1      -0.154   9.674  23.374  0.00  0.00    +0.000 C 
ATOM     22  C   UNL     1       0.416   9.644  20.861  0.00  0.00    +0.000 A 
ENDBRANCH  11  22
ENDBRANCH   7  13
ENDBRANCH   1   8
BRANCH   1  23
ATOM     23  C   UNL     1       4.616   4.314  19.306  0.00  0.00    +0.000 C 
ATOM     24  O   UNL     1       5.292   3.399  19.767  0.00  0.00    +0.000 OA
ATOM     25  N   UNL     1       5.209   5.312  18.556  0.00  0.00    +0.000 N 
ATOM     26  H   UNL     1       4.618   5.943  18.031  0.00  0.00    +0.000 HD
BRANCH  25  27
ATOM     27  C   UNL     1       6.647   5.375  18.246  0.00  0.00    +0.000 C 
ATOM     28  C   UNL     1       7.076   4.551  17.053  0.00  0.00    +0.000 C 
ATOM     29  C   UNL     1       7.422   5.578  16.015  0.00  0.00    +0.000 C 
ATOM     30  O   UNL     1       7.718   5.313  14.859  0.00  0.00    +0.000 OA
ATOM     31  O   UNL     1       7.498   6.818  16.553  0.00  0.00    +0.000 OA
ATOM     32  C   UNL     1       7.187   6.772  17.928  0.00  0.00    +0.000 C 
BRANCH  32  33
ATOM     33  O   UNL     1       8.355   7.049  18.695  0.00  0.00    +0.000 OA
ATOM     34  H   UNL     1       8.526   6.265  19.244  0.00  0.00    +0.000 HD
ENDBRANCH  32  33
ENDBRANCH  25  27
ENDBRANCH   1  23
TORSDOF 6
ENDMDL
MODEL 2
REMARK VINA RESULT:      -9.6      0.189      1.605
REMARK  Name = 
REMARK  8 active torsions:
REMARK  status: ('A' for Active; 'I' for Inactive)
REMARK    1  A    between atoms: C_1  and  C_2
REMARK    2  A    between atoms: C_6  and  C_7
REMARK    3  A    between atoms: C_8  and  C_9
REMARK    4  A    between atoms: N_11  and  N_12
REMARK    5  A    between atoms: C_13  and  C_15
REMARK    6  A    between atoms: C_15  and  C_16
REMARK    7  A    between atoms: N_18  and  C_19
REMARK    8  A    between atoms: C_24  and  O_25
REMARK                            x       y       z     vdW  Elec       q    Type
REMARK                         _______ _______ _______ _____ _____    ______ ____
ROOT
ATOM      1  C   UNL     1       3.108   4.360  19.422  0.00  0.00    +0.000 C 
ATOM      2  C   UNL     1       2.741   3.528  20.679  0.00  0.00    +0.000 C 
ATOM      3  C   UNL     1       1.264   3.152  20.809  0.00  0.00    +0.000 C 
ATOM      4  C   UNL     1       0.679   2.577  19.525  0.00  0.00    +0.000 C 
ATOM      5  C   UNL     1       0.930   3.506  18.349  0.00  0.00    +0.000 C 
ATOM      6  C   UNL     1       2.433   3.737  18.161  0.00  0.00    +0.000 C 
ENDROOT
BRANCH   1   8
ATOM      7  N   UNL     1       2.252   6.356  20.724  0.00  0.00    +0.000 N 
ATOM      8  C   UNL     1       2.626   5.835  19.501  0.00  0.00    +0.000 C 
ATOM      9  O   UNL     1       2.574   6.564  18.500  0.00  0.00    +0.000 OA
ATOM     10  H   UNL     1       2.662   6.003  21.591  0.00  0.00    +0.000 HD
BRANCH   7  13
ATOM     11  C   UNL     1       0.687   8.209  20.911  0.00  0.00    +0.000 C 
ATOM     12  O   UNL     1      -0.232   7.443  21.189  0.00  0.00    +0.000 OA
ATOM     13  N   UNL     1       1.970   7.748  20.712  0.00  0.00    +0.000 N 
ATOM     14  H   UNL     1       2.778   8.348  20.575  0.00  0.00    +0.000 HD
BRANCH  11  22
ATOM     15  C   UNL     1      -0.327   9.970  23.258  0.00  0.00    +0.000 C 
ATOM     16  C   UNL     1       0.013  10.500  21.889  0.00  0.00    +0.000 A 
ATOM     17  C   UNL     1      -0.121  11.895  21.719  0.00  0.00    +0.000 A 
ATOM     18  C   UNL     1       0.208  12.513  20.519  0.00  0.00    +0.000 A 
ATOM     19  C   UNL     1       0.660  11.745  19.456  0.00  0.00    +0.000 A 
ATOM     20  C   UNL     1       0.789  10.347  19.573  0.00  0.00    +0.000 A 
ATOM     21  C   UNL     1       1.269   9.602  18.354  0.00  0.00    +0.000 C 
ATOM     22  C   UNL     1       0.465   9.703  20.801  0.00  0.00    +0.000 A 
ENDBRANCH  11  22
ENDBRANCH   7  13
ENDBRANCH   1   8
BRANCH   1  23
ATOM     23  C   UNL     1       4.650   4.325  19.306  0.00  0.00    +0.000 C 
ATOM     24  O   UNL     1       5.313   3.373  19.707  0.00  0.00    +0.000 OA
ATOM     25  N   UNL     1       5.255   5.360  18.620  0.00  0.00    +0.000 N 
ATOM     26  H   UNL     1       4.672   6.032  18.138  0.00  0.00    +0.000 HD
BRANCH  25  27
ATOM     27  C   UNL     1       6.693   5.424  18.312  0.00  0.00    +0.000 C 
ATOM     28  C   UNL     1       7.125   4.588  17.127  0.00  0.00    +0.000 C 
ATOM     29  C   UNL     1       7.471   5.605  16.079  0.00  0.00    +0.000 C 
ATOM     30  O   UNL     1       7.769   5.328  14.927  0.00  0.00    +0.000 OA
ATOM     31  O   UNL     1       7.544   6.850  16.604  0.00  0.00    +0.000 OA
ATOM     32  C   UNL     1       7.230   6.818  17.979  0.00  0.00    +0.000 C 
BRANCH  32  33
ATOM     33  O   UNL     1       8.397   7.106  18.745  0.00  0.00    +0.000 OA
ATOM     34  H   UNL     1       9.142   6.666  18.302  0.00  0.00    +0.000 HD
ENDBRANCH  32  33
ENDBRANCH  25  27
ENDBRANCH   1  23
TORSDOF 6
ENDMDL
MODEL 3
REMARK VINA RESULT:      -9.3      0.810      1.083
REMARK  Name = 
REMARK  8 active torsions:
REMARK  status: ('A' for Active; 'I' for Inactive)
REMARK    1  A    between atoms: C_1  and  C_2
REMARK    2  A    between atoms: C_6  and  C_7
REMARK    3  A    between atoms: C_8  and  C_9
REMARK    4  A    between atoms: N_11  and  N_12
REMARK    5  A    between atoms: C_13  and  C_15
REMARK    6  A    between atoms: C_15  and  C_16
REMARK    7  A    between atoms: N_18  and  C_19
REMARK    8  A    between atoms: C_24  and  O_25
REMARK                            x       y       z     vdW  Elec       q    Type
REMARK                         _______ _______ _______ _____ _____    ______ ____
ROOT
ATOM      1  C   UNL     1       3.054   4.089  19.482  0.00  0.00    +0.000 C 
ATOM      2  C   UNL     1       2.700   3.343  20.795  0.00  0.00    +0.000 C 
ATOM      3  C   UNL     1       1.217   3.012  20.982  0.00  0.00    +0.000 C 
ATOM      4  C   UNL     1       0.588   2.375  19.749  0.00  0.00    +0.000 C 
ATOM      5  C   UNL     1       0.831   3.226  18.513  0.00  0.00    +0.000 C 
ATOM      6  C   UNL     1       2.335   3.409  18.277  0.00  0.00    +0.000 C 
ENDROOT
BRANCH   1   8
ATOM      7  N   UNL     1       2.349   6.201  20.687  0.00  0.00    +0.000 N 
ATOM      8  C   UNL     1       2.608   5.578  19.482  0.00  0.00    +0.000 C 
ATOM      9  O   UNL     1       2.486   6.228  18.435  0.00  0.00    +0.000 OA
ATOM     10  H   UNL     1       2.824   5.907  21.543  0.00  0.00    +0.000 HD
BRANCH   7  13
ATOM     11  C   UNL     1       0.852   8.107  20.894  0.00  0.00    +0.000 C 
ATOM     12  O   UNL     1      -0.042   7.394  21.342  0.00  0.00    +0.000 OA
ATOM     13  N   UNL     1       2.094   7.595  20.588  0.00  0.00    +0.000 N 
ATOM     14  H   UNL     1       2.891   8.159  20.307  0.00  0.00    +0.000 HD
BRANCH  11  22
ATOM     15  C   UNL     1       1.404   9.545  18.198  0.00  0.00    +0.000 C 
ATOM     16  C   UNL     1       0.891  10.236  19.435  0.00  0.00    +0.000 A 
ATOM     17  C   UNL     1       0.626  11.617  19.304  0.00  0.00    +0.000 A 
ATOM     18  C   UNL     1       0.104  12.357  20.356  0.00  0.00    +0.000 A 
ATOM     19  C   UNL     1      -0.146  11.737  21.571  0.00  0.00    +0.000 A 
ATOM     20  C   UNL     1       0.121  10.366  21.755  0.00  0.00    +0.000 A 
ATOM     21  C   UNL     1      -0.168   9.791  23.118  0.00  0.00    +0.000 C 
ATOM     22  C   UNL     1       0.646   9.593  20.681  0.00  0.00    +0.000 A 
ENDBRANCH  11  22
ENDBRANCH   7  13
ENDBRANCH   1   8
BRANCH   1  23
ATOM     23  C   UNL     1       4.592   4.010  19.333  0.00  0.00    +0.000 C 
ATOM     24  O   UNL     1       5.222   2.992  19.604  0.00  0.00    +0.000 OA
ATOM     25  N   UNL     1       5.228   5.096  18.762  0.00  0.00    +0.000 N 
ATOM     26  H   UNL     1       4.665   5.842  18.374  0.00  0.00    +0.000 HD
BRANCH  25  27
ATOM     27  C   UNL     1       6.663   5.141  18.436  0.00  0.00    +0.000 C 
ATOM     28  C   UNL     1       6.996   5.848  17.141  0.00  0.00    +0.000 C 
ATOM     29  C   UNL     1       7.675   7.110  17.589  0.00  0.00    +0.000 C 
ATOM     30  O   UNL     1       8.010   8.013  16.836  0.00  0.00    +0.000 OA
ATOM     31  O   UNL     1       7.991   7.061  18.904  0.00  0.00    +0.000 OA
ATOM     32  C   UNL     1       7.546   5.846  19.467  0.00  0.00    +0.000 C 
BRANCH  32  33
ATOM     33  O   UNL     1       8.667   5.037  19.810  0.00  0.00    +0.000 OA
ATOM     34  H   UNL     1       9.280   5.600  20.312  0.00  0.00    +0.000 HD
ENDBRANCH  32  33
ENDBRANCH  25  27
ENDBRANCH   1  23
TORSDOF 6
ENDMDL
MODEL 4
REMARK VINA RESULT:      -9.3      0.879      1.115
REMARK  Name = 
REMARK  8 active torsions:
REMARK  status: ('A' for Active; 'I' for Inactive)
REMARK    1  A    between atoms: C_1  and  C_2
REMARK    2  A    between atoms: C_6  and  C_7
REMARK    3  A    between atoms: C_8  and  C_9
REMARK    4  A    between atoms: N_11  and  N_12
REMARK    5  A    between atoms: C_13  and  C_15
REMARK    6  A    between atoms: C_15  and  C_16
REMARK    7  A    between atoms: N_18  and  C_19
REMARK    8  A    between atoms: C_24  and  O_25
REMARK                            x       y       z     vdW  Elec       q    Type
REMARK                         _______ _______ _______ _____ _____    ______ ____
ROOT
ATOM      1  C   UNL     1       3.027   4.366  19.350  0.00  0.00    +0.000 C 
ATOM      2  C   UNL     1       3.038   3.600  20.698  0.00  0.00    +0.000 C 
ATOM      3  C   UNL     1       1.663   3.185  21.227  0.00  0.00    +0.000 C 
ATOM      4  C   UNL     1       0.793   2.516  20.170  0.00  0.00    +0.000 C 
ATOM      5  C   UNL     1       0.688   3.381  18.925  0.00  0.00    +0.000 C 
ATOM      6  C   UNL     1       2.079   3.649  18.341  0.00  0.00    +0.000 C 
ENDROOT
BRANCH   1   8
ATOM      7  N   UNL     1       2.253   6.340  20.735  0.00  0.00    +0.000 N 
ATOM      8  C   UNL     1       2.515   5.828  19.479  0.00  0.00    +0.000 C 
ATOM      9  O   UNL     1       2.340   6.553  18.490  0.00  0.00    +0.000 OA
ATOM     10  H   UNL     1       2.759   6.000  21.555  0.00  0.00    +0.000 HD
BRANCH   7  13
ATOM     11  C   UNL     1       0.638   8.144  20.968  0.00  0.00    +0.000 C 
ATOM     12  O   UNL     1      -0.257   7.347  21.235  0.00  0.00    +0.000 OA
ATOM     13  N   UNL     1       1.933   7.723  20.753  0.00  0.00    +0.000 N 
ATOM     14  H   UNL     1       2.723   8.349  20.624  0.00  0.00    +0.000 HD
BRANCH  11  22
ATOM     15  C   UNL     1       0.803   9.778  18.334  0.00  0.00    +0.000 C 
ATOM     16  C   UNL     1       0.440  10.367  19.672  0.00  0.00    +0.000 A 
ATOM     17  C   UNL     1       0.131  11.744  19.675  0.00  0.00    +0.000 A 
ATOM     18  C   UNL     1      -0.266  12.395  20.835  0.00  0.00    +0.000 A 
ATOM     19  C   UNL     1      -0.343  11.686  22.024  0.00  0.00    +0.000 A 
ATOM     20  C   UNL     1      -0.024  10.315  22.075  0.00  0.00    +0.000 A 
ATOM     21  C   UNL     1      -0.121   9.640  23.419  0.00  0.00    +0.000 C 
ATOM     22  C   UNL     1       0.374   9.633  20.890  0.00  0.00    +0.000 A 
ENDBRANCH  11  22
ENDBRANCH   7  13
ENDBRANCH   1   8
BRANCH   1  23
ATOM     23  C   UNL     1       4.487   4.374  18.838  0.00  0.00    +0.000 C 
ATOM     24  O   UNL     1       5.406   3.872  19.478  0.00  0.00    +0.000 OA
ATOM     25  N   UNL     1       4.708   4.864  17.564  0.00  0.00    +0.000 N 
ATOM     26  H   UNL     1       3.910   5.096  16.987  0.00  0.00    +0.000 HD
BRANCH  25  27
ATOM     27  C   UNL     1       6.008   4.834  16.876  0.00  0.00    +0.000 C 
ATOM     28  C   UNL     1       6.168   3.717  15.870  0.00  0.00    +0.000 C 
ATOM     29  C   UNL     1       6.164   4.424  14.546  0.00  0.00    +0.000 C 
ATOM     30  O   UNL     1       6.168   3.856  13.464  0.00  0.00    +0.000 OA
ATOM     31  O   UNL     1       6.294   5.762  14.701  0.00  0.00    +0.000 OA
ATOM     32  C   UNL     1       6.353   6.090  16.073  0.00  0.00    +0.000 C 
BRANCH  32  33
ATOM     33  O   UNL     1       7.658   6.558  16.399  0.00  0.00    +0.000 OA
ATOM     34  H   UNL     1       7.654   7.521  16.271  0.00  0.00    +0.000 HD
ENDBRANCH  32  33
ENDBRANCH  25  27
ENDBRANCH   1  23
TORSDOF 6
ENDMDL
MODEL 5
REMARK VINA RESULT:      -9.2      0.869      1.952
REMARK  Name = 
REMARK  8 active torsions:
REMARK  status: ('A' for Active; 'I' for Inactive)
REMARK    1  A    between atoms: C_1  and  C_2
REMARK    2  A    between atoms: C_6  and  C_7
REMARK    3  A    between atoms: C_8  and  C_9
REMARK    4  A    between atoms: N_11  and  N_12
REMARK    5  A    between atoms: C_13  and  C_15
REMARK    6  A    between atoms: C_15  and  C_16
REMARK    7  A    between atoms: N_18  and  C_19
REMARK    8  A    between atoms: C_24  and  O_25
REMARK                            x       y       z     vdW  Elec       q    Type
REMARK                         _______ _______ _______ _____ _____    ______ ____
ROOT
ATOM      1  C   UNL     1       3.101   4.285  19.377  0.00  0.00    +0.000 C 
ATOM      2  C   UNL     1       2.716   3.445  20.623  0.00  0.00    +0.000 C 
ATOM      3  C   UNL     1       1.233   3.084  20.738  0.00  0.00    +0.000 C 
ATOM      4  C   UNL     1       0.652   2.527  19.444  0.00  0.00    +0.000 C 
ATOM      5  C   UNL     1       0.923   3.465  18.279  0.00  0.00    +0.000 C 
ATOM      6  C   UNL     1       2.430   3.682  18.106  0.00  0.00    +0.000 C 
ENDROOT
BRANCH   1   8
ATOM      7  N   UNL     1       2.262   6.279  20.693  0.00  0.00    +0.000 N 
ATOM      8  C   UNL     1       2.635   5.765  19.466  0.00  0.00    +0.000 C 
ATOM      9  O   UNL     1       2.595   6.502  18.472  0.00  0.00    +0.000 OA
ATOM     10  H   UNL     1       2.665   5.915  21.558  0.00  0.00    +0.000 HD
BRANCH   7  13
ATOM     11  C   UNL     1       0.717   8.147  20.892  0.00  0.00    +0.000 C 
ATOM     12  O   UNL     1      -0.211   7.390  21.163  0.00  0.00    +0.000 OA
ATOM     13  N   UNL     1       1.995   7.674  20.691  0.00  0.00    +0.000 N 
ATOM     14  H   UNL     1       2.810   8.267  20.560  0.00  0.00    +0.000 HD
BRANCH  11  22
ATOM     15  C   UNL     1      -0.289   9.900  23.249  0.00  0.00    +0.000 C 
ATOM     16  C   UNL     1       0.062  10.438  21.886  0.00  0.00    +0.000 A 
ATOM     17  C   UNL     1      -0.056  11.835  21.726  0.00  0.00    +0.000 A 
ATOM     18  C   UNL     1       0.284  12.459  20.533  0.00  0.00    +0.000 A 
ATOM     19  C   UNL     1       0.733  11.696  19.466  0.00  0.00    +0.000 A 
ATOM     20  C   UNL     1       0.847  10.295  19.572  0.00  0.00    +0.000 A 
ATOM     21  C   UNL     1       1.325   9.555  18.348  0.00  0.00    +0.000 C 
ATOM     22  C   UNL     1       0.511   9.645  20.792  0.00  0.00    +0.000 A 
ENDBRANCH  11  22
ENDBRANCH   7  13
ENDBRANCH   1   8
BRANCH   1  23
ATOM     23  C   UNL     1       4.644   4.234  19.274  0.00  0.00    +0.000 C 
ATOM     24  O   UNL     1       5.294   3.273  19.674  0.00  0.00    +0.000 OA
ATOM     25  N   UNL     1       5.266   5.267  18.597  0.00  0.00    +0.000 N 
ATOM     26  H   UNL     1       4.693   5.947  18.115  0.00  0.00    +0.000 HD
BRANCH  25  27
ATOM     27  C   UNL     1       6.706   5.317  18.301  0.00  0.00    +0.000 C 
ATOM     28  C   UNL     1       7.076   6.142  17.089  0.00  0.00    +0.000 C 
ATOM     29  C   UNL     1       7.768   7.341  17.669  0.00  0.00    +0.000 C 
ATOM     30  O   UNL     1       8.132   8.307  17.015  0.00  0.00    +0.000 OA
ATOM     31  O   UNL     1       8.059   7.157  18.978  0.00  0.00    +0.000 OA
ATOM     32  C   UNL     1       7.583   5.901  19.411  0.00  0.00    +0.000 C 
BRANCH  32  33
ATOM     33  O   UNL     1       8.684   5.041  19.691  0.00  0.00    +0.000 OA
ATOM     34  H   UNL     1       9.480   5.598  19.712  0.00  0.00    +0.000 HD
ENDBRANCH  32  33
ENDBRANCH  25  27
ENDBRANCH   1  23
TORSDOF 6
ENDMDL
MODEL 6
REMARK VINA RESULT:      -9.1      1.024      1.966
REMARK  Name = 
REMARK  8 active torsions:
REMARK  status: ('A' for Active; 'I' for Inactive)
REMARK    1  A    between atoms: C_1  and  C_2
REMARK    2  A    between atoms: C_6  and  C_7
REMARK    3  A    between atoms: C_8  and  C_9
REMARK    4  A    between atoms: N_11  and  N_12
REMARK    5  A    between atoms: C_13  and  C_15
REMARK    6  A    between atoms: C_15  and  C_16
REMARK    7  A    between atoms: N_18  and  C_19
REMARK    8  A    between atoms: C_24  and  O_25
REMARK                            x       y       z     vdW  Elec       q    Type
REMARK                         _______ _______ _______ _____ _____    ______ ____
ROOT
ATOM      1  C   UNL     1       3.029   4.073  19.134  0.00  0.00    +0.000 C 
ATOM      2  C   UNL     1       2.899   3.379  20.515  0.00  0.00    +0.000 C 
ATOM      3  C   UNL     1       1.467   3.097  20.977  0.00  0.00    +0.000 C 
ATOM      4  C   UNL     1       0.611   2.442  19.900  0.00  0.00    +0.000 C 
ATOM      5  C   UNL     1       0.648   3.246  18.611  0.00  0.00    +0.000 C 
ATOM      6  C   UNL     1       2.089   3.377  18.103  0.00  0.00    +0.000 C 
ENDROOT
BRANCH   1   8
ATOM      7  N   UNL     1       2.389   6.184  20.377  0.00  0.00    +0.000 N 
ATOM      8  C   UNL     1       2.626   5.574  19.161  0.00  0.00    +0.000 C 
ATOM      9  O   UNL     1       2.518   6.243  18.125  0.00  0.00    +0.000 OA
ATOM     10  H   UNL     1       2.860   5.862  21.226  0.00  0.00    +0.000 HD
BRANCH   7  13
ATOM     11  C   UNL     1       0.948   8.128  20.622  0.00  0.00    +0.000 C 
ATOM     12  O   UNL     1       0.037   7.434  21.063  0.00  0.00    +0.000 OA
ATOM     13  N   UNL     1       2.174   7.586  20.301  0.00  0.00    +0.000 N 
ATOM     14  H   UNL     1       2.985   8.131  20.025  0.00  0.00    +0.000 HD
BRANCH  11  22
ATOM     15  C   UNL     1       0.041  10.051  22.884  0.00  0.00    +0.000 C 
ATOM     16  C   UNL     1       0.380  10.494  21.484  0.00  0.00    +0.000 A 
ATOM     17  C   UNL     1       0.299  11.882  21.241  0.00  0.00    +0.000 A 
ATOM     18  C   UNL     1       0.634  12.421  20.006  0.00  0.00    +0.000 A 
ATOM     19  C   UNL     1       1.038  11.581  18.980  0.00  0.00    +0.000 A 
ATOM     20  C   UNL     1       1.114  10.187  19.170  0.00  0.00    +0.000 A 
ATOM     21  C   UNL     1       1.546   9.359  17.986  0.00  0.00    +0.000 C 
ATOM     22  C   UNL     1       0.784   9.622  20.434  0.00  0.00    +0.000 A 
ENDBRANCH  11  22
ENDBRANCH   7  13
ENDBRANCH   1   8
BRANCH   1  23
ATOM     23  C   UNL     1       4.513   3.943  18.716  0.00  0.00    +0.000 C 
ATOM     24  O   UNL     1       5.400   3.691  19.526  0.00  0.00    +0.000 OA
ATOM     25  N   UNL     1       4.795   4.002  17.364  0.00  0.00    +0.000 N 
ATOM     26  H   UNL     1       4.027   4.021  16.706  0.00  0.00    +0.000 HD
BRANCH  25  27
ATOM     27  C   UNL     1       6.129   3.778  16.784  0.00  0.00    +0.000 C 
ATOM     28  C   UNL     1       6.180   3.832  15.273  0.00  0.00    +0.000 C 
ATOM     29  C   UNL     1       6.931   5.099  14.986  0.00  0.00    +0.000 C 
ATOM     30  O   UNL     1       7.096   5.560  13.866  0.00  0.00    +0.000 OA
ATOM     31  O   UNL     1       7.517   5.590  16.103  0.00  0.00    +0.000 OA
ATOM     32  C   UNL     1       7.206   4.777  17.213  0.00  0.00    +0.000 C 
BRANCH  32  33
ATOM     33  O   UNL     1       8.378   4.097  17.655  0.00  0.00    +0.000 OA
ATOM     34  H   UNL     1       8.639   3.491  16.941  0.00  0.00    +0.000 HD
ENDBRANCH  32  33
ENDBRANCH  25  27
ENDBRANCH   1  23
TORSDOF 6
ENDMDL
MODEL 7
REMARK VINA RESULT:      -9.0      0.975      2.015
REMARK  Name = 
REMARK  8 active torsions:
REMARK  status: ('A' for Active; 'I' for Inactive)
REMARK    1  A    between atoms: C_1  and  C_2
REMARK    2  A    between atoms: C_6  and  C_7
REMARK    3  A    between atoms: C_8  and  C_9
REMARK    4  A    between atoms: N_11  and  N_12
REMARK    5  A    between atoms: C_13  and  C_15
REMARK    6  A    between atoms: C_15  and  C_16
REMARK    7  A    between atoms: N_18  and  C_19
REMARK    8  A    between atoms: C_24  and  O_25
REMARK                            x       y       z     vdW  Elec       q    Type
REMARK                         _______ _______ _______ _____ _____    ______ ____
ROOT
ATOM      1  C   UNL     1       3.120   4.408  19.449  0.00  0.00    +0.000 C 
ATOM      2  C   UNL     1       3.208   3.715  20.833  0.00  0.00    +0.000 C 
ATOM      3  C   UNL     1       1.868   3.319  21.456  0.00  0.00    +0.000 C 
ATOM      4  C   UNL     1       0.950   2.589  20.484  0.00  0.00    +0.000 C 
ATOM      5  C   UNL     1       0.771   3.385  19.202  0.00  0.00    +0.000 C 
ATOM      6  C   UNL     1       2.128   3.630  18.531  0.00  0.00    +0.000 C 
ENDROOT
BRANCH   1   8
ATOM      7  N   UNL     1       2.208   6.380  20.749  0.00  0.00    +0.000 N 
ATOM      8  C   UNL     1       2.600   5.871  19.527  0.00  0.00    +0.000 C 
ATOM      9  O   UNL     1       2.535   6.598  18.527  0.00  0.00    +0.000 OA
ATOM     10  H   UNL     1       2.623   6.036  21.618  0.00  0.00    +0.000 HD
BRANCH   7  13
ATOM     11  C   UNL     1       0.602   8.194  20.967  0.00  0.00    +0.000 C 
ATOM     12  O   UNL     1      -0.290   7.407  21.273  0.00  0.00    +0.000 OA
ATOM     13  N   UNL     1       1.891   7.764  20.737  0.00  0.00    +0.000 N 
ATOM     14  H   UNL     1       2.680   8.384  20.577  0.00  0.00    +0.000 HD
BRANCH  11  22
ATOM     15  C   UNL     1      -0.360   9.950  23.340  0.00  0.00    +0.000 C 
ATOM     16  C   UNL     1      -0.088  10.477  21.955  0.00  0.00    +0.000 A 
ATOM     17  C   UNL     1      -0.262  11.866  21.780  0.00  0.00    +0.000 A 
ATOM     18  C   UNL     1       0.004  12.482  20.564  0.00  0.00    +0.000 A 
ATOM     19  C   UNL     1       0.431  11.717  19.489  0.00  0.00    +0.000 A 
ATOM     20  C   UNL     1       0.599  10.323  19.611  0.00  0.00    +0.000 A 
ATOM     21  C   UNL     1       1.048   9.580  18.378  0.00  0.00    +0.000 C 
ATOM     22  C   UNL     1       0.340   9.682  20.855  0.00  0.00    +0.000 A 
ENDBRANCH  11  22
ENDBRANCH   7  13
ENDBRANCH   1   8
BRANCH   1  23
ATOM     23  C   UNL     1       4.551   4.398  18.861  0.00  0.00    +0.000 C 
ATOM     24  O   UNL     1       5.513   3.972  19.493  0.00  0.00    +0.000 OA
ATOM     25  N   UNL     1       4.693   4.777  17.539  0.00  0.00    +0.000 N 
ATOM     26  H   UNL     1       3.861   4.940  16.987  0.00  0.00    +0.000 HD
BRANCH  25  27
ATOM     27  C   UNL     1       5.957   4.711  16.788  0.00  0.00    +0.000 C 
ATOM     28  C   UNL     1       6.020   3.614  15.748  0.00  0.00    +0.000 C 
ATOM     29  C   UNL     1       5.983   4.355  14.444  0.00  0.00    +0.000 C 
ATOM     30  O   UNL     1       5.911   3.816  13.350  0.00  0.00    +0.000 OA
ATOM     31  O   UNL     1       6.177   5.682  14.625  0.00  0.00    +0.000 OA
ATOM     32  C   UNL     1       6.316   5.972  15.999  0.00  0.00    +0.000 C 
BRANCH  32  33
ATOM     33  O   UNL     1       7.654   6.376  16.272  0.00  0.00    +0.000 OA
ATOM     34  H   UNL     1       7.602   7.160  16.844  0.00  0.00    +0.000 HD
ENDBRANCH  32  33
ENDBRANCH  25  27
ENDBRANCH   1  23
TORSDOF 6
ENDMDL
MODEL 8
REMARK VINA RESULT:      -8.9      1.070      2.151
REMARK  Name = 
REMARK  8 active torsions:
REMARK  status: ('A' for Active; 'I' for Inactive)
REMARK    1  A    between atoms: C_1  and  C_2
REMARK    2  A    between atoms: C_6  and  C_7
REMARK    3  A    between atoms: C_8  and  C_9
REMARK    4  A    between atoms: N_11  and  N_12
REMARK    5  A    between atoms: C_13  and  C_15
REMARK    6  A    between atoms: C_15  and  C_16
REMARK    7  A    between atoms: N_18  and  C_19
REMARK    8  A    between atoms: C_24  and  O_25
REMARK                            x       y       z     vdW  Elec       q    Type
REMARK                         _______ _______ _______ _____ _____    ______ ____
ROOT
ATOM      1  C   UNL     1       2.714   4.422  19.318  0.00  0.00    +0.000 C 
ATOM      2  C   UNL     1       3.247   3.820  20.644  0.00  0.00    +0.000 C 
ATOM      3  C   UNL     1       2.182   3.507  21.698  0.00  0.00    +0.000 C 
ATOM      4  C   UNL     1       0.990   2.742  21.134  0.00  0.00    +0.000 C 
ATOM      5  C   UNL     1       0.407   3.457  19.926  0.00  0.00    +0.000 C 
ATOM      6  C   UNL     1       1.470   3.616  18.834  0.00  0.00    +0.000 C 
ENDROOT
BRANCH   1   8
ATOM      7  N   UNL     1       2.021   6.417  20.714  0.00  0.00    +0.000 N 
ATOM      8  C   UNL     1       2.259   5.902  19.455  0.00  0.00    +0.000 C 
ATOM      9  O   UNL     1       2.111   6.637  18.469  0.00  0.00    +0.000 OA
ATOM     10  H   UNL     1       2.515   6.055  21.531  0.00  0.00    +0.000 HD
BRANCH   7  13
ATOM     11  C   UNL     1       0.481   8.282  20.974  0.00  0.00    +0.000 C 
ATOM     12  O   UNL     1      -0.441   7.520  21.253  0.00  0.00    +0.000 OA
ATOM     13  N   UNL     1       1.755   7.812  20.739  0.00  0.00    +0.000 N 
ATOM     14  H   UNL     1       2.566   8.407  20.600  0.00  0.00    +0.000 HD
BRANCH  11  22
ATOM     15  C   UNL     1      -0.436  10.005  23.389  0.00  0.00    +0.000 C 
ATOM     16  C   UNL     1      -0.134  10.560  22.021  0.00  0.00    +0.000 A 
ATOM     17  C   UNL     1      -0.257  11.959  21.884  0.00  0.00    +0.000 A 
ATOM     18  C   UNL     1       0.041  12.599  20.687  0.00  0.00    +0.000 A 
ATOM     19  C   UNL     1       0.448  11.849  19.595  0.00  0.00    +0.000 A 
ATOM     20  C   UNL     1       0.565  10.447  19.678  0.00  0.00    +0.000 A 
ATOM     21  C   UNL     1       0.997   9.723  18.428  0.00  0.00    +0.000 C 
ATOM     22  C   UNL     1       0.273   9.781  20.902  0.00  0.00    +0.000 A 
ENDBRANCH  11  22
ENDBRANCH   7  13
ENDBRANCH   1   8
BRANCH   1  23
ATOM     23  C   UNL     1       3.873   4.330  18.297  0.00  0.00    +0.000 C 
ATOM     24  O   UNL     1       3.747   3.762  17.217  0.00  0.00    +0.000 OA
ATOM     25  N   UNL     1       5.033   5.021  18.594  0.00  0.00    +0.000 N 
ATOM     26  H   UNL     1       5.042   5.634  19.398  0.00  0.00    +0.000 HD
BRANCH  25  27
ATOM     27  C   UNL     1       6.183   5.141  17.684  0.00  0.00    +0.000 C 
ATOM     28  C   UNL     1       6.250   6.443  16.916  0.00  0.00    +0.000 C 
ATOM     29  C   UNL     1       7.424   7.155  17.522  0.00  0.00    +0.000 C 
ATOM     30  O   UNL     1       7.750   8.300  17.244  0.00  0.00    +0.000 OA
ATOM     31  O   UNL     1       8.151   6.328  18.308  0.00  0.00    +0.000 OA
ATOM     32  C   UNL     1       7.557   5.049  18.351  0.00  0.00    +0.000 C 
BRANCH  32  33
ATOM     33  O   UNL     1       8.387   4.111  17.671  0.00  0.00    +0.000 OA
ATOM     34  H   UNL     1       8.263   3.253  18.111  0.00  0.00    +0.000 HD
ENDBRANCH  32  33
ENDBRANCH  25  27
ENDBRANCH   1  23
TORSDOF 6
ENDMDL
MODEL 9
REMARK VINA RESULT:      -8.7      1.042      1.874
REMARK  Name = 
REMARK  8 active torsions:
REMARK  status: ('A' for Active; 'I' for Inactive)
REMARK    1  A    between atoms: C_1  and  C_2
REMARK    2  A    between atoms: C_6  and  C_7
REMARK    3  A    between atoms: C_8  and  C_9
REMARK    4  A    between atoms: N_11  and  N_12
REMARK    5  A    between atoms: C_13  and  C_15
REMARK    6  A    between atoms: C_15  and  C_16
REMARK    7  A    between atoms: N_18  and  C_19
REMARK    8  A    between atoms: C_24  and  O_25
REMARK                            x       y       z     vdW  Elec       q    Type
REMARK                         _______ _______ _______ _____ _____    ______ ____
ROOT
ATOM      1  C   UNL     1       3.157   4.140  19.351  0.00  0.00    +0.000 C 
ATOM      2  C   UNL     1       2.796   2.875  20.172  0.00  0.00    +0.000 C 
ATOM      3  C   UNL     1       1.325   2.457  20.122  0.00  0.00    +0.000 C 
ATOM      4  C   UNL     1       0.759   2.429  18.708  0.00  0.00    +0.000 C 
ATOM      5  C   UNL     1       1.003   3.750  17.998  0.00  0.00    +0.000 C 
ATOM      6  C   UNL     1       2.503   4.057  17.938  0.00  0.00    +0.000 C 
ENDROOT
BRANCH   1   8
ATOM      7  N   UNL     1       2.791   6.645  19.309  0.00  0.00    +0.000 N 
ATOM      8  C   UNL     1       2.648   5.458  20.000  0.00  0.00    +0.000 C 
ATOM      9  O   UNL     1       2.109   5.476  21.115  0.00  0.00    +0.000 OA
ATOM     10  H   UNL     1       2.803   6.659  18.287  0.00  0.00    +0.000 HD
BRANCH   7  13
ATOM     11  C   UNL     1       1.479   8.688  19.162  0.00  0.00    +0.000 C 
ATOM     12  O   UNL     1       1.317   8.533  17.955  0.00  0.00    +0.000 OA
ATOM     13  N   UNL     1       2.164   7.763  19.920  0.00  0.00    +0.000 N 
ATOM     14  H   UNL     1       2.241   7.799  20.933  0.00  0.00    +0.000 HD
BRANCH  11  22
ATOM     15  C   UNL     1      -0.383   8.476  21.637  0.00  0.00    +0.000 C 
ATOM     16  C   UNL     1       0.070   9.778  21.030  0.00  0.00    +0.000 A 
ATOM     17  C   UNL     1      -0.378  10.949  21.679  0.00  0.00    +0.000 A 
ATOM     18  C   UNL     1       0.009  12.210  21.247  0.00  0.00    +0.000 A 
ATOM     19  C   UNL     1       0.838  12.329  20.141  0.00  0.00    +0.000 A 
ATOM     20  C   UNL     1       1.293  11.190  19.448  0.00  0.00    +0.000 A 
ATOM     21  C   UNL     1       2.173  11.428  18.248  0.00  0.00    +0.000 C 
ATOM     22  C   UNL     1       0.912   9.891  19.888  0.00  0.00    +0.000 A 
ENDBRANCH  11  22
ENDBRANCH   7  13
ENDBRANCH   1   8
BRANCH   1  23
ATOM     23  C   UNL     1       4.700   4.175  19.253  0.00  0.00    +0.000 C 
ATOM     24  O   UNL     1       5.403   3.278  19.709  0.00  0.00    +0.000 OA
ATOM     25  N   UNL     1       5.264   5.202  18.520  0.00  0.00    +0.000 N 
ATOM     26  H   UNL     1       4.655   5.819  17.998  0.00  0.00    +0.000 HD
BRANCH  25  27
ATOM     27  C   UNL     1       6.700   5.320  18.223  0.00  0.00    +0.000 C 
ATOM     28  C   UNL     1       7.166   4.529  17.021  0.00  0.00    +0.000 C 
ATOM     29  C   UNL     1       7.485   5.584  16.002  0.00  0.00    +0.000 C 
ATOM     30  O   UNL     1       7.799   5.347  14.844  0.00  0.00    +0.000 OA
ATOM     31  O   UNL     1       7.514   6.817  16.559  0.00  0.00    +0.000 OA
ATOM     32  C   UNL     1       7.194   6.739  17.931  0.00  0.00    +0.000 C 
BRANCH  32  33
ATOM     33  O   UNL     1       8.346   7.044  18.712  0.00  0.00    +0.000 OA
ATOM     34  H   UNL     1       8.631   6.215  19.132  0.00  0.00    +0.000 HD
ENDBRANCH  32  33
ENDBRANCH  25  27
ENDBRANCH   1  23
TORSDOF 6
ENDMDL
