MODEL 1
REMARK VINA RESULT:      -7.3      0.000      0.000
REMARK  Name = 
REMARK  6 active torsions:
REMARK  status: ('A' for Active; 'I' for Inactive)
REMARK    1  A    between atoms: P_2  and  O_3
REMARK    2  A    between atoms: P_2  and  O_4
REMARK    3  A    between atoms: P_2  and  C_5
REMARK    4  A    between atoms: C_5  and  O_6
REMARK    5  A    between atoms: C_5  and  C_7
REMARK    6  A    between atoms: C_5  and  C_13
REMARK                            x       y       z     vdW  Elec       q    Type
REMARK                         _______ _______ _______ _____ _____    ______ ____
ROOT
ATOM      1  C   UNL     1       5.457   5.618  16.030  0.00  0.00    +0.000 C 
ENDROOT
BRANCH   1   2
ATOM      2  C   UNL     1       4.213   5.159  16.902  0.00  0.00    +0.000 A 
ATOM      3  C   UNL     1       3.530   6.069  17.752  0.00  0.00    +0.000 A 
ATOM      4  C   UNL     1       2.414   5.717  18.513  0.00  0.00    +0.000 A 
ATOM      5  C   UNL     1       1.939   4.415  18.462  0.00  0.00    +0.000 A 
ATOM      6  C   UNL     1       2.582   3.491  17.642  0.00  0.00    +0.000 A 
ATOM      7  C   UNL     1       3.690   3.857  16.859  0.00  0.00    +0.000 A 
ENDBRANCH   1   2
BRANCH   1   8
ATOM      8  C   UNL     1       6.650   5.993  17.004  0.00  0.00    +0.000 A 
ATOM      9  C   UNL     1       7.040   5.139  18.045  0.00  0.00    +0.000 A 
ATOM     10  C   UNL     1       7.877   5.590  19.081  0.00  0.00    +0.000 A 
ATOM     11  C   UNL     1       8.345   6.903  19.109  0.00  0.00    +0.000 A 
ATOM     12  C   UNL     1       8.018   7.759  18.074  0.00  0.00    +0.000 A 
ATOM     13  C   UNL     1       7.191   7.308  17.040  0.00  0.00    +0.000 A 
ENDBRANCH   1   8
BRANCH   1  15
ATOM     14  O   UNL     1       6.435   3.620  13.488  0.00  0.00    +0.000 OA
ATOM     15  P   UNL     1       5.987   4.536  14.653  0.00  0.00    +0.000 P 
BRANCH  15  16
ATOM     16  O   UNL     1       6.433   3.306  15.639  0.00  0.00    +0.000 OA
ATOM     17  H   UNL     1       7.168   3.651  16.185  0.00  0.00    +0.000 HD
ENDBRANCH  15  16
BRANCH  15  18
ATOM     18  O   UNL     1       7.475   5.227  14.558  0.00  0.00    +0.000 OA
ATOM     19  H   UNL     1       7.767   5.406  15.474  0.00  0.00    +0.000 HD
ENDBRANCH  15  18
ENDBRANCH   1  15
BRANCH   1  20
ATOM     20  O   UNL     1       5.070   6.843  15.346  0.00  0.00    +0.000 OA
ATOM     21  H   UNL     1       4.274   6.627  14.830  0.00  0.00    +0.000 HD
ENDBRANCH   1  20
TORSDOF 6
ENDMDL
MODEL 2
REMARK VINA RESULT:      -7.3      0.035      1.129
REMARK  Name = 
REMARK  6 active torsions:
REMARK  status: ('A' for Active; 'I' for Inactive)
REMARK    1  A    between atoms: P_2  and  O_3
REMARK    2  A    between atoms: P_2  and  O_4
REMARK    3  A    between atoms: P_2  and  C_5
REMARK    4  A    between atoms: C_5  and  O_6
REMARK    5  A    between atoms: C_5  and  C_7
REMARK    6  A    between atoms: C_5  and  C_13
REMARK                            x       y       z     vdW  Elec       q    Type
REMARK                         _______ _______ _______ _____ _____    ______ ____
ROOT
ATOM      1  C   UNL     1       5.455   5.638  16.025  0.00  0.00    +0.000 C 
ENDROOT
BRANCH   1   2
ATOM      2  C   UNL     1       4.199   5.206  16.893  0.00  0.00    +0.000 A 
ATOM      3  C   UNL     1       3.700   3.877  16.860  0.00  0.00    +0.000 A 
ATOM      4  C   UNL     1       2.618   3.444  17.628  0.00  0.00    +0.000 A 
ATOM      5  C   UNL     1       1.974   4.345  18.463  0.00  0.00    +0.000 A 
ATOM      6  C   UNL     1       2.431   5.659  18.523  0.00  0.00    +0.000 A 
ATOM      7  C   UNL     1       3.536   6.083  17.766  0.00  0.00    +0.000 A 
ENDBRANCH   1   2
BRANCH   1   8
ATOM      8  C   UNL     1       6.649   6.002  17.003  0.00  0.00    +0.000 A 
ATOM      9  C   UNL     1       7.028   5.144  18.044  0.00  0.00    +0.000 A 
ATOM     10  C   UNL     1       7.866   5.587  19.084  0.00  0.00    +0.000 A 
ATOM     11  C   UNL     1       8.345   6.896  19.114  0.00  0.00    +0.000 A 
ATOM     12  C   UNL     1       8.028   7.755  18.079  0.00  0.00    +0.000 A 
ATOM     13  C   UNL     1       7.201   7.312  17.042  0.00  0.00    +0.000 A 
ENDBRANCH   1   8
BRANCH   1  15
ATOM     14  O   UNL     1       6.416   3.602  13.507  0.00  0.00    +0.000 OA
ATOM     15  P   UNL     1       5.975   4.535  14.661  0.00  0.00    +0.000 P 
BRANCH  15  16
ATOM     16  O   UNL     1       6.424   3.318  15.662  0.00  0.00    +0.000 OA
ATOM     17  H   UNL     1       7.315   3.040  15.365  0.00  0.00    +0.000 HD
ENDBRANCH  15  16
BRANCH  15  18
ATOM     18  O   UNL     1       7.465   5.221  14.548  0.00  0.00    +0.000 OA
ATOM     19  H   UNL     1       7.344   6.186  14.649  0.00  0.00    +0.000 HD
ENDBRANCH  15  18
ENDBRANCH   1  15
BRANCH   1  20
ATOM     20  O   UNL     1       5.092   6.862  15.328  0.00  0.00    +0.000 OA
ATOM     21  H   UNL     1       4.944   7.534  16.015  0.00  0.00    +0.000 HD
ENDBRANCH   1  20
TORSDOF 6
ENDMDL
MODEL 3
REMARK VINA RESULT:      -7.2      3.364      4.534
REMARK  Name = 
REMARK  6 active torsions:
REMARK  status: ('A' for Active; 'I' for Inactive)
REMARK    1  A    between atoms: P_2  and  O_3
REMARK    2  A    between atoms: P_2  and  O_4
REMARK    3  A    between atoms: P_2  and  C_5
REMARK    4  A    between atoms: C_5  and  O_6
REMARK    5  A    between atoms: C_5  and  C_7
REMARK    6  A    between atoms: C_5  and  C_13
REMARK                            x       y       z     vdW  Elec       q    Type
REMARK                         _______ _______ _______ _____ _____    ______ ____
ROOT
ATOM      1  C   UNL     1       3.727   5.429  18.576  0.00  0.00    +0.000 C 
ENDROOT
BRANCH   1   2
ATOM      2  C   UNL     1       2.696   4.329  19.071  0.00  0.00    +0.000 A 
ATOM      3  C   UNL     1       2.595   3.975  20.443  0.00  0.00    +0.000 A 
ATOM      4  C   UNL     1       1.683   3.036  20.928  0.00  0.00    +0.000 A 
ATOM      5  C   UNL     1       0.832   2.394  20.040  0.00  0.00    +0.000 A 
ATOM      6  C   UNL     1       0.901   2.711  18.686  0.00  0.00    +0.000 A 
ATOM      7  C   UNL     1       1.804   3.675  18.207  0.00  0.00    +0.000 A 
ENDBRANCH   1   2
BRANCH   1   8
ATOM      8  C   UNL     1       3.076   6.861  18.773  0.00  0.00    +0.000 A 
ATOM      9  C   UNL     1       2.336   7.176  19.921  0.00  0.00    +0.000 A 
ATOM     10  C   UNL     1       1.514   8.317  19.966  0.00  0.00    +0.000 A 
ATOM     11  C   UNL     1       1.407   9.172  18.870  0.00  0.00    +0.000 A 
ATOM     12  C   UNL     1       2.159   8.916  17.738  0.00  0.00    +0.000 A 
ATOM     13  C   UNL     1       2.980   7.786  17.696  0.00  0.00    +0.000 A 
ENDBRANCH   1   8
BRANCH   1  15
ATOM     14  O   UNL     1       6.893   5.272  19.743  0.00  0.00    +0.000 OA
ATOM     15  P   UNL     1       5.442   5.344  19.209  0.00  0.00    +0.000 P 
BRANCH  15  16
ATOM     16  O   UNL     1       6.096   5.989  17.852  0.00  0.00    +0.000 OA
ATOM     17  H   UNL     1       5.445   5.832  17.138  0.00  0.00    +0.000 HD
ENDBRANCH  15  16
BRANCH  15  18
ATOM     18  O   UNL     1       5.630   3.774  18.759  0.00  0.00    +0.000 OA
ATOM     19  H   UNL     1       5.504   3.737  17.790  0.00  0.00    +0.000 HD
ENDBRANCH  15  18
ENDBRANCH   1  15
BRANCH   1  20
ATOM     20  O   UNL     1       3.902   5.238  17.145  0.00  0.00    +0.000 OA
ATOM     21  H   UNL     1       3.041   5.428  16.737  0.00  0.00    +0.000 HD
ENDBRANCH   1  20
TORSDOF 6
ENDMDL
MODEL 4
REMARK VINA RESULT:      -7.2      3.384      4.603
REMARK  Name = 
REMARK  6 active torsions:
REMARK  status: ('A' for Active; 'I' for Inactive)
REMARK    1  A    between atoms: P_2  and  O_3
REMARK    2  A    between atoms: P_2  and  O_4
REMARK    3  A    between atoms: P_2  and  C_5
REMARK    4  A    between atoms: C_5  and  O_6
REMARK    5  A    between atoms: C_5  and  C_7
REMARK    6  A    between atoms: C_5  and  C_13
REMARK                            x       y       z     vdW  Elec       q    Type
REMARK                         _______ _______ _______ _____ _____    ______ ____
ROOT
ATOM      1  C   UNL     1       3.699   5.418  18.595  0.00  0.00    +0.000 C 
ENDROOT
BRANCH   1   2
ATOM      2  C   UNL     1       2.667   4.334  19.122  0.00  0.00    +0.000 A 
ATOM      3  C   UNL     1       1.786   3.660  18.235  0.00  0.00    +0.000 A 
ATOM      4  C   UNL     1       0.883   2.679  18.649  0.00  0.00    +0.000 A 
ATOM      5  C   UNL     1       0.818   2.339  19.992  0.00  0.00    +0.000 A 
ATOM      6  C   UNL     1       1.663   2.978  20.895  0.00  0.00    +0.000 A 
ATOM      7  C   UNL     1       2.587   3.948  20.469  0.00  0.00    +0.000 A 
ENDBRANCH   1   2
BRANCH   1   8
ATOM      8  C   UNL     1       3.061   6.858  18.774  0.00  0.00    +0.000 A 
ATOM      9  C   UNL     1       2.307   7.187  19.908  0.00  0.00    +0.000 A 
ATOM     10  C   UNL     1       1.497   8.337  19.935  0.00  0.00    +0.000 A 
ATOM     11  C   UNL     1       1.417   9.187  18.833  0.00  0.00    +0.000 A 
ATOM     12  C   UNL     1       2.184   8.917  17.715  0.00  0.00    +0.000 A 
ATOM     13  C   UNL     1       2.993   7.778  17.691  0.00  0.00    +0.000 A 
ENDBRANCH   1   8
BRANCH   1  15
ATOM     14  O   UNL     1       6.879   5.257  19.723  0.00  0.00    +0.000 OA
ATOM     15  P   UNL     1       5.422   5.331  19.206  0.00  0.00    +0.000 P 
BRANCH  15  16
ATOM     16  O   UNL     1       6.059   5.989  17.848  0.00  0.00    +0.000 OA
ATOM     17  H   UNL     1       5.370   5.902  17.158  0.00  0.00    +0.000 HD
ENDBRANCH  15  16
BRANCH  15  18
ATOM     18  O   UNL     1       5.608   3.765  18.741  0.00  0.00    +0.000 OA
ATOM     19  H   UNL     1       6.309   3.381  19.304  0.00  0.00    +0.000 HD
ENDBRANCH  15  18
ENDBRANCH   1  15
BRANCH   1  20
ATOM     20  O   UNL     1       3.855   5.199  17.165  0.00  0.00    +0.000 OA
ATOM     21  H   UNL     1       4.002   4.246  17.049  0.00  0.00    +0.000 HD
ENDBRANCH   1  20
TORSDOF 6
ENDMDL
MODEL 5
REMARK VINA RESULT:      -7.1      4.006      5.214
REMARK  Name = 
REMARK  6 active torsions:
REMARK  status: ('A' for Active; 'I' for Inactive)
REMARK    1  A    between atoms: P_2  and  O_3
REMARK    2  A    between atoms: P_2  and  O_4
REMARK    3  A    between atoms: P_2  and  C_5
REMARK    4  A    between atoms: C_5  and  O_6
REMARK    5  A    between atoms: C_5  and  C_7
REMARK    6  A    between atoms: C_5  and  C_13
REMARK                            x       y       z     vdW  Elec       q    Type
REMARK                         _______ _______ _______ _____ _____    ______ ____
ROOT
ATOM      1  C   UNL     1       2.548   4.811  19.270  0.00  0.00    +0.000 C 
ENDROOT
BRANCH   1   2
ATOM      2  C   UNL     1       2.221   6.364  19.245  0.00  0.00    +0.000 A 
ATOM      3  C   UNL     1       2.342   7.125  18.052  0.00  0.00    +0.000 A 
ATOM      4  C   UNL     1       2.036   8.485  17.974  0.00  0.00    +0.000 A 
ATOM      5  C   UNL     1       1.604   9.149  19.112  0.00  0.00    +0.000 A 
ATOM      6  C   UNL     1       1.474   8.440  20.304  0.00  0.00    +0.000 A 
ATOM      7  C   UNL     1       1.760   7.065  20.369  0.00  0.00    +0.000 A 
ENDBRANCH   1   2
BRANCH   1   8
ATOM      8  C   UNL     1       3.999   4.587  18.670  0.00  0.00    +0.000 A 
ATOM      9  C   UNL     1       5.136   5.119  19.292  0.00  0.00    +0.000 A 
ATOM     10  C   UNL     1       6.370   5.185  18.618  0.00  0.00    +0.000 A 
ATOM     11  C   UNL     1       6.501   4.724  17.309  0.00  0.00    +0.000 A 
ATOM     12  C   UNL     1       5.410   4.151  16.683  0.00  0.00    +0.000 A 
ATOM     13  C   UNL     1       4.186   4.080  17.355  0.00  0.00    +0.000 A 
ENDBRANCH   1   8
BRANCH   1  15
ATOM     14  O   UNL     1       2.068   3.138  22.165  0.00  0.00    +0.000 OA
ATOM     15  P   UNL     1       2.288   3.905  20.838  0.00  0.00    +0.000 P 
BRANCH  15  16
ATOM     16  O   UNL     1       2.856   2.486  20.247  0.00  0.00    +0.000 OA
ATOM     17  H   UNL     1       2.217   1.801  20.531  0.00  0.00    +0.000 HD
ENDBRANCH  15  16
BRANCH  15  18
ATOM     18  O   UNL     1       0.705   3.605  20.511  0.00  0.00    +0.000 OA
ATOM     19  H   UNL     1       0.658   2.709  20.121  0.00  0.00    +0.000 HD
ENDBRANCH  15  18
ENDBRANCH   1  15
BRANCH   1  20
ATOM     20  O   UNL     1       1.612   4.163  18.365  0.00  0.00    +0.000 OA
ATOM     21  H   UNL     1       1.075   3.564  18.911  0.00  0.00    +0.000 HD
ENDBRANCH   1  20
TORSDOF 6
ENDMDL
MODEL 6
REMARK VINA RESULT:      -7.1      3.955      5.129
REMARK  Name = 
REMARK  6 active torsions:
REMARK  status: ('A' for Active; 'I' for Inactive)
REMARK    1  A    between atoms: P_2  and  O_3
REMARK    2  A    between atoms: P_2  and  O_4
REMARK    3  A    between atoms: P_2  and  C_5
REMARK    4  A    between atoms: C_5  and  O_6
REMARK    5  A    between atoms: C_5  and  C_7
REMARK    6  A    between atoms: C_5  and  C_13
REMARK                            x       y       z     vdW  Elec       q    Type
REMARK                         _______ _______ _______ _____ _____    ______ ____
ROOT
ATOM      1  C   UNL     1       2.574   4.636  19.182  0.00  0.00    +0.000 C 
ENDROOT
BRANCH   1   2
ATOM      2  C   UNL     1       2.230   6.185  19.201  0.00  0.00    +0.000 A 
ATOM      3  C   UNL     1       1.808   6.833  20.393  0.00  0.00    +0.000 A 
ATOM      4  C   UNL     1       1.525   8.198  20.465  0.00  0.00    +0.000 A 
ATOM      5  C   UNL     1       1.640   8.977  19.323  0.00  0.00    +0.000 A 
ATOM      6  C   UNL     1       2.048   8.380  18.133  0.00  0.00    +0.000 A 
ATOM      7  C   UNL     1       2.357   7.010  18.072  0.00  0.00    +0.000 A 
ENDBRANCH   1   2
BRANCH   1   8
ATOM      8  C   UNL     1       4.025   4.445  18.574  0.00  0.00    +0.000 A 
ATOM      9  C   UNL     1       5.157   4.979  19.205  0.00  0.00    +0.000 A 
ATOM     10  C   UNL     1       6.388   5.076  18.531  0.00  0.00    +0.000 A 
ATOM     11  C   UNL     1       6.523   4.646  17.212  0.00  0.00    +0.000 A 
ATOM     12  C   UNL     1       5.438   4.072  16.575  0.00  0.00    +0.000 A 
ATOM     13  C   UNL     1       4.217   3.970  17.248  0.00  0.00    +0.000 A 
ENDBRANCH   1   8
BRANCH   1  15
ATOM     14  O   UNL     1       2.115   2.876  22.028  0.00  0.00    +0.000 OA
ATOM     15  P   UNL     1       2.325   3.683  20.724  0.00  0.00    +0.000 P 
BRANCH  15  16
ATOM     16  O   UNL     1       2.722   2.249  20.037  0.00  0.00    +0.000 OA
ATOM     17  H   UNL     1       3.227   2.469  19.228  0.00  0.00    +0.000 HD
ENDBRANCH  15  16
BRANCH  15  18
ATOM     18  O   UNL     1       0.705   3.542  20.487  0.00  0.00    +0.000 OA
ATOM     19  H   UNL     1       0.540   2.632  20.169  0.00  0.00    +0.000 HD
ENDBRANCH  15  18
ENDBRANCH   1  15
BRANCH   1  20
ATOM     20  O   UNL     1       1.643   4.004  18.259  0.00  0.00    +0.000 OA
ATOM     21  H   UNL     1       2.011   4.135  17.369  0.00  0.00    +0.000 HD
ENDBRANCH   1  20
TORSDOF 6
ENDMDL
MODEL 7
REMARK VINA RESULT:      -7.1      2.408      4.347
REMARK  Name = 
REMARK  6 active torsions:
REMARK  status: ('A' for Active; 'I' for Inactive)
REMARK    1  A    between atoms: P_2  and  O_3
REMARK    2  A    between atoms: P_2  and  O_4
REMARK    3  A    between atoms: P_2  and  C_5
REMARK    4  A    between atoms: C_5  and  O_6
REMARK    5  A    between atoms: C_5  and  C_7
REMARK    6  A    between atoms: C_5  and  C_13
REMARK                            x       y       z     vdW  Elec       q    Type
REMARK                         _______ _______ _______ _____ _____    ______ ____
ROOT
ATOM      1  C   UNL     1       5.056   5.399  18.328  0.00  0.00    +0.000 C 
ENDROOT
BRANCH   1   2
ATOM      2  C   UNL     1       3.897   6.475  18.464  0.00  0.00    +0.000 A 
ATOM      3  C   UNL     1       3.036   6.494  19.593  0.00  0.00    +0.000 A 
ATOM      4  C   UNL     1       2.024   7.439  19.771  0.00  0.00    +0.000 A 
ATOM      5  C   UNL     1       1.823   8.409  18.800  0.00  0.00    +0.000 A 
ATOM      6  C   UNL     1       2.644   8.423  17.676  0.00  0.00    +0.000 A 
ATOM      7  C   UNL     1       3.678   7.485  17.515  0.00  0.00    +0.000 A 
ENDBRANCH   1   2
BRANCH   1   8
ATOM      8  C   UNL     1       4.405   3.955  18.266  0.00  0.00    +0.000 A 
ATOM      9  C   UNL     1       3.479   3.613  17.271  0.00  0.00    +0.000 A 
ATOM     10  C   UNL     1       2.682   2.460  17.385  0.00  0.00    +0.000 A 
ATOM     11  C   UNL     1       2.785   1.619  18.492  0.00  0.00    +0.000 A 
ATOM     12  C   UNL     1       3.721   1.901  19.469  0.00  0.00    +0.000 A 
ATOM     13  C   UNL     1       4.518   3.044  19.353  0.00  0.00    +0.000 A 
ENDBRANCH   1   8
BRANCH   1  15
ATOM     14  O   UNL     1       7.387   5.876  15.930  0.00  0.00    +0.000 OA
ATOM     15  P   UNL     1       6.319   5.658  17.029  0.00  0.00    +0.000 P 
BRANCH  15  16
ATOM     16  O   UNL     1       7.103   4.256  17.351  0.00  0.00    +0.000 OA
ATOM     17  H   UNL     1       8.057   4.476  17.355  0.00  0.00    +0.000 HD
ENDBRANCH  15  16
BRANCH  15  18
ATOM     18  O   UNL     1       7.255   6.603  17.995  0.00  0.00    +0.000 OA
ATOM     19  H   UNL     1       7.397   7.445  17.520  0.00  0.00    +0.000 HD
ENDBRANCH  15  18
ENDBRANCH   1  15
BRANCH   1  20
ATOM     20  O   UNL     1       5.839   5.457  19.553  0.00  0.00    +0.000 OA
ATOM     21  H   UNL     1       6.466   4.716  19.511  0.00  0.00    +0.000 HD
ENDBRANCH   1  20
TORSDOF 6
ENDMDL
MODEL 8
REMARK VINA RESULT:      -7.0      2.890      4.977
REMARK  Name = 
REMARK  6 active torsions:
REMARK  status: ('A' for Active; 'I' for Inactive)
REMARK    1  A    between atoms: P_2  and  O_3
REMARK    2  A    between atoms: P_2  and  O_4
REMARK    3  A    between atoms: P_2  and  C_5
REMARK    4  A    between atoms: C_5  and  O_6
REMARK    5  A    between atoms: C_5  and  C_7
REMARK    6  A    between atoms: C_5  and  C_13
REMARK                            x       y       z     vdW  Elec       q    Type
REMARK                         _______ _______ _______ _____ _____    ______ ____
ROOT
ATOM      1  C   UNL     1       3.795   5.493  18.529  0.00  0.00    +0.000 C 
ENDROOT
BRANCH   1   2
ATOM      2  C   UNL     1       2.942   6.824  18.664  0.00  0.00    +0.000 A 
ATOM      3  C   UNL     1       2.240   7.133  19.860  0.00  0.00    +0.000 A 
ATOM      4  C   UNL     1       1.503   8.306  20.035  0.00  0.00    +0.000 A 
ATOM      5  C   UNL     1       1.426   9.222  18.997  0.00  0.00    +0.000 A 
ATOM      6  C   UNL     1       2.097   8.955  17.806  0.00  0.00    +0.000 A 
ATOM      7  C   UNL     1       2.859   7.785  17.644  0.00  0.00    +0.000 A 
ENDBRANCH   1   2
BRANCH   1   8
ATOM      8  C   UNL     1       2.884   4.261  18.936  0.00  0.00    +0.000 A 
ATOM      9  C   UNL     1       1.828   3.832  18.121  0.00  0.00    +0.000 A 
ATOM     10  C   UNL     1       0.843   2.953  18.608  0.00  0.00    +0.000 A 
ATOM     11  C   UNL     1       0.884   2.481  19.919  0.00  0.00    +0.000 A 
ATOM     12  C   UNL     1       1.938   2.848  20.736  0.00  0.00    +0.000 A 
ATOM     13  C   UNL     1       2.919   3.716  20.249  0.00  0.00    +0.000 A 
ENDBRANCH   1   8
BRANCH   1  15
ATOM     14  O   UNL     1       5.468   4.971  15.641  0.00  0.00    +0.000 OA
ATOM     15  P   UNL     1       4.701   5.210  16.964  0.00  0.00    +0.000 P 
BRANCH  15  16
ATOM     16  O   UNL     1       5.328   3.776  17.452  0.00  0.00    +0.000 OA
ATOM     17  H   UNL     1       5.649   3.333  16.641  0.00  0.00    +0.000 HD
ENDBRANCH  15  16
BRANCH  15  18
ATOM     18  O   UNL     1       5.984   6.124  17.433  0.00  0.00    +0.000 OA
ATOM     19  H   UNL     1       6.019   6.091  18.410  0.00  0.00    +0.000 HD
ENDBRANCH  15  18
ENDBRANCH   1  15
BRANCH   1  20
ATOM     20  O   UNL     1       4.865   5.570  19.511  0.00  0.00    +0.000 OA
ATOM     21  H   UNL     1       4.480   5.982  20.302  0.00  0.00    +0.000 HD
ENDBRANCH   1  20
TORSDOF 6
ENDMDL
MODEL 9
REMARK VINA RESULT:      -7.0      2.966      5.110
REMARK  Name = 
REMARK  6 active torsions:
REMARK  status: ('A' for Active; 'I' for Inactive)
REMARK    1  A    between atoms: P_2  and  O_3
REMARK    2  A    between atoms: P_2  and  O_4
REMARK    3  A    between atoms: P_2  and  C_5
REMARK    4  A    between atoms: C_5  and  O_6
REMARK    5  A    between atoms: C_5  and  C_7
REMARK    6  A    between atoms: C_5  and  C_13
REMARK                            x       y       z     vdW  Elec       q    Type
REMARK                         _______ _______ _______ _____ _____    ______ ____
ROOT
ATOM      1  C   UNL     1       3.782   5.570  18.781  0.00  0.00    +0.000 C 
ENDROOT
BRANCH   1   2
ATOM      2  C   UNL     1       2.925   6.903  18.859  0.00  0.00    +0.000 A 
ATOM      3  C   UNL     1       2.845   7.795  17.757  0.00  0.00    +0.000 A 
ATOM      4  C   UNL     1       2.079   8.963  17.769  0.00  0.00    +0.000 A 
ATOM      5  C   UNL     1       1.364   9.295  18.910  0.00  0.00    +0.000 A 
ATOM      6  C   UNL     1       1.419   8.448  20.014  0.00  0.00    +0.000 A 
ATOM      7  C   UNL     1       2.171   7.261  19.988  0.00  0.00    +0.000 A 
ENDBRANCH   1   2
BRANCH   1   8
ATOM      8  C   UNL     1       2.840   4.339  19.111  0.00  0.00    +0.000 A 
ATOM      9  C   UNL     1       1.888   3.880  18.190  0.00  0.00    +0.000 A 
ATOM     10  C   UNL     1       0.861   3.002  18.583  0.00  0.00    +0.000 A 
ATOM     11  C   UNL     1       0.754   2.562  19.901  0.00  0.00    +0.000 A 
ATOM     12  C   UNL     1       1.703   2.959  20.824  0.00  0.00    +0.000 A 
ATOM     13  C   UNL     1       2.728   3.825  20.433  0.00  0.00    +0.000 A 
ENDBRANCH   1   8
BRANCH   1  15
ATOM     14  O   UNL     1       5.668   5.059  16.025  0.00  0.00    +0.000 OA
ATOM     15  P   UNL     1       4.804   5.293  17.288  0.00  0.00    +0.000 P 
BRANCH  15  16
ATOM     16  O   UNL     1       5.433   3.884  17.839  0.00  0.00    +0.000 OA
ATOM     17  H   UNL     1       5.326   3.904  18.812  0.00  0.00    +0.000 HD
ENDBRANCH  15  16
BRANCH  15  18
ATOM     18  O   UNL     1       6.025   6.249  17.831  0.00  0.00    +0.000 OA
ATOM     19  H   UNL     1       6.616   5.682  18.366  0.00  0.00    +0.000 HD
ENDBRANCH  15  18
ENDBRANCH   1  15
BRANCH   1  20
ATOM     20  O   UNL     1       4.776   5.638  19.842  0.00  0.00    +0.000 OA
ATOM     21  H   UNL     1       4.489   6.350  20.438  0.00  0.00    +0.000 HD
ENDBRANCH   1  20
TORSDOF 6
ENDMDL
