MODEL 1
REMARK VINA RESULT:      -7.8      0.000      0.000
REMARK  Name = 
REMARK  12 active torsions:
REMARK  status: ('A' for Active; 'I' for Inactive)
REMARK    1  A    between atoms: C_1  and  C_2
REMARK    2  A    between atoms: C_2  and  N_3
REMARK    3  A    between atoms: N_3  and  C_4
REMARK    4  A    between atoms: C_4  and  C_5
REMARK    5  A    between atoms: N_7  and  C_8
REMARK    6  A    between atoms: C_8  and  C_9
REMARK    7  A    between atoms: C_14  and  C_16
REMARK    8  A    between atoms: C_19  and  N_20
REMARK    9  A    between atoms: N_20  and  C_21
REMARK   10  A    between atoms: N_20  and  S_22
REMARK   11  A    between atoms: S_22  and  C_25
REMARK   12  A    between atoms: C_28  and  C_29
REMARK                            x       y       z     vdW  Elec       q    Type
REMARK                         _______ _______ _______ _____ _____    ______ ____
ROOT
ATOM      1  C   UNL     1       1.971   7.363  19.000  0.00  0.00    +0.000 A 
ATOM      2  C   UNL     1       2.111   6.729  20.237  0.00  0.00    +0.000 A 
ATOM      3  C   UNL     1       2.243   5.342  20.337  0.00  0.00    +0.000 A 
ATOM      4  C   UNL     1       2.131   4.560  19.197  0.00  0.00    +0.000 A 
ATOM      5  C   UNL     1       1.926   5.169  17.956  0.00  0.00    +0.000 A 
ATOM      6  C   UNL     1       1.857   6.563  17.855  0.00  0.00    +0.000 A 
ENDROOT
BRANCH   1   8
ATOM      7  N   UNL     1       0.906   9.584  19.621  0.00  0.00    +0.000 N 
ATOM      8  C   UNL     1       1.850   8.851  18.873  0.00  0.00    +0.000 C 
ATOM      9  O   UNL     1       2.615   9.404  18.084  0.00  0.00    +0.000 OA
BRANCH   7  11
ATOM     10  C   UNL     1      -0.306  11.512  18.558  0.00  0.00    +0.000 C 
ATOM     11  C   UNL     1       0.870  11.037  19.410  0.00  0.00    +0.000 C 
ENDBRANCH   7  11
BRANCH   7  12
ATOM     12  C   UNL     1       0.250   9.090  20.843  0.00  0.00    +0.000 C 
BRANCH  12  13
ATOM     13  C   UNL     1       0.043  10.061  22.027  0.00  0.00    +0.000 C 
ATOM     14  O   UNL     1       0.807  10.031  22.993  0.00  0.00    +0.000 OA
ATOM     15  N   UNL     1      -1.047  10.902  21.992  0.00  0.00    +0.000 N 
ATOM     16  H   UNL     1      -1.593  10.982  21.141  0.00  0.00    +0.000 HD
BRANCH  15  17
ATOM     17  C   UNL     1      -1.335  11.764  23.125  0.00  0.00    +0.000 C 
BRANCH  17  18
ATOM     18  C   UNL     1      -2.724  12.314  23.041  0.00  0.00    +0.000 A 
ATOM     19  C   UNL     1      -3.677  12.423  24.036  0.00  0.00    +0.000 A 
ATOM     20  C   UNL     1      -4.921  12.929  23.552  0.00  0.00    +0.000 A 
ATOM     21  C   UNL     1      -4.882  13.184  22.200  0.00  0.00    +0.000 A 
ATOM     22  S   UNL     1      -3.351  12.826  21.530  0.00  0.00    +0.000 S 
ENDBRANCH  17  18
ENDBRANCH  15  17
ENDBRANCH  12  13
ENDBRANCH   7  12
ENDBRANCH   1   8
BRANCH   4  23
ATOM     23  N   UNL     1       2.215   3.135  19.259  0.00  0.00    +0.000 N 
ATOM     24  C   UNL     1       1.098   2.364  18.682  0.00  0.00    +0.000 C 
BRANCH  23  25
ATOM     25  S   UNL     1       3.762   2.426  19.218  0.00  0.00    +0.000 S 
ATOM     26  O   UNL     1       4.195   2.142  20.576  0.00  0.00    +0.000 OA
ATOM     27  O   UNL     1       3.719   1.372  18.228  0.00  0.00    +0.000 OA
BRANCH  25  28
ATOM     28  C   UNL     1       4.859   3.684  18.568  0.00  0.00    +0.000 A 
ATOM     29  C   UNL     1       4.906   3.926  17.194  0.00  0.00    +0.000 A 
ATOM     30  C   UNL     1       5.654   5.004  16.706  0.00  0.00    +0.000 A 
ATOM     31  C   UNL     1       6.356   5.847  17.575  0.00  0.00    +0.000 A 
ATOM     32  C   UNL     1       7.141   7.015  17.049  0.00  0.00    +0.000 C 
ATOM     33  C   UNL     1       6.281   5.610  18.954  0.00  0.00    +0.000 A 
ATOM     34  C   UNL     1       5.529   4.541  19.451  0.00  0.00    +0.000 A 
ENDBRANCH  25  28
ENDBRANCH  23  25
ENDBRANCH   4  23
TORSDOF 9
ENDMDL
MODEL 2
REMARK VINA RESULT:      -7.7      0.623      1.043
REMARK  Name = 
REMARK  12 active torsions:
REMARK  status: ('A' for Active; 'I' for Inactive)
REMARK    1  A    between atoms: C_1  and  C_2
REMARK    2  A    between atoms: C_2  and  N_3
REMARK    3  A    between atoms: N_3  and  C_4
REMARK    4  A    between atoms: C_4  and  C_5
REMARK    5  A    between atoms: N_7  and  C_8
REMARK    6  A    between atoms: C_8  and  C_9
REMARK    7  A    between atoms: C_14  and  C_16
REMARK    8  A    between atoms: C_19  and  N_20
REMARK    9  A    between atoms: N_20  and  C_21
REMARK   10  A    between atoms: N_20  and  S_22
REMARK   11  A    between atoms: S_22  and  C_25
REMARK   12  A    between atoms: C_28  and  C_29
REMARK                            x       y       z     vdW  Elec       q    Type
REMARK                         _______ _______ _______ _____ _____    ______ ____
ROOT
ATOM      1  C   UNL     1       1.880   7.769  18.866  0.00  0.00    +0.000 A 
ATOM      2  C   UNL     1       2.063   7.233  20.143  0.00  0.00    +0.000 A 
ATOM      3  C   UNL     1       2.346   5.879  20.334  0.00  0.00    +0.000 A 
ATOM      4  C   UNL     1       2.346   5.020  19.246  0.00  0.00    +0.000 A 
ATOM      5  C   UNL     1       2.101   5.523  17.965  0.00  0.00    +0.000 A 
ATOM      6  C   UNL     1       1.880   6.892  17.774  0.00  0.00    +0.000 A 
ENDROOT
BRANCH   1   8
ATOM      7  N   UNL     1       0.591   9.901  19.359  0.00  0.00    +0.000 N 
ATOM      8  C   UNL     1       1.598   9.223  18.642  0.00  0.00    +0.000 C 
ATOM      9  O   UNL     1       2.287   9.799  17.801  0.00  0.00    +0.000 OA
BRANCH   7  11
ATOM     10  C   UNL     1      -0.931  11.633  18.359  0.00  0.00    +0.000 C 
ATOM     11  C   UNL     1       0.395  11.324  19.052  0.00  0.00    +0.000 C 
ENDBRANCH   7  11
BRANCH   7  12
ATOM     12  C   UNL     1       0.010   9.426  20.626  0.00  0.00    +0.000 C 
BRANCH  12  13
ATOM     13  C   UNL     1      -0.122  10.414  21.807  0.00  0.00    +0.000 C 
ATOM     14  O   UNL     1       0.741  10.448  22.685  0.00  0.00    +0.000 OA
ATOM     15  N   UNL     1      -1.254  11.196  21.873  0.00  0.00    +0.000 N 
ATOM     16  H   UNL     1      -1.891  11.227  21.085  0.00  0.00    +0.000 HD
BRANCH  15  17
ATOM     17  C   UNL     1      -1.466  12.070  23.014  0.00  0.00    +0.000 C 
BRANCH  17  18
ATOM     18  C   UNL     1      -2.905  12.463  23.128  0.00  0.00    +0.000 A 
ATOM     19  C   UNL     1      -3.710  12.495  24.251  0.00  0.00    +0.000 A 
ATOM     20  C   UNL     1      -5.060  12.848  23.950  0.00  0.00    +0.000 A 
ATOM     21  C   UNL     1      -5.246  13.068  22.605  0.00  0.00    +0.000 A 
ATOM     22  S   UNL     1      -3.797  12.860  21.721  0.00  0.00    +0.000 S 
ENDBRANCH  17  18
ENDBRANCH  15  17
ENDBRANCH  12  13
ENDBRANCH   7  12
ENDBRANCH   1   8
BRANCH   4  23
ATOM     23  N   UNL     1       2.586   3.620  19.400  0.00  0.00    +0.000 N 
ATOM     24  C   UNL     1       1.420   2.720  19.337  0.00  0.00    +0.000 C 
BRANCH  23  25
ATOM     25  S   UNL     1       4.081   3.005  18.867  0.00  0.00    +0.000 S 
ATOM     26  O   UNL     1       4.743   2.332  19.971  0.00  0.00    +0.000 OA
ATOM     27  O   UNL     1       3.833   2.304  17.626  0.00  0.00    +0.000 OA
BRANCH  25  28
ATOM     28  C   UNL     1       5.076   4.434  18.448  0.00  0.00    +0.000 A 
ATOM     29  C   UNL     1       5.966   4.963  19.383  0.00  0.00    +0.000 A 
ATOM     30  C   UNL     1       6.842   5.987  19.003  0.00  0.00    +0.000 A 
ATOM     31  C   UNL     1       6.842   6.488  17.696  0.00  0.00    +0.000 A 
ATOM     32  C   UNL     1       7.798   7.573  17.287  0.00  0.00    +0.000 C 
ATOM     33  C   UNL     1       5.962   5.933  16.759  0.00  0.00    +0.000 A 
ATOM     34  C   UNL     1       5.089   4.904  17.128  0.00  0.00    +0.000 A 
ENDBRANCH  25  28
ENDBRANCH  23  25
ENDBRANCH   4  23
TORSDOF 9
ENDMDL
MODEL 3
REMARK VINA RESULT:      -7.7      0.572      1.109
REMARK  Name = 
REMARK  12 active torsions:
REMARK  status: ('A' for Active; 'I' for Inactive)
REMARK    1  A    between atoms: C_1  and  C_2
REMARK    2  A    between atoms: C_2  and  N_3
REMARK    3  A    between atoms: N_3  and  C_4
REMARK    4  A    between atoms: C_4  and  C_5
REMARK    5  A    between atoms: N_7  and  C_8
REMARK    6  A    between atoms: C_8  and  C_9
REMARK    7  A    between atoms: C_14  and  C_16
REMARK    8  A    between atoms: C_19  and  N_20
REMARK    9  A    between atoms: N_20  and  C_21
REMARK   10  A    between atoms: N_20  and  S_22
REMARK   11  A    between atoms: S_22  and  C_25
REMARK   12  A    between atoms: C_28  and  C_29
REMARK                            x       y       z     vdW  Elec       q    Type
REMARK                         _______ _______ _______ _____ _____    ______ ____
ROOT
ATOM      1  C   UNL     1       1.927   7.359  18.988  0.00  0.00    +0.000 A 
ATOM      2  C   UNL     1       1.935   6.566  17.838  0.00  0.00    +0.000 A 
ATOM      3  C   UNL     1       1.978   5.172  17.912  0.00  0.00    +0.000 A 
ATOM      4  C   UNL     1       2.118   4.556  19.146  0.00  0.00    +0.000 A 
ATOM      5  C   UNL     1       2.177   5.333  20.306  0.00  0.00    +0.000 A 
ATOM      6  C   UNL     1       2.071   6.726  20.230  0.00  0.00    +0.000 A 
ENDROOT
BRANCH   1   8
ATOM      7  N   UNL     1       0.947   9.587  19.715  0.00  0.00    +0.000 N 
ATOM      8  C   UNL     1       1.859   8.854  18.928  0.00  0.00    +0.000 C 
ATOM      9  O   UNL     1       2.636   9.415  18.156  0.00  0.00    +0.000 OA
BRANCH   7  11
ATOM     10  C   UNL     1      -0.159  11.595  18.685  0.00  0.00    +0.000 C 
ATOM     11  C   UNL     1       0.961  11.048  19.569  0.00  0.00    +0.000 C 
ENDBRANCH   7  11
BRANCH   7  12
ATOM     12  C   UNL     1       0.284   9.063  20.922  0.00  0.00    +0.000 C 
BRANCH  12  13
ATOM     13  C   UNL     1      -0.014  10.028  22.091  0.00  0.00    +0.000 C 
ATOM     14  O   UNL     1       0.729  10.057  23.073  0.00  0.00    +0.000 OA
ATOM     15  N   UNL     1      -1.158  10.792  22.026  0.00  0.00    +0.000 N 
ATOM     16  H   UNL     1      -1.690  10.827  21.163  0.00  0.00    +0.000 HD
BRANCH  15  17
ATOM     17  C   UNL     1      -1.528  11.642  23.144  0.00  0.00    +0.000 C 
BRANCH  17  18
ATOM     18  C   UNL     1      -2.870  12.265  22.923  0.00  0.00    +0.000 A 
ATOM     19  C   UNL     1      -3.434  12.719  21.745  0.00  0.00    +0.000 A 
ATOM     20  C   UNL     1      -4.708  13.331  21.946  0.00  0.00    +0.000 A 
ATOM     21  C   UNL     1      -5.075  13.331  23.272  0.00  0.00    +0.000 A 
ATOM     22  S   UNL     1      -3.893  12.587  24.259  0.00  0.00    +0.000 S 
ENDBRANCH  17  18
ENDBRANCH  15  17
ENDBRANCH  12  13
ENDBRANCH   7  12
ENDBRANCH   1   8
BRANCH   4  23
ATOM     23  N   UNL     1       2.211   3.135  19.264  0.00  0.00    +0.000 N 
ATOM     24  C   UNL     1       1.085   2.336  18.745  0.00  0.00    +0.000 C 
BRANCH  23  25
ATOM     25  S   UNL     1       3.760   2.431  19.219  0.00  0.00    +0.000 S 
ATOM     26  O   UNL     1       4.192   2.136  20.574  0.00  0.00    +0.000 OA
ATOM     27  O   UNL     1       3.721   1.386  18.219  0.00  0.00    +0.000 OA
BRANCH  25  28
ATOM     28  C   UNL     1       4.853   3.698  18.581  0.00  0.00    +0.000 A 
ATOM     29  C   UNL     1       4.930   3.927  17.207  0.00  0.00    +0.000 A 
ATOM     30  C   UNL     1       5.673   5.010  16.725  0.00  0.00    +0.000 A 
ATOM     31  C   UNL     1       6.341   5.873  17.602  0.00  0.00    +0.000 A 
ATOM     32  C   UNL     1       7.122   7.047  17.081  0.00  0.00    +0.000 C 
ATOM     33  C   UNL     1       6.237   5.649  18.980  0.00  0.00    +0.000 A 
ATOM     34  C   UNL     1       5.489   4.575  19.470  0.00  0.00    +0.000 A 
ENDBRANCH  25  28
ENDBRANCH  23  25
ENDBRANCH   4  23
TORSDOF 9
ENDMDL
MODEL 4
REMARK VINA RESULT:      -7.7      2.500      3.399
REMARK  Name = 
REMARK  12 active torsions:
REMARK  status: ('A' for Active; 'I' for Inactive)
REMARK    1  A    between atoms: C_1  and  C_2
REMARK    2  A    between atoms: C_2  and  N_3
REMARK    3  A    between atoms: N_3  and  C_4
REMARK    4  A    between atoms: C_4  and  C_5
REMARK    5  A    between atoms: N_7  and  C_8
REMARK    6  A    between atoms: C_8  and  C_9
REMARK    7  A    between atoms: C_14  and  C_16
REMARK    8  A    between atoms: C_19  and  N_20
REMARK    9  A    between atoms: N_20  and  C_21
REMARK   10  A    between atoms: N_20  and  S_22
REMARK   11  A    between atoms: S_22  and  C_25
REMARK   12  A    between atoms: C_28  and  C_29
REMARK                            x       y       z     vdW  Elec       q    Type
REMARK                         _______ _______ _______ _____ _____    ______ ____
ROOT
ATOM      1  C   UNL     1       1.340   8.973  19.866  0.00  0.00    +0.000 A 
ATOM      2  C   UNL     1       1.230   7.954  20.816  0.00  0.00    +0.000 A 
ATOM      3  C   UNL     1       1.700   6.664  20.562  0.00  0.00    +0.000 A 
ATOM      4  C   UNL     1       2.197   6.352  19.306  0.00  0.00    +0.000 A 
ATOM      5  C   UNL     1       2.256   7.339  18.318  0.00  0.00    +0.000 A 
ATOM      6  C   UNL     1       1.840   8.645  18.599  0.00  0.00    +0.000 A 
ENDROOT
BRANCH   1   8
ATOM      7  N   UNL     1      -0.045  11.016  19.265  0.00  0.00    +0.000 N 
ATOM      8  C   UNL     1       0.860  10.367  20.130  0.00  0.00    +0.000 C 
ATOM      9  O   UNL     1       1.294  10.922  21.139  0.00  0.00    +0.000 OA
BRANCH   7  11
ATOM     10  C   UNL     1       0.331  13.468  18.863  0.00  0.00    +0.000 C 
ATOM     11  C   UNL     1      -0.440  12.386  19.616  0.00  0.00    +0.000 C 
ENDBRANCH   7  11
BRANCH   7  12
ATOM     12  C   UNL     1      -0.907  10.322  18.293  0.00  0.00    +0.000 C 
BRANCH  12  13
ATOM     13  C   UNL     1      -2.186  11.027  17.789  0.00  0.00    +0.000 C 
ATOM     14  O   UNL     1      -2.199  11.566  16.682  0.00  0.00    +0.000 OA
ATOM     15  N   UNL     1      -3.270  11.086  18.637  0.00  0.00    +0.000 N 
ATOM     16  H   UNL     1      -3.268  10.542  19.493  0.00  0.00    +0.000 HD
BRANCH  15  17
ATOM     17  C   UNL     1      -4.460  11.820  18.243  0.00  0.00    +0.000 C 
BRANCH  17  18
ATOM     18  C   UNL     1      -5.583  11.572  19.199  0.00  0.00    +0.000 A 
ATOM     19  C   UNL     1      -6.624  10.668  19.101  0.00  0.00    +0.000 A 
ATOM     20  C   UNL     1      -7.554  10.780  20.178  0.00  0.00    +0.000 A 
ATOM     21  C   UNL     1      -7.199  11.773  21.062  0.00  0.00    +0.000 A 
ATOM     22  S   UNL     1      -5.748  12.549  20.597  0.00  0.00    +0.000 S 
ENDBRANCH  17  18
ENDBRANCH  15  17
ENDBRANCH  12  13
ENDBRANCH   7  12
ENDBRANCH   1   8
BRANCH   4  23
ATOM     23  N   UNL     1       2.648   5.033  18.988  0.00  0.00    +0.000 N 
ATOM     24  C   UNL     1       1.845   4.255  18.026  0.00  0.00    +0.000 C 
BRANCH  23  25
ATOM     25  S   UNL     1       4.322   4.730  19.040  0.00  0.00    +0.000 S 
ATOM     26  O   UNL     1       4.990   5.843  19.692  0.00  0.00    +0.000 OA
ATOM     27  O   UNL     1       4.493   3.381  19.536  0.00  0.00    +0.000 OA
BRANCH  25  28
ATOM     28  C   UNL     1       4.868   4.713  17.334  0.00  0.00    +0.000 A 
ATOM     29  C   UNL     1       5.038   5.913  16.644  0.00  0.00    +0.000 A 
ATOM     30  C   UNL     1       5.602   5.901  15.362  0.00  0.00    +0.000 A 
ATOM     31  C   UNL     1       6.001   4.702  14.762  0.00  0.00    +0.000 A 
ATOM     32  C   UNL     1       6.624   4.696  13.394  0.00  0.00    +0.000 C 
ATOM     33  C   UNL     1       5.849   3.505  15.473  0.00  0.00    +0.000 A 
ATOM     34  C   UNL     1       5.295   3.509  16.757  0.00  0.00    +0.000 A 
ENDBRANCH  25  28
ENDBRANCH  23  25
ENDBRANCH   4  23
TORSDOF 9
ENDMDL
MODEL 5
REMARK VINA RESULT:      -7.7      2.830      3.719
REMARK  Name = 
REMARK  12 active torsions:
REMARK  status: ('A' for Active; 'I' for Inactive)
REMARK    1  A    between atoms: C_1  and  C_2
REMARK    2  A    between atoms: C_2  and  N_3
REMARK    3  A    between atoms: N_3  and  C_4
REMARK    4  A    between atoms: C_4  and  C_5
REMARK    5  A    between atoms: N_7  and  C_8
REMARK    6  A    between atoms: C_8  and  C_9
REMARK    7  A    between atoms: C_14  and  C_16
REMARK    8  A    between atoms: C_19  and  N_20
REMARK    9  A    between atoms: N_20  and  C_21
REMARK   10  A    between atoms: N_20  and  S_22
REMARK   11  A    between atoms: S_22  and  C_25
REMARK   12  A    between atoms: C_28  and  C_29
REMARK                            x       y       z     vdW  Elec       q    Type
REMARK                         _______ _______ _______ _____ _____    ______ ____
ROOT
ATOM      1  C   UNL     1       1.691   9.200  18.892  0.00  0.00    +0.000 A 
ATOM      2  C   UNL     1       1.530   8.394  20.023  0.00  0.00    +0.000 A 
ATOM      3  C   UNL     1       1.970   7.069  20.045  0.00  0.00    +0.000 A 
ATOM      4  C   UNL     1       2.488   6.501  18.892  0.00  0.00    +0.000 A 
ATOM      5  C   UNL     1       2.599   7.269  17.729  0.00  0.00    +0.000 A 
ATOM      6  C   UNL     1       2.213   8.614  17.732  0.00  0.00    +0.000 A 
ENDROOT
BRANCH   1   8
ATOM      7  N   UNL     1      -0.066  10.986  18.481  0.00  0.00    +0.000 N 
ATOM      8  C   UNL     1       1.244  10.629  18.859  0.00  0.00    +0.000 C 
ATOM      9  O   UNL     1       2.076  11.478  19.176  0.00  0.00    +0.000 OA
BRANCH   7  11
ATOM     10  C   UNL     1      -1.036  12.914  19.770  0.00  0.00    +0.000 C 
ATOM     11  C   UNL     1      -0.393  12.419  18.476  0.00  0.00    +0.000 C 
ENDBRANCH   7  11
BRANCH   7  12
ATOM     12  C   UNL     1      -1.212  10.062  18.479  0.00  0.00    +0.000 C 
BRANCH  12  13
ATOM     13  C   UNL     1      -2.369  10.303  17.484  0.00  0.00    +0.000 C 
ATOM     14  O   UNL     1      -2.225  10.033  16.291  0.00  0.00    +0.000 OA
ATOM     15  N   UNL     1      -3.523  10.885  17.961  0.00  0.00    +0.000 N 
ATOM     16  H   UNL     1      -3.654  10.996  18.961  0.00  0.00    +0.000 HD
BRANCH  15  17
ATOM     17  C   UNL     1      -4.600  11.218  17.045  0.00  0.00    +0.000 C 
BRANCH  17  18
ATOM     18  C   UNL     1      -5.771  11.790  17.779  0.00  0.00    +0.000 A 
ATOM     19  C   UNL     1      -6.402  11.315  18.914  0.00  0.00    +0.000 A 
ATOM     20  C   UNL     1      -7.543  12.093  19.275  0.00  0.00    +0.000 A 
ATOM     21  C   UNL     1      -7.753  13.134  18.401  0.00  0.00    +0.000 A 
ATOM     22  S   UNL     1      -6.572  13.174  17.165  0.00  0.00    +0.000 S 
ENDBRANCH  17  18
ENDBRANCH  15  17
ENDBRANCH  12  13
ENDBRANCH   7  12
ENDBRANCH   1   8
BRANCH   4  23
ATOM     23  N   UNL     1       2.910   5.136  18.856  0.00  0.00    +0.000 N 
ATOM     24  C   UNL     1       2.110   4.199  18.046  0.00  0.00    +0.000 C 
BRANCH  23  25
ATOM     25  S   UNL     1       4.573   4.812  19.018  0.00  0.00    +0.000 S 
ATOM     26  O   UNL     1       5.193   5.869  19.798  0.00  0.00    +0.000 OA
ATOM     27  O   UNL     1       4.698   3.429  19.428  0.00  0.00    +0.000 OA
BRANCH  25  28
ATOM     28  C   UNL     1       5.252   4.908  17.363  0.00  0.00    +0.000 A 
ATOM     29  C   UNL     1       6.138   5.934  17.031  0.00  0.00    +0.000 A 
ATOM     30  C   UNL     1       6.776   5.922  15.786  0.00  0.00    +0.000 A 
ATOM     31  C   UNL     1       6.541   4.894  14.865  0.00  0.00    +0.000 A 
ATOM     32  C   UNL     1       7.244   4.875  13.537  0.00  0.00    +0.000 C 
ATOM     33  C   UNL     1       5.670   3.856  15.218  0.00  0.00    +0.000 A 
ATOM     34  C   UNL     1       5.035   3.856  16.464  0.00  0.00    +0.000 A 
ENDBRANCH  25  28
ENDBRANCH  23  25
ENDBRANCH   4  23
TORSDOF 9
ENDMDL
MODEL 6
REMARK VINA RESULT:      -7.6      2.498      3.470
REMARK  Name = 
REMARK  12 active torsions:
REMARK  status: ('A' for Active; 'I' for Inactive)
REMARK    1  A    between atoms: C_1  and  C_2
REMARK    2  A    between atoms: C_2  and  N_3
REMARK    3  A    between atoms: N_3  and  C_4
REMARK    4  A    between atoms: C_4  and  C_5
REMARK    5  A    between atoms: N_7  and  C_8
REMARK    6  A    between atoms: C_8  and  C_9
REMARK    7  A    between atoms: C_14  and  C_16
REMARK    8  A    between atoms: C_19  and  N_20
REMARK    9  A    between atoms: N_20  and  C_21
REMARK   10  A    between atoms: N_20  and  S_22
REMARK   11  A    between atoms: S_22  and  C_25
REMARK   12  A    between atoms: C_28  and  C_29
REMARK                            x       y       z     vdW  Elec       q    Type
REMARK                         _______ _______ _______ _____ _____    ______ ____
ROOT
ATOM      1  C   UNL     1       1.416   8.683  19.464  0.00  0.00    +0.000 A 
ATOM      2  C   UNL     1       2.058   8.325  18.276  0.00  0.00    +0.000 A 
ATOM      3  C   UNL     1       2.566   7.039  18.079  0.00  0.00    +0.000 A 
ATOM      4  C   UNL     1       2.529   6.122  19.118  0.00  0.00    +0.000 A 
ATOM      5  C   UNL     1       1.950   6.480  20.338  0.00  0.00    +0.000 A 
ATOM      6  C   UNL     1       1.386   7.749  20.508  0.00  0.00    +0.000 A 
ENDROOT
BRANCH   1   8
ATOM      7  N   UNL     1      -0.048  10.636  18.763  0.00  0.00    +0.000 N 
ATOM      8  C   UNL     1       0.845  10.050  19.683  0.00  0.00    +0.000 C 
ATOM      9  O   UNL     1       1.194  10.640  20.705  0.00  0.00    +0.000 OA
BRANCH   7  11
ATOM     10  C   UNL     1       0.218  13.102  18.358  0.00  0.00    +0.000 C 
ATOM     11  C   UNL     1      -0.539  11.985  19.075  0.00  0.00    +0.000 C 
ENDBRANCH   7  11
BRANCH   7  12
ATOM     12  C   UNL     1      -0.817   9.884  17.758  0.00  0.00    +0.000 C 
BRANCH  12  13
ATOM     13  C   UNL     1      -2.150  10.469  17.242  0.00  0.00    +0.000 C 
ATOM     14  O   UNL     1      -2.174  11.130  16.203  0.00  0.00    +0.000 OA
ATOM     15  N   UNL     1      -3.279  10.283  18.008  0.00  0.00    +0.000 N 
ATOM     16  H   UNL     1      -3.252   9.647  18.797  0.00  0.00    +0.000 HD
BRANCH  15  17
ATOM     17  C   UNL     1      -4.535  10.897  17.612  0.00  0.00    +0.000 C 
BRANCH  17  18
ATOM     18  C   UNL     1      -5.222  11.519  18.785  0.00  0.00    +0.000 A 
ATOM     19  C   UNL     1      -4.715  12.399  19.724  0.00  0.00    +0.000 A 
ATOM     20  C   UNL     1      -5.657  12.712  20.749  0.00  0.00    +0.000 A 
ATOM     21  C   UNL     1      -6.853  12.057  20.567  0.00  0.00    +0.000 A 
ATOM     22  S   UNL     1      -6.836  11.083  19.161  0.00  0.00    +0.000 S 
ENDBRANCH  17  18
ENDBRANCH  15  17
ENDBRANCH  12  13
ENDBRANCH   7  12
ENDBRANCH   1   8
BRANCH   4  23
ATOM     23  N   UNL     1       3.078   4.810  18.975  0.00  0.00    +0.000 N 
ATOM     24  C   UNL     1       2.332   3.850  18.140  0.00  0.00    +0.000 C 
BRANCH  23  25
ATOM     25  S   UNL     1       4.770   4.643  19.042  0.00  0.00    +0.000 S 
ATOM     26  O   UNL     1       5.334   5.766  19.772  0.00  0.00    +0.000 OA
ATOM     27  O   UNL     1       5.046   3.285  19.462  0.00  0.00    +0.000 OA
BRANCH  25  28
ATOM     28  C   UNL     1       5.342   4.772  17.350  0.00  0.00    +0.000 A 
ATOM     29  C   UNL     1       5.994   5.929  16.920  0.00  0.00    +0.000 A 
ATOM     30  C   UNL     1       6.565   5.968  15.643  0.00  0.00    +0.000 A 
ATOM     31  C   UNL     1       6.494   4.863  14.788  0.00  0.00    +0.000 A 
ATOM     32  C   UNL     1       7.126   4.902  13.424  0.00  0.00    +0.000 C 
ATOM     33  C   UNL     1       5.860   3.698  15.238  0.00  0.00    +0.000 A 
ATOM     34  C   UNL     1       5.295   3.647  16.516  0.00  0.00    +0.000 A 
ENDBRANCH  25  28
ENDBRANCH  23  25
ENDBRANCH   4  23
TORSDOF 9
ENDMDL
MODEL 7
REMARK VINA RESULT:      -7.6      3.730      9.345
REMARK  Name = 
REMARK  12 active torsions:
REMARK  status: ('A' for Active; 'I' for Inactive)
REMARK    1  A    between atoms: C_1  and  C_2
REMARK    2  A    between atoms: C_2  and  N_3
REMARK    3  A    between atoms: N_3  and  C_4
REMARK    4  A    between atoms: C_4  and  C_5
REMARK    5  A    between atoms: N_7  and  C_8
REMARK    6  A    between atoms: C_8  and  C_9
REMARK    7  A    between atoms: C_14  and  C_16
REMARK    8  A    between atoms: C_19  and  N_20
REMARK    9  A    between atoms: N_20  and  C_21
REMARK   10  A    between atoms: N_20  and  S_22
REMARK   11  A    between atoms: S_22  and  C_25
REMARK   12  A    between atoms: C_28  and  C_29
REMARK                            x       y       z     vdW  Elec       q    Type
REMARK                         _______ _______ _______ _____ _____    ______ ____
ROOT
ATOM      1  C   UNL     1       3.307   6.246  18.256  0.00  0.00    +0.000 A 
ATOM      2  C   UNL     1       2.948   7.433  17.613  0.00  0.00    +0.000 A 
ATOM      3  C   UNL     1       2.252   8.444  18.279  0.00  0.00    +0.000 A 
ATOM      4  C   UNL     1       1.815   8.233  19.577  0.00  0.00    +0.000 A 
ATOM      5  C   UNL     1       2.107   7.027  20.220  0.00  0.00    +0.000 A 
ATOM      6  C   UNL     1       2.858   6.043  19.568  0.00  0.00    +0.000 A 
ENDROOT
BRANCH   1   8
ATOM      7  N   UNL     1       5.470   5.234  17.392  0.00  0.00    +0.000 N 
ATOM      8  C   UNL     1       4.072   5.161  17.564  0.00  0.00    +0.000 C 
ATOM      9  O   UNL     1       3.423   4.201  17.150  0.00  0.00    +0.000 OA
BRANCH   7  11
ATOM     10  C   UNL     1       5.998   4.188  15.168  0.00  0.00    +0.000 C 
ATOM     11  C   UNL     1       6.116   4.118  16.690  0.00  0.00    +0.000 C 
ENDBRANCH   7  11
BRANCH   7  12
ATOM     12  C   UNL     1       6.359   6.106  18.177  0.00  0.00    +0.000 C 
BRANCH  12  13
ATOM     13  C   UNL     1       7.270   7.110  17.437  0.00  0.00    +0.000 C 
ATOM     14  O   UNL     1       7.794   6.798  16.367  0.00  0.00    +0.000 OA
ATOM     15  N   UNL     1       7.523   8.322  18.040  0.00  0.00    +0.000 N 
ATOM     16  H   UNL     1       6.996   8.595  18.862  0.00  0.00    +0.000 HD
BRANCH  15  17
ATOM     17  C   UNL     1       8.449   9.259  17.427  0.00  0.00    +0.000 C 
BRANCH  17  18
ATOM     18  C   UNL     1       8.893  10.295  18.410  0.00  0.00    +0.000 A 
ATOM     19  C   UNL     1       9.286  10.134  19.725  0.00  0.00    +0.000 A 
ATOM     20  C   UNL     1       9.563  11.376  20.372  0.00  0.00    +0.000 A 
ATOM     21  C   UNL     1       9.368  12.448  19.533  0.00  0.00    +0.000 A 
ATOM     22  S   UNL     1       8.865  11.953  17.976  0.00  0.00    +0.000 S 
ENDBRANCH  17  18
ENDBRANCH  15  17
ENDBRANCH  12  13
ENDBRANCH   7  12
ENDBRANCH   1   8
BRANCH   4  23
ATOM     23  N   UNL     1       1.061   9.223  20.281  0.00  0.00    +0.000 N 
ATOM     24  C   UNL     1       1.080   9.169  21.755  0.00  0.00    +0.000 C 
BRANCH  23  25
ATOM     25  S   UNL     1       0.878  10.751  19.554  0.00  0.00    +0.000 S 
ATOM     26  O   UNL     1       0.929  11.778  20.580  0.00  0.00    +0.000 OA
ATOM     27  O   UNL     1       1.785  10.796  18.427  0.00  0.00    +0.000 OA
BRANCH  25  28
ATOM     28  C   UNL     1      -0.777  10.770  18.869  0.00  0.00    +0.000 A 
ATOM     29  C   UNL     1      -1.719  11.681  19.347  0.00  0.00    +0.000 A 
ATOM     30  C   UNL     1      -2.962  11.790  18.711  0.00  0.00    +0.000 A 
ATOM     31  C   UNL     1      -3.275  10.999  17.600  0.00  0.00    +0.000 A 
ATOM     32  C   UNL     1      -4.602  11.133  16.909  0.00  0.00    +0.000 C 
ATOM     33  C   UNL     1      -2.312  10.105  17.113  0.00  0.00    +0.000 A 
ATOM     34  C   UNL     1      -1.066   9.997  17.737  0.00  0.00    +0.000 A 
ENDBRANCH  25  28
ENDBRANCH  23  25
ENDBRANCH   4  23
TORSDOF 9
ENDMDL
MODEL 8
REMARK VINA RESULT:      -7.6      2.886     10.519
REMARK  Name = 
REMARK  12 active torsions:
REMARK  status: ('A' for Active; 'I' for Inactive)
REMARK    1  A    between atoms: C_1  and  C_2
REMARK    2  A    between atoms: C_2  and  N_3
REMARK    3  A    between atoms: N_3  and  C_4
REMARK    4  A    between atoms: C_4  and  C_5
REMARK    5  A    between atoms: N_7  and  C_8
REMARK    6  A    between atoms: C_8  and  C_9
REMARK    7  A    between atoms: C_14  and  C_16
REMARK    8  A    between atoms: C_19  and  N_20
REMARK    9  A    between atoms: N_20  and  C_21
REMARK   10  A    between atoms: N_20  and  S_22
REMARK   11  A    between atoms: S_22  and  C_25
REMARK   12  A    between atoms: C_28  and  C_29
REMARK                            x       y       z     vdW  Elec       q    Type
REMARK                         _______ _______ _______ _____ _____    ______ ____
ROOT
ATOM      1  C   UNL     1       2.005   6.752  19.088  0.00  0.00    +0.000 A 
ATOM      2  C   UNL     1       2.004   7.560  17.948  0.00  0.00    +0.000 A 
ATOM      3  C   UNL     1       1.717   8.924  18.018  0.00  0.00    +0.000 A 
ATOM      4  C   UNL     1       1.325   9.480  19.226  0.00  0.00    +0.000 A 
ATOM      5  C   UNL     1       1.256   8.677  20.368  0.00  0.00    +0.000 A 
ATOM      6  C   UNL     1       1.604   7.324  20.303  0.00  0.00    +0.000 A 
ENDROOT
BRANCH   1   8
ATOM      7  N   UNL     1       3.625   4.834  18.708  0.00  0.00    +0.000 N 
ATOM      8  C   UNL     1       2.331   5.292  19.033  0.00  0.00    +0.000 C 
ATOM      9  O   UNL     1       1.417   4.509  19.285  0.00  0.00    +0.000 OA
BRANCH   7  11
ATOM     10  C   UNL     1       4.219   2.777  20.025  0.00  0.00    +0.000 C 
ATOM     11  C   UNL     1       3.830   3.380  18.676  0.00  0.00    +0.000 C 
ENDBRANCH   7  11
BRANCH   7  12
ATOM     12  C   UNL     1       4.843   5.658  18.789  0.00  0.00    +0.000 C 
BRANCH  12  13
ATOM     13  C   UNL     1       6.086   5.239  17.973  0.00  0.00    +0.000 C 
ATOM     14  O   UNL     1       7.065   4.756  18.541  0.00  0.00    +0.000 OA
ATOM     15  N   UNL     1       6.083   5.484  16.617  0.00  0.00    +0.000 N 
ATOM     16  H   UNL     1       5.226   5.780  16.161  0.00  0.00    +0.000 HD
BRANCH  15  17
ATOM     17  C   UNL     1       7.266   5.195  15.825  0.00  0.00    +0.000 C 
BRANCH  17  18
ATOM     18  C   UNL     1       6.892   4.680  14.471  0.00  0.00    +0.000 A 
ATOM     19  C   UNL     1       5.858   3.834  14.118  0.00  0.00    +0.000 A 
ATOM     20  C   UNL     1       5.870   3.501  12.730  0.00  0.00    +0.000 A 
ATOM     21  C   UNL     1       6.917   4.098  12.067  0.00  0.00    +0.000 A 
ATOM     22  S   UNL     1       7.867   5.060  13.114  0.00  0.00    +0.000 S 
ENDBRANCH  17  18
ENDBRANCH  15  17
ENDBRANCH  12  13
ENDBRANCH   7  12
ENDBRANCH   1   8
BRANCH   4  23
ATOM     23  N   UNL     1       0.980  10.862  19.335  0.00  0.00    +0.000 N 
ATOM     24  C   UNL     1       2.062  11.848  19.158  0.00  0.00    +0.000 C 
BRANCH  23  25
ATOM     25  S   UNL     1      -0.591  11.330  18.875  0.00  0.00    +0.000 S 
ATOM     26  O   UNL     1      -0.521  12.574  18.128  0.00  0.00    +0.000 OA
ATOM     27  O   UNL     1      -1.228  10.165  18.298  0.00  0.00    +0.000 OA
BRANCH  25  28
ATOM     28  C   UNL     1      -1.464  11.678  20.400  0.00  0.00    +0.000 A 
ATOM     29  C   UNL     1      -0.844  11.442  21.628  0.00  0.00    +0.000 A 
ATOM     30  C   UNL     1      -1.473  11.850  22.810  0.00  0.00    +0.000 A 
ATOM     31  C   UNL     1      -2.715  12.493  22.781  0.00  0.00    +0.000 A 
ATOM     32  C   UNL     1      -3.377  12.947  24.052  0.00  0.00    +0.000 C 
ATOM     33  C   UNL     1      -3.317  12.747  21.542  0.00  0.00    +0.000 A 
ATOM     34  C   UNL     1      -2.691  12.352  20.356  0.00  0.00    +0.000 A 
ENDBRANCH  25  28
ENDBRANCH  23  25
ENDBRANCH   4  23
TORSDOF 9
ENDMDL
MODEL 9
REMARK VINA RESULT:      -7.5      2.757      8.934
REMARK  Name = 
REMARK  12 active torsions:
REMARK  status: ('A' for Active; 'I' for Inactive)
REMARK    1  A    between atoms: C_1  and  C_2
REMARK    2  A    between atoms: C_2  and  N_3
REMARK    3  A    between atoms: N_3  and  C_4
REMARK    4  A    between atoms: C_4  and  C_5
REMARK    5  A    between atoms: N_7  and  C_8
REMARK    6  A    between atoms: C_8  and  C_9
REMARK    7  A    between atoms: C_14  and  C_16
REMARK    8  A    between atoms: C_19  and  N_20
REMARK    9  A    between atoms: N_20  and  C_21
REMARK   10  A    between atoms: N_20  and  S_22
REMARK   11  A    between atoms: S_22  and  C_25
REMARK   12  A    between atoms: C_28  and  C_29
REMARK                            x       y       z     vdW  Elec       q    Type
REMARK                         _______ _______ _______ _____ _____    ______ ____
ROOT
ATOM      1  C   UNL     1       4.335   6.663  18.019  0.00  0.00    +0.000 A 
ATOM      2  C   UNL     1       3.792   6.228  19.231  0.00  0.00    +0.000 A 
ATOM      3  C   UNL     1       2.652   6.823  19.776  0.00  0.00    +0.000 A 
ATOM      4  C   UNL     1       2.100   7.936  19.161  0.00  0.00    +0.000 A 
ATOM      5  C   UNL     1       2.666   8.428  17.981  0.00  0.00    +0.000 A 
ATOM      6  C   UNL     1       3.771   7.790  17.407  0.00  0.00    +0.000 A 
ENDROOT
BRANCH   1   8
ATOM      7  N   UNL     1       5.452   4.832  16.659  0.00  0.00    +0.000 N 
ATOM      8  C   UNL     1       5.544   6.022  17.409  0.00  0.00    +0.000 C 
ATOM      9  O   UNL     1       6.623   6.584  17.594  0.00  0.00    +0.000 OA
BRANCH   7  11
ATOM     10  C   UNL     1       6.808   4.375  14.593  0.00  0.00    +0.000 C 
ATOM     11  C   UNL     1       6.703   4.287  16.114  0.00  0.00    +0.000 C 
ENDBRANCH   7  11
BRANCH   7  12
ATOM     12  C   UNL     1       4.208   4.323  16.057  0.00  0.00    +0.000 C 
BRANCH  12  13
ATOM     13  C   UNL     1       3.359   3.300  16.843  0.00  0.00    +0.000 C 
ATOM     14  O   UNL     1       2.130   3.349  16.795  0.00  0.00    +0.000 OA
ATOM     15  N   UNL     1       4.017   2.388  17.640  0.00  0.00    +0.000 N 
ATOM     16  H   UNL     1       5.025   2.301  17.576  0.00  0.00    +0.000 HD
BRANCH  15  17
ATOM     17  C   UNL     1       3.257   1.470  18.470  0.00  0.00    +0.000 C 
BRANCH  17  18
ATOM     18  C   UNL     1       2.592   2.192  19.599  0.00  0.00    +0.000 A 
ATOM     19  C   UNL     1       1.259   2.521  19.754  0.00  0.00    +0.000 A 
ATOM     20  C   UNL     1       1.016   3.288  20.933  0.00  0.00    +0.000 A 
ATOM     21  C   UNL     1       2.172   3.526  21.639  0.00  0.00    +0.000 A 
ATOM     22  S   UNL     1       3.534   2.819  20.886  0.00  0.00    +0.000 S 
ENDBRANCH  17  18
ENDBRANCH  15  17
ENDBRANCH  12  13
ENDBRANCH   7  12
ENDBRANCH   1   8
BRANCH   4  23
ATOM     23  N   UNL     1       0.961   8.602  19.708  0.00  0.00    +0.000 N 
ATOM     24  C   UNL     1       0.409   8.078  20.971  0.00  0.00    +0.000 C 
BRANCH  23  25
ATOM     25  S   UNL     1       0.796  10.271  19.412  0.00  0.00    +0.000 S 
ATOM     26  O   UNL     1       0.837  10.987  20.675  0.00  0.00    +0.000 OA
ATOM     27  O   UNL     1       1.720  10.606  18.350  0.00  0.00    +0.000 OA
BRANCH  25  28
ATOM     28  C   UNL     1      -0.848  10.486  18.736  0.00  0.00    +0.000 A 
ATOM     29  C   UNL     1      -1.709  11.438  19.283  0.00  0.00    +0.000 A 
ATOM     30  C   UNL     1      -2.935  11.703  18.662  0.00  0.00    +0.000 A 
ATOM     31  C   UNL     1      -3.312  11.029  17.495  0.00  0.00    +0.000 A 
ATOM     32  C   UNL     1      -4.620  11.331  16.820  0.00  0.00    +0.000 C 
ATOM     33  C   UNL     1      -2.430  10.093  16.939  0.00  0.00    +0.000 A 
ATOM     34  C   UNL     1      -1.200   9.829  17.549  0.00  0.00    +0.000 A 
ENDBRANCH  25  28
ENDBRANCH  23  25
ENDBRANCH   4  23
TORSDOF 9
ENDMDL
