MODEL 1
REMARK VINA RESULT:      -7.3      0.000      0.000
REMARK  Name = 
REMARK  4 active torsions:
REMARK  status: ('A' for Active; 'I' for Inactive)
REMARK    1  A    between atoms: N_1  and  S_2
REMARK    2  A    between atoms: S_2  and  C_5
REMARK    3  A    between atoms: C_8  and  N_9
REMARK    4  A    between atoms: C_12  and  N_13
REMARK                            x       y       z     vdW  Elec       q    Type
REMARK                         _______ _______ _______ _____ _____    ______ ____
ROOT
ATOM      1  N   UNL     1       2.199   5.812  20.726  0.00  0.00    +0.000 N 
ATOM      2  C   UNL     1       3.023   4.948  20.079  0.00  0.00    +0.000 A 
ATOM      3  N   UNL     1       4.007   5.250  19.261  0.00  0.00    +0.000 NA
ATOM      4  C   UNL     1       4.516   4.130  18.659  0.00  0.00    +0.000 A 
ATOM      5  C   UNL     1       3.963   2.941  19.084  0.00  0.00    +0.000 A 
ATOM      6  S   UNL     1       2.781   3.248  20.284  0.00  0.00    +0.000 S 
ATOM      7  H   UNL     1       1.465   5.381  21.274  0.00  0.00    +0.000 HD
ENDROOT
BRANCH   1  11
ATOM      8  C   UNL     1       1.146   9.731  19.548  0.00  0.00    +0.000 A 
ATOM      9  C   UNL     1       0.868   9.285  20.838  0.00  0.00    +0.000 A 
ATOM     10  C   UNL     1       1.253   7.995  21.218  0.00  0.00    +0.000 A 
ATOM     11  C   UNL     1       1.898   7.129  20.313  0.00  0.00    +0.000 A 
ATOM     12  C   UNL     1       2.190   7.621  19.035  0.00  0.00    +0.000 A 
ATOM     13  C   UNL     1       1.807   8.905  18.643  0.00  0.00    +0.000 A 
BRANCH   8  14
ATOM     14  S   UNL     1       0.617  11.329  19.013  0.00  0.00    +0.000 S 
ATOM     15  O   UNL     1       0.784  12.274  20.091  0.00  0.00    +0.000 OA
ATOM     16  O   UNL     1      -0.619  11.204  18.277  0.00  0.00    +0.000 OA
BRANCH  14  17
ATOM     17  N   UNL     1       1.791  11.709  17.875  0.00  0.00    +0.000 NA
ATOM     18  H   UNL     1       2.382  12.460  18.230  0.00  0.00    +0.000 HD
ATOM     19  H   UNL     1       1.356  11.909  16.975  0.00  0.00    +0.000 HD
ENDBRANCH  14  17
ENDBRANCH   8  14
ENDBRANCH   1  11
BRANCH   4  20
ATOM     20  N   UNL     1       5.495   4.263  17.737  0.00  0.00    +0.000 N 
ATOM     21  C   UNL     1       6.827   4.762  18.047  0.00  0.00    +0.000 C 
ATOM     22  C   UNL     1       7.131   5.951  17.142  0.00  0.00    +0.000 C 
ATOM     23  C   UNL     1       6.944   5.586  15.667  0.00  0.00    +0.000 C 
ATOM     24  C   UNL     1       5.576   4.949  15.412  0.00  0.00    +0.000 C 
ATOM     25  C   UNL     1       5.312   3.782  16.369  0.00  0.00    +0.000 C 
ENDBRANCH   4  20
TORSDOF 4
ENDMDL
MODEL 2
REMARK VINA RESULT:      -7.2      0.242      1.055
REMARK  Name = 
REMARK  4 active torsions:
REMARK  status: ('A' for Active; 'I' for Inactive)
REMARK    1  A    between atoms: N_1  and  S_2
REMARK    2  A    between atoms: S_2  and  C_5
REMARK    3  A    between atoms: C_8  and  N_9
REMARK    4  A    between atoms: C_12  and  N_13
REMARK                            x       y       z     vdW  Elec       q    Type
REMARK                         _______ _______ _______ _____ _____    ______ ____
ROOT
ATOM      1  N   UNL     1       2.243   5.659  20.774  0.00  0.00    +0.000 N 
ATOM      2  C   UNL     1       3.094   4.830  20.114  0.00  0.00    +0.000 A 
ATOM      3  N   UNL     1       4.045   5.173  19.275  0.00  0.00    +0.000 NA
ATOM      4  C   UNL     1       4.594   4.074  18.668  0.00  0.00    +0.000 A 
ATOM      5  C   UNL     1       4.106   2.864  19.110  0.00  0.00    +0.000 A 
ATOM      6  S   UNL     1       2.935   3.122  20.332  0.00  0.00    +0.000 S 
ATOM      7  H   UNL     1       1.541   5.197  21.339  0.00  0.00    +0.000 HD
ENDROOT
BRANCH   1  11
ATOM      8  C   UNL     1       1.291   9.567  19.483  0.00  0.00    +0.000 A 
ATOM      9  C   UNL     1       1.922   8.675  18.619  0.00  0.00    +0.000 A 
ATOM     10  C   UNL     1       2.200   7.375  19.056  0.00  0.00    +0.000 A 
ATOM     11  C   UNL     1       1.873   6.958  20.361  0.00  0.00    +0.000 A 
ATOM     12  C   UNL     1       1.213   7.871  21.192  0.00  0.00    +0.000 A 
ATOM     13  C   UNL     1       0.934   9.172  20.768  0.00  0.00    +0.000 A 
BRANCH   8  14
ATOM     14  S   UNL     1       0.984  11.235  18.989  0.00  0.00    +0.000 S 
ATOM     15  O   UNL     1       1.426  12.131  20.030  0.00  0.00    +0.000 OA
ATOM     16  O   UNL     1      -0.329  11.326  18.396  0.00  0.00    +0.000 OA
BRANCH  14  17
ATOM     17  N   UNL     1       2.072  11.417  17.724  0.00  0.00    +0.000 NA
ATOM     18  H   UNL     1       2.156  10.538  17.215  0.00  0.00    +0.000 HD
ATOM     19  H   UNL     1       2.956  11.786  18.072  0.00  0.00    +0.000 HD
ENDBRANCH  14  17
ENDBRANCH   8  14
ENDBRANCH   1  11
BRANCH   4  20
ATOM     20  N   UNL     1       5.547   4.247  17.726  0.00  0.00    +0.000 N 
ATOM     21  C   UNL     1       6.880   4.753  18.016  0.00  0.00    +0.000 C 
ATOM     22  C   UNL     1       7.147   5.973  17.142  0.00  0.00    +0.000 C 
ATOM     23  C   UNL     1       6.926   5.651  15.660  0.00  0.00    +0.000 C 
ATOM     24  C   UNL     1       5.558   5.006  15.422  0.00  0.00    +0.000 C 
ATOM     25  C   UNL     1       5.333   3.807  16.348  0.00  0.00    +0.000 C 
ENDBRANCH   4  20
TORSDOF 4
ENDMDL
MODEL 3
REMARK VINA RESULT:      -7.2      3.900      7.922
REMARK  Name = 
REMARK  4 active torsions:
REMARK  status: ('A' for Active; 'I' for Inactive)
REMARK    1  A    between atoms: N_1  and  S_2
REMARK    2  A    between atoms: S_2  and  C_5
REMARK    3  A    between atoms: C_8  and  N_9
REMARK    4  A    between atoms: C_12  and  N_13
REMARK                            x       y       z     vdW  Elec       q    Type
REMARK                         _______ _______ _______ _____ _____    ______ ____
ROOT
ATOM      1  N   UNL     1       1.501   7.981  21.177  0.00  0.00    +0.000 N 
ATOM      2  C   UNL     1       0.739   9.074  20.907  0.00  0.00    +0.000 A 
ATOM      3  N   UNL     1      -0.110   9.225  19.916  0.00  0.00    +0.000 NA
ATOM      4  C   UNL     1      -0.574  10.511  19.850  0.00  0.00    +0.000 A 
ATOM      5  C   UNL     1      -0.133  11.340  20.859  0.00  0.00    +0.000 A 
ATOM      6  S   UNL     1       0.885  10.467  21.923  0.00  0.00    +0.000 S 
ATOM      7  H   UNL     1       2.135   8.079  21.960  0.00  0.00    +0.000 HD
ENDROOT
BRANCH   1  11
ATOM      8  C   UNL     1       2.791   4.988  18.489  0.00  0.00    +0.000 A 
ATOM      9  C   UNL     1       2.159   4.639  19.681  0.00  0.00    +0.000 A 
ATOM     10  C   UNL     1       1.711   5.647  20.543  0.00  0.00    +0.000 A 
ATOM     11  C   UNL     1       1.906   7.008  20.238  0.00  0.00    +0.000 A 
ATOM     12  C   UNL     1       2.517   7.323  19.018  0.00  0.00    +0.000 A 
ATOM     13  C   UNL     1       2.971   6.326  18.152  0.00  0.00    +0.000 A 
BRANCH   8  14
ATOM     14  S   UNL     1       3.427   3.744  17.409  0.00  0.00    +0.000 S 
ATOM     15  O   UNL     1       4.369   4.343  16.493  0.00  0.00    +0.000 OA
ATOM     16  O   UNL     1       2.348   2.896  16.964  0.00  0.00    +0.000 OA
BRANCH  14  17
ATOM     17  N   UNL     1       4.337   2.812  18.468  0.00  0.00    +0.000 NA
ATOM     18  H   UNL     1       4.473   1.881  18.075  0.00  0.00    +0.000 HD
ATOM     19  H   UNL     1       3.910   2.816  19.394  0.00  0.00    +0.000 HD
ENDBRANCH  14  17
ENDBRANCH   8  14
ENDBRANCH   1  11
BRANCH   4  20
ATOM     20  N   UNL     1      -1.412  10.861  18.848  0.00  0.00    +0.000 N 
ATOM     21  C   UNL     1      -2.203  12.083  18.853  0.00  0.00    +0.000 C 
ATOM     22  C   UNL     1      -3.672  11.721  18.668  0.00  0.00    +0.000 C 
ATOM     23  C   UNL     1      -3.878  10.866  17.413  0.00  0.00    +0.000 C 
ATOM     24  C   UNL     1      -2.935   9.660  17.393  0.00  0.00    +0.000 C 
ATOM     25  C   UNL     1      -1.479  10.080  17.614  0.00  0.00    +0.000 C 
ENDBRANCH   4  20
TORSDOF 4
ENDMDL
MODEL 4
REMARK VINA RESULT:      -7.1      0.764      1.001
REMARK  Name = 
REMARK  4 active torsions:
REMARK  status: ('A' for Active; 'I' for Inactive)
REMARK    1  A    between atoms: N_1  and  S_2
REMARK    2  A    between atoms: S_2  and  C_5
REMARK    3  A    between atoms: C_8  and  N_9
REMARK    4  A    between atoms: C_12  and  N_13
REMARK                            x       y       z     vdW  Elec       q    Type
REMARK                         _______ _______ _______ _____ _____    ______ ____
ROOT
ATOM      1  N   UNL     1       2.222   5.834  20.736  0.00  0.00    +0.000 N 
ATOM      2  C   UNL     1       3.047   4.968  20.092  0.00  0.00    +0.000 A 
ATOM      3  N   UNL     1       4.015   5.266  19.255  0.00  0.00    +0.000 NA
ATOM      4  C   UNL     1       4.528   4.141  18.666  0.00  0.00    +0.000 A 
ATOM      5  C   UNL     1       3.997   2.954  19.121  0.00  0.00    +0.000 A 
ATOM      6  S   UNL     1       2.829   3.269  20.332  0.00  0.00    +0.000 S 
ATOM      7  H   UNL     1       1.502   5.404  21.303  0.00  0.00    +0.000 HD
ENDROOT
BRANCH   1  11
ATOM      8  C   UNL     1       1.104   9.716  19.500  0.00  0.00    +0.000 A 
ATOM      9  C   UNL     1       0.833   9.285  20.797  0.00  0.00    +0.000 A 
ATOM     10  C   UNL     1       1.241   8.007  21.196  0.00  0.00    +0.000 A 
ATOM     11  C   UNL     1       1.900   7.139  20.304  0.00  0.00    +0.000 A 
ATOM     12  C   UNL     1       2.182   7.616  19.018  0.00  0.00    +0.000 A 
ATOM     13  C   UNL     1       1.778   8.888  18.607  0.00  0.00    +0.000 A 
BRANCH   8  14
ATOM     14  S   UNL     1       0.548  11.296  18.941  0.00  0.00    +0.000 S 
ATOM     15  O   UNL     1      -0.696  11.140  18.224  0.00  0.00    +0.000 OA
ATOM     16  O   UNL     1       1.664  12.036  18.402  0.00  0.00    +0.000 OA
BRANCH  14  17
ATOM     17  N   UNL     1       0.157  12.048  20.391  0.00  0.00    +0.000 NA
ATOM     18  H   UNL     1       0.990  12.484  20.785  0.00  0.00    +0.000 HD
ATOM     19  H   UNL     1      -0.305  11.387  21.015  0.00  0.00    +0.000 HD
ENDBRANCH  14  17
ENDBRANCH   8  14
ENDBRANCH   1  11
BRANCH   4  20
ATOM     20  N   UNL     1       5.492   4.268  17.726  0.00  0.00    +0.000 N 
ATOM     21  C   UNL     1       6.839   4.737  18.017  0.00  0.00    +0.000 C 
ATOM     22  C   UNL     1       7.148   5.933  17.123  0.00  0.00    +0.000 C 
ATOM     23  C   UNL     1       6.926   5.593  15.646  0.00  0.00    +0.000 C 
ATOM     24  C   UNL     1       5.541   4.986  15.410  0.00  0.00    +0.000 C 
ATOM     25  C   UNL     1       5.273   3.811  16.355  0.00  0.00    +0.000 C 
ENDBRANCH   4  20
TORSDOF 4
ENDMDL
MODEL 5
REMARK VINA RESULT:      -7.1      3.967      7.377
REMARK  Name = 
REMARK  4 active torsions:
REMARK  status: ('A' for Active; 'I' for Inactive)
REMARK    1  A    between atoms: N_1  and  S_2
REMARK    2  A    between atoms: S_2  and  C_5
REMARK    3  A    between atoms: C_8  and  N_9
REMARK    4  A    between atoms: C_12  and  N_13
REMARK                            x       y       z     vdW  Elec       q    Type
REMARK                         _______ _______ _______ _____ _____    ______ ____
ROOT
ATOM      1  N   UNL     1       2.142   6.710  20.107  0.00  0.00    +0.000 N 
ATOM      2  C   UNL     1       1.607   7.957  20.183  0.00  0.00    +0.000 A 
ATOM      3  N   UNL     1       1.604   8.878  19.246  0.00  0.00    +0.000 NA
ATOM      4  C   UNL     1       1.131  10.071  19.723  0.00  0.00    +0.000 A 
ATOM      5  C   UNL     1       0.690  10.041  21.028  0.00  0.00    +0.000 A 
ATOM      6  S   UNL     1       0.867   8.460  21.663  0.00  0.00    +0.000 S 
ATOM      7  H   UNL     1       2.089   6.164  20.958  0.00  0.00    +0.000 HD
ENDROOT
BRANCH   1  11
ATOM      8  C   UNL     1       5.376   5.539  17.652  0.00  0.00    +0.000 A 
ATOM      9  C   UNL     1       5.169   4.924  18.885  0.00  0.00    +0.000 A 
ATOM     10  C   UNL     1       4.073   5.304  19.668  0.00  0.00    +0.000 A 
ATOM     11  C   UNL     1       3.188   6.314  19.244  0.00  0.00    +0.000 A 
ATOM     12  C   UNL     1       3.408   6.889  17.987  0.00  0.00    +0.000 A 
ATOM     13  C   UNL     1       4.500   6.520  17.198  0.00  0.00    +0.000 A 
BRANCH   8  14
ATOM     14  S   UNL     1       6.783   5.131  16.667  0.00  0.00    +0.000 S 
ATOM     15  O   UNL     1       7.500   6.340  16.334  0.00  0.00    +0.000 OA
ATOM     16  O   UNL     1       6.407   4.156  15.671  0.00  0.00    +0.000 OA
BRANCH  14  17
ATOM     17  N   UNL     1       7.742   4.310  17.772  0.00  0.00    +0.000 NA
ATOM     18  H   UNL     1       7.886   3.352  17.456  0.00  0.00    +0.000 HD
ATOM     19  H   UNL     1       7.343   4.386  18.708  0.00  0.00    +0.000 HD
ENDBRANCH  14  17
ENDBRANCH   8  14
ENDBRANCH   1  11
BRANCH   4  20
ATOM     20  N   UNL     1       1.116  11.150  18.908  0.00  0.00    +0.000 N 
ATOM     21  C   UNL     1       2.255  11.559  18.100  0.00  0.00    +0.000 C 
ATOM     22  C   UNL     1       2.598  13.008  18.429  0.00  0.00    +0.000 C 
ATOM     23  C   UNL     1       1.376  13.917  18.267  0.00  0.00    +0.000 C 
ATOM     24  C   UNL     1       0.167  13.378  19.035  0.00  0.00    +0.000 C 
ATOM     25  C   UNL     1      -0.111  11.912  18.688  0.00  0.00    +0.000 C 
ENDBRANCH   4  20
TORSDOF 4
ENDMDL
MODEL 6
REMARK VINA RESULT:      -7.0      2.453      4.148
REMARK  Name = 
REMARK  4 active torsions:
REMARK  status: ('A' for Active; 'I' for Inactive)
REMARK    1  A    between atoms: N_1  and  S_2
REMARK    2  A    between atoms: S_2  and  C_5
REMARK    3  A    between atoms: C_8  and  N_9
REMARK    4  A    between atoms: C_12  and  N_13
REMARK                            x       y       z     vdW  Elec       q    Type
REMARK                         _______ _______ _______ _____ _____    ______ ____
ROOT
ATOM      1  N   UNL     1       2.822   8.184  17.691  0.00  0.00    +0.000 N 
ATOM      2  C   UNL     1       3.153   6.870  17.790  0.00  0.00    +0.000 A 
ATOM      3  N   UNL     1       2.499   5.933  18.437  0.00  0.00    +0.000 NA
ATOM      4  C   UNL     1       3.207   4.761  18.467  0.00  0.00    +0.000 A 
ATOM      5  C   UNL     1       4.390   4.780  17.761  0.00  0.00    +0.000 A 
ATOM      6  S   UNL     1       4.605   6.314  17.031  0.00  0.00    +0.000 S 
ATOM      7  H   UNL     1       3.486   8.760  17.188  0.00  0.00    +0.000 HD
ENDROOT
BRANCH   1  11
ATOM      8  C   UNL     1       0.548  10.470  20.421  0.00  0.00    +0.000 A 
ATOM      9  C   UNL     1       0.881  10.991  19.173  0.00  0.00    +0.000 A 
ATOM     10  C   UNL     1       1.608  10.205  18.271  0.00  0.00    +0.000 A 
ATOM     11  C   UNL     1       2.028   8.905  18.610  0.00  0.00    +0.000 A 
ATOM     12  C   UNL     1       1.650   8.402  19.860  0.00  0.00    +0.000 A 
ATOM     13  C   UNL     1       0.928   9.177  20.770  0.00  0.00    +0.000 A 
BRANCH   8  14
ATOM     14  S   UNL     1      -0.311  11.454  21.609  0.00  0.00    +0.000 S 
ATOM     15  O   UNL     1      -0.182  10.851  22.914  0.00  0.00    +0.000 OA
ATOM     16  O   UNL     1      -1.587  11.858  21.066  0.00  0.00    +0.000 OA
BRANCH  14  17
ATOM     17  N   UNL     1       0.633  12.842  21.642  0.00  0.00    +0.000 NA
ATOM     18  H   UNL     1       0.996  12.987  22.583  0.00  0.00    +0.000 HD
ATOM     19  H   UNL     1       0.107  13.633  21.270  0.00  0.00    +0.000 HD
ENDBRANCH  14  17
ENDBRANCH   8  14
ENDBRANCH   1  11
BRANCH   4  20
ATOM     20  N   UNL     1       2.709   3.705  19.149  0.00  0.00    +0.000 N 
ATOM     21  C   UNL     1       1.385   3.148  18.910  0.00  0.00    +0.000 C 
ATOM     22  C   UNL     1       0.609   3.140  20.222  0.00  0.00    +0.000 C 
ATOM     23  C   UNL     1       1.389   2.412  21.322  0.00  0.00    +0.000 C 
ATOM     24  C   UNL     1       2.816   2.949  21.451  0.00  0.00    +0.000 C 
ATOM     25  C   UNL     1       3.536   2.963  20.099  0.00  0.00    +0.000 C 
ENDBRANCH   4  20
TORSDOF 4
ENDMDL
MODEL 7
REMARK VINA RESULT:      -7.0      0.937      1.397
REMARK  Name = 
REMARK  4 active torsions:
REMARK  status: ('A' for Active; 'I' for Inactive)
REMARK    1  A    between atoms: N_1  and  S_2
REMARK    2  A    between atoms: S_2  and  C_5
REMARK    3  A    between atoms: C_8  and  N_9
REMARK    4  A    between atoms: C_12  and  N_13
REMARK                            x       y       z     vdW  Elec       q    Type
REMARK                         _______ _______ _______ _____ _____    ______ ____
ROOT
ATOM      1  N   UNL     1       2.151   6.529  20.522  0.00  0.00    +0.000 N 
ATOM      2  C   UNL     1       3.018   5.779  19.794  0.00  0.00    +0.000 A 
ATOM      3  N   UNL     1       3.929   6.211  18.952  0.00  0.00    +0.000 NA
ATOM      4  C   UNL     1       4.508   5.175  18.269  0.00  0.00    +0.000 A 
ATOM      5  C   UNL     1       4.086   3.920  18.652  0.00  0.00    +0.000 A 
ATOM      6  S   UNL     1       2.940   4.055  19.917  0.00  0.00    +0.000 S 
ATOM      7  H   UNL     1       1.486   6.005  21.077  0.00  0.00    +0.000 HD
ENDROOT
BRANCH   1  11
ATOM      8  C   UNL     1       0.698  10.392  19.617  0.00  0.00    +0.000 A 
ATOM      9  C   UNL     1       0.602   9.890  20.913  0.00  0.00    +0.000 A 
ATOM     10  C   UNL     1       1.119   8.621  21.199  0.00  0.00    +0.000 A 
ATOM     11  C   UNL     1       1.713   7.832  20.195  0.00  0.00    +0.000 A 
ATOM     12  C   UNL     1       1.819   8.380  18.911  0.00  0.00    +0.000 A 
ATOM     13  C   UNL     1       1.305   9.643  18.613  0.00  0.00    +0.000 A 
BRANCH   8  14
ATOM     14  S   UNL     1      -0.000  11.961  19.204  0.00  0.00    +0.000 S 
ATOM     15  O   UNL     1       0.033  12.819  20.365  0.00  0.00    +0.000 OA
ATOM     16  O   UNL     1      -1.197  11.764  18.422  0.00  0.00    +0.000 OA
BRANCH  14  17
ATOM     17  N   UNL     1       1.147  12.571  18.141  0.00  0.00    +0.000 NA
ATOM     18  H   UNL     1       2.024  12.064  18.256  0.00  0.00    +0.000 HD
ATOM     19  H   UNL     1       1.229  13.581  18.255  0.00  0.00    +0.000 HD
ENDBRANCH  14  17
ENDBRANCH   8  14
ENDBRANCH   1  11
BRANCH   4  20
ATOM     20  N   UNL     1       5.426   5.443  17.313  0.00  0.00    +0.000 N 
ATOM     21  C   UNL     1       5.094   6.036  16.026  0.00  0.00    +0.000 C 
ATOM     22  C   UNL     1       5.610   5.127  14.916  0.00  0.00    +0.000 C 
ATOM     23  C   UNL     1       7.104   4.837  15.088  0.00  0.00    +0.000 C 
ATOM     24  C   UNL     1       7.422   4.334  16.498  0.00  0.00    +0.000 C 
ATOM     25  C   UNL     1       6.854   5.269  17.570  0.00  0.00    +0.000 C 
ENDBRANCH   4  20
TORSDOF 4
ENDMDL
MODEL 8
REMARK VINA RESULT:      -6.9      3.837      7.845
REMARK  Name = 
REMARK  4 active torsions:
REMARK  status: ('A' for Active; 'I' for Inactive)
REMARK    1  A    between atoms: N_1  and  S_2
REMARK    2  A    between atoms: S_2  and  C_5
REMARK    3  A    between atoms: C_8  and  N_9
REMARK    4  A    between atoms: C_12  and  N_13
REMARK                            x       y       z     vdW  Elec       q    Type
REMARK                         _______ _______ _______ _____ _____    ______ ____
ROOT
ATOM      1  N   UNL     1       1.338   7.945  21.347  0.00  0.00    +0.000 N 
ATOM      2  C   UNL     1       0.589   9.022  20.995  0.00  0.00    +0.000 A 
ATOM      3  N   UNL     1      -0.151   9.157  19.917  0.00  0.00    +0.000 NA
ATOM      4  C   UNL     1      -0.632  10.434  19.800  0.00  0.00    +0.000 A 
ATOM      5  C   UNL     1      -0.320  11.271  20.849  0.00  0.00    +0.000 A 
ATOM      6  S   UNL     1       0.595  10.417  22.019  0.00  0.00    +0.000 S 
ATOM      7  H   UNL     1       1.882   8.055  22.194  0.00  0.00    +0.000 HD
ENDROOT
BRANCH   1  11
ATOM      8  C   UNL     1       2.829   5.138  18.564  0.00  0.00    +0.000 A 
ATOM      9  C   UNL     1       2.941   6.504  18.314  0.00  0.00    +0.000 A 
ATOM     10  C   UNL     1       2.468   7.417  19.263  0.00  0.00    +0.000 A 
ATOM     11  C   UNL     1       1.863   6.981  20.458  0.00  0.00    +0.000 A 
ATOM     12  C   UNL     1       1.795   5.603  20.690  0.00  0.00    +0.000 A 
ATOM     13  C   UNL     1       2.260   4.681  19.749  0.00  0.00    +0.000 A 
BRANCH   8  14
ATOM     14  S   UNL     1       3.354   3.956  17.361  0.00  0.00    +0.000 S 
ATOM     15  O   UNL     1       4.315   4.569  16.475  0.00  0.00    +0.000 OA
ATOM     16  O   UNL     1       2.208   3.226  16.873  0.00  0.00    +0.000 OA
BRANCH  14  17
ATOM     17  N   UNL     1       4.218   2.873  18.308  0.00  0.00    +0.000 NA
ATOM     18  H   UNL     1       4.551   3.343  19.149  0.00  0.00    +0.000 HD
ATOM     19  H   UNL     1       4.953   2.433  17.755  0.00  0.00    +0.000 HD
ENDBRANCH  14  17
ENDBRANCH   8  14
ENDBRANCH   1  11
BRANCH   4  20
ATOM     20  N   UNL     1      -1.363  10.768  18.713  0.00  0.00    +0.000 N 
ATOM     21  C   UNL     1      -2.098  12.018  18.593  0.00  0.00    +0.000 C 
ATOM     22  C   UNL     1      -3.560  11.705  18.293  0.00  0.00    +0.000 C 
ATOM     23  C   UNL     1      -3.691  10.800  17.065  0.00  0.00    +0.000 C 
ATOM     24  C   UNL     1      -2.803   9.558  17.181  0.00  0.00    +0.000 C 
ATOM     25  C   UNL     1      -1.355   9.932  17.514  0.00  0.00    +0.000 C 
ENDBRANCH   4  20
TORSDOF 4
ENDMDL
MODEL 9
REMARK VINA RESULT:      -6.9      1.629      2.064
REMARK  Name = 
REMARK  4 active torsions:
REMARK  status: ('A' for Active; 'I' for Inactive)
REMARK    1  A    between atoms: N_1  and  S_2
REMARK    2  A    between atoms: S_2  and  C_5
REMARK    3  A    between atoms: C_8  and  N_9
REMARK    4  A    between atoms: C_12  and  N_13
REMARK                            x       y       z     vdW  Elec       q    Type
REMARK                         _______ _______ _______ _____ _____    ______ ____
ROOT
ATOM      1  N   UNL     1       1.513   7.427  20.834  0.00  0.00    +0.000 N 
ATOM      2  C   UNL     1       2.199   6.487  20.133  0.00  0.00    +0.000 A 
ATOM      3  N   UNL     1       3.016   6.689  19.124  0.00  0.00    +0.000 NA
ATOM      4  C   UNL     1       3.399   5.506  18.550  0.00  0.00    +0.000 A 
ATOM      5  C   UNL     1       2.929   4.375  19.181  0.00  0.00    +0.000 A 
ATOM      6  S   UNL     1       1.989   4.820  20.542  0.00  0.00    +0.000 S 
ATOM      7  H   UNL     1       0.890   7.066  21.546  0.00  0.00    +0.000 HD
ENDROOT
BRANCH   1  11
ATOM      8  C   UNL     1       0.271  11.230  19.474  0.00  0.00    +0.000 A 
ATOM      9  C   UNL     1       0.048  10.847  20.795  0.00  0.00    +0.000 A 
ATOM     10  C   UNL     1       0.496   9.596  21.234  0.00  0.00    +0.000 A 
ATOM     11  C   UNL     1       1.148   8.706  20.358  0.00  0.00    +0.000 A 
ATOM     12  C   UNL     1       1.382   9.135  19.047  0.00  0.00    +0.000 A 
ATOM     13  C   UNL     1       0.937  10.379  18.597  0.00  0.00    +0.000 A 
BRANCH   8  14
ATOM     14  S   UNL     1      -0.337  12.773  18.868  0.00  0.00    +0.000 S 
ATOM     15  O   UNL     1       0.758  13.533  18.313  0.00  0.00    +0.000 OA
ATOM     16  O   UNL     1      -1.263  13.334  19.823  0.00  0.00    +0.000 OA
BRANCH  14  17
ATOM     17  N   UNL     1      -1.270  12.278  17.563  0.00  0.00    +0.000 NA
ATOM     18  H   UNL     1      -2.226  12.107  17.871  0.00  0.00    +0.000 HD
ATOM     19  H   UNL     1      -0.830  11.483  17.099  0.00  0.00    +0.000 HD
ENDBRANCH  14  17
ENDBRANCH   8  14
ENDBRANCH   1  11
BRANCH   4  20
ATOM     20  N   UNL     1       4.192   5.529  17.455  0.00  0.00    +0.000 N 
ATOM     21  C   UNL     1       4.420   4.369  16.606  0.00  0.00    +0.000 C 
ATOM     22  C   UNL     1       5.921   4.116  16.509  0.00  0.00    +0.000 C 
ATOM     23  C   UNL     1       6.665   5.371  16.042  0.00  0.00    +0.000 C 
ATOM     24  C   UNL     1       6.297   6.592  16.888  0.00  0.00    +0.000 C 
ATOM     25  C   UNL     1       4.779   6.779  16.975  0.00  0.00    +0.000 C 
ENDBRANCH   4  20
TORSDOF 4
ENDMDL
