MODEL 1
REMARK VINA RESULT:      -7.4      0.000      0.000
REMARK  Name = 
REMARK  6 active torsions:
REMARK  status: ('A' for Active; 'I' for Inactive)
REMARK    1  A    between atoms: C_1  and  C_2
REMARK    2  A    between atoms: C_2  and  C_3
REMARK    3  A    between atoms: C_3  and  C_4
REMARK    4  A    between atoms: C_8  and  N_9
REMARK    5  A    between atoms: C_10  and  C_11
REMARK    6  A    between atoms: C_11  and  C_13
REMARK                            x       y       z     vdW  Elec       q    Type
REMARK                         _______ _______ _______ _____ _____    ______ ____
ROOT
ATOM      1  C   UNL     1       2.338   7.665  18.836  0.00  0.00    +0.000 A 
ATOM      2  C   UNL     1       2.346   6.632  19.771  0.00  0.00    +0.000 A 
ATOM      3  C   UNL     1       3.273   5.611  19.644  0.00  0.00    +0.000 A 
ATOM      4  C   UNL     1       4.191   5.653  18.583  0.00  0.00    +0.000 A 
ATOM      5  C   UNL     1       5.288   4.803  18.220  0.00  0.00    +0.000 A 
ATOM      6  C   UNL     1       5.928   5.206  17.056  0.00  0.00    +0.000 A 
ATOM      7  S   UNL     1       5.239   6.696  16.490  0.00  0.00    +0.000 S 
ATOM      8  C   UNL     1       4.067   6.723  17.705  0.00  0.00    +0.000 A 
ATOM      9  N   UNL     1       3.174   7.736  17.781  0.00  0.00    +0.000 NA
ENDROOT
BRANCH   5  10
ATOM     10  N   UNL     1       5.593   3.718  18.965  0.00  0.00    +0.000 N 
ATOM     11  H   UNL     1       4.868   3.191  19.453  0.00  0.00    +0.000 HD
ATOM     12  H   UNL     1       6.533   3.512  19.292  0.00  0.00    +0.000 HD
ENDBRANCH   5  10
BRANCH   6  13
ATOM     13  C   UNL     1       7.056   4.601  16.330  0.00  0.00    +0.000 C 
ATOM     14  O   UNL     1       8.070   4.193  16.866  0.00  0.00    +0.000 OA
BRANCH  13  15
ATOM     15  C   UNL     1       6.956   4.459  14.830  0.00  0.00    +0.000 A 
ATOM     16  C   UNL     1       5.973   3.631  14.271  0.00  0.00    +0.000 A 
ATOM     17  C   UNL     1       5.814   3.542  12.889  0.00  0.00    +0.000 A 
ATOM     18  C   UNL     1       6.653   4.276  12.059  0.00  0.00    +0.000 A 
ATOM     19  C   UNL     1       7.661   5.078  12.600  0.00  0.00    +0.000 A 
ATOM     20  C   UNL     1       7.828   5.158  13.988  0.00  0.00    +0.000 A 
ENDBRANCH  13  15
ENDBRANCH   6  13
BRANCH   1  21
ATOM     21  C   UNL     1       1.362   8.803  19.026  0.00  0.00    +0.000 C 
BRANCH  21  23
ATOM     22  C   UNL     1       1.466  11.292  18.708  0.00  0.00    +0.000 C 
ATOM     23  C   UNL     1       1.607   9.937  18.035  0.00  0.00    +0.000 C 
ENDBRANCH  21  23
ENDBRANCH   1  21
TORSDOF 5
ENDMDL
MODEL 2
REMARK VINA RESULT:      -7.3      1.546      2.175
REMARK  Name = 
REMARK  6 active torsions:
REMARK  status: ('A' for Active; 'I' for Inactive)
REMARK    1  A    between atoms: C_1  and  C_2
REMARK    2  A    between atoms: C_2  and  C_3
REMARK    3  A    between atoms: C_3  and  C_4
REMARK    4  A    between atoms: C_8  and  N_9
REMARK    5  A    between atoms: C_10  and  C_11
REMARK    6  A    between atoms: C_11  and  C_13
REMARK                            x       y       z     vdW  Elec       q    Type
REMARK                         _______ _______ _______ _____ _____    ______ ____
ROOT
ATOM      1  C   UNL     1       2.388   6.859  19.671  0.00  0.00    +0.000 A 
ATOM      2  C   UNL     1       2.261   7.790  18.643  0.00  0.00    +0.000 A 
ATOM      3  C   UNL     1       3.130   7.731  17.565  0.00  0.00    +0.000 A 
ATOM      4  C   UNL     1       4.106   6.722  17.532  0.00  0.00    +0.000 A 
ATOM      5  C   UNL     1       5.090   6.362  16.553  0.00  0.00    +0.000 A 
ATOM      6  C   UNL     1       5.884   5.293  16.946  0.00  0.00    +0.000 A 
ATOM      7  S   UNL     1       5.328   4.674  18.470  0.00  0.00    +0.000 S 
ATOM      8  C   UNL     1       4.144   5.868  18.628  0.00  0.00    +0.000 A 
ATOM      9  N   UNL     1       3.327   5.893  19.705  0.00  0.00    +0.000 NA
ENDROOT
BRANCH   5  10
ATOM     10  N   UNL     1       5.197   7.055  15.398  0.00  0.00    +0.000 N 
ATOM     11  H   UNL     1       4.569   6.877  14.615  0.00  0.00    +0.000 HD
ATOM     12  H   UNL     1       6.024   7.587  15.141  0.00  0.00    +0.000 HD
ENDBRANCH   5  10
BRANCH   6  13
ATOM     13  C   UNL     1       7.015   4.644  16.264  0.00  0.00    +0.000 C 
ATOM     14  O   UNL     1       8.000   4.216  16.837  0.00  0.00    +0.000 OA
BRANCH  13  15
ATOM     15  C   UNL     1       6.957   4.482  14.764  0.00  0.00    +0.000 A 
ATOM     16  C   UNL     1       6.014   3.618  14.191  0.00  0.00    +0.000 A 
ATOM     17  C   UNL     1       5.892   3.508  12.807  0.00  0.00    +0.000 A 
ATOM     18  C   UNL     1       6.729   4.257  11.989  0.00  0.00    +0.000 A 
ATOM     19  C   UNL     1       7.698   5.096  12.544  0.00  0.00    +0.000 A 
ATOM     20  C   UNL     1       7.828   5.197  13.935  0.00  0.00    +0.000 A 
ENDBRANCH  13  15
ENDBRANCH   6  13
BRANCH   1  21
ATOM     21  C   UNL     1       1.392   6.899  20.807  0.00  0.00    +0.000 C 
BRANCH  21  23
ATOM     22  C   UNL     1      -0.200   8.711  21.510  0.00  0.00    +0.000 C 
ATOM     23  C   UNL     1       1.258   8.300  21.400  0.00  0.00    +0.000 C 
ENDBRANCH  21  23
ENDBRANCH   1  21
TORSDOF 5
ENDMDL
MODEL 3
REMARK VINA RESULT:      -7.3      1.537      2.405
REMARK  Name = 
REMARK  6 active torsions:
REMARK  status: ('A' for Active; 'I' for Inactive)
REMARK    1  A    between atoms: C_1  and  C_2
REMARK    2  A    between atoms: C_2  and  C_3
REMARK    3  A    between atoms: C_3  and  C_4
REMARK    4  A    between atoms: C_8  and  N_9
REMARK    5  A    between atoms: C_10  and  C_11
REMARK    6  A    between atoms: C_11  and  C_13
REMARK                            x       y       z     vdW  Elec       q    Type
REMARK                         _______ _______ _______ _____ _____    ______ ____
ROOT
ATOM      1  C   UNL     1       2.432   6.936  19.660  0.00  0.00    +0.000 A 
ATOM      2  C   UNL     1       2.283   7.854  18.623  0.00  0.00    +0.000 A 
ATOM      3  C   UNL     1       3.124   7.777  17.524  0.00  0.00    +0.000 A 
ATOM      4  C   UNL     1       4.095   6.764  17.480  0.00  0.00    +0.000 A 
ATOM      5  C   UNL     1       5.052   6.387  16.481  0.00  0.00    +0.000 A 
ATOM      6  C   UNL     1       5.852   5.320  16.868  0.00  0.00    +0.000 A 
ATOM      7  S   UNL     1       5.334   4.725  18.414  0.00  0.00    +0.000 S 
ATOM      8  C   UNL     1       4.159   5.925  18.586  0.00  0.00    +0.000 A 
ATOM      9  N   UNL     1       3.369   5.967  19.684  0.00  0.00    +0.000 NA
ENDROOT
BRANCH   5  10
ATOM     10  N   UNL     1       5.132   7.064  15.314  0.00  0.00    +0.000 N 
ATOM     11  H   UNL     1       5.327   8.065  15.297  0.00  0.00    +0.000 HD
ATOM     12  H   UNL     1       4.767   6.707  14.436  0.00  0.00    +0.000 HD
ENDBRANCH   5  10
BRANCH   6  13
ATOM     13  C   UNL     1       6.963   4.659  16.166  0.00  0.00    +0.000 C 
ATOM     14  O   UNL     1       7.948   4.209  16.723  0.00  0.00    +0.000 OA
BRANCH  13  15
ATOM     15  C   UNL     1       6.884   4.510  14.666  0.00  0.00    +0.000 A 
ATOM     16  C   UNL     1       7.750   5.245  13.845  0.00  0.00    +0.000 A 
ATOM     17  C   UNL     1       7.747   5.069  12.462  0.00  0.00    +0.000 A 
ATOM     18  C   UNL     1       6.861   4.161  11.895  0.00  0.00    +0.000 A 
ATOM     19  C   UNL     1       5.967   3.447  12.696  0.00  0.00    +0.000 A 
ATOM     20  C   UNL     1       5.963   3.633  14.084  0.00  0.00    +0.000 A 
ENDBRANCH  13  15
ENDBRANCH   6  13
BRANCH   1  21
ATOM     21  C   UNL     1       1.466   6.996  20.821  0.00  0.00    +0.000 C 
BRANCH  21  23
ATOM     22  C   UNL     1       1.245   9.042  22.261  0.00  0.00    +0.000 C 
ATOM     23  C   UNL     1       0.827   8.375  20.961  0.00  0.00    +0.000 C 
ENDBRANCH  21  23
ENDBRANCH   1  21
TORSDOF 5
ENDMDL
MODEL 4
REMARK VINA RESULT:      -7.3      0.685      1.320
REMARK  Name = 
REMARK  6 active torsions:
REMARK  status: ('A' for Active; 'I' for Inactive)
REMARK    1  A    between atoms: C_1  and  C_2
REMARK    2  A    between atoms: C_2  and  C_3
REMARK    3  A    between atoms: C_3  and  C_4
REMARK    4  A    between atoms: C_8  and  N_9
REMARK    5  A    between atoms: C_10  and  C_11
REMARK    6  A    between atoms: C_11  and  C_13
REMARK                            x       y       z     vdW  Elec       q    Type
REMARK                         _______ _______ _______ _____ _____    ______ ____
ROOT
ATOM      1  C   UNL     1       2.361   7.995  18.453  0.00  0.00    +0.000 A 
ATOM      2  C   UNL     1       2.408   7.086  19.508  0.00  0.00    +0.000 A 
ATOM      3  C   UNL     1       3.331   6.053  19.471  0.00  0.00    +0.000 A 
ATOM      4  C   UNL     1       4.205   5.960  18.377  0.00  0.00    +0.000 A 
ATOM      5  C   UNL     1       5.287   5.068  18.078  0.00  0.00    +0.000 A 
ATOM      6  C   UNL     1       5.880   5.321  16.849  0.00  0.00    +0.000 A 
ATOM      7  S   UNL     1       5.166   6.732  16.131  0.00  0.00    +0.000 S 
ATOM      8  C   UNL     1       4.044   6.914  17.379  0.00  0.00    +0.000 A 
ATOM      9  N   UNL     1       3.153   7.931  17.365  0.00  0.00    +0.000 NA
ENDROOT
BRANCH   5  10
ATOM     10  N   UNL     1       5.624   4.082  18.940  0.00  0.00    +0.000 N 
ATOM     11  H   UNL     1       5.964   4.294  19.878  0.00  0.00    +0.000 HD
ATOM     12  H   UNL     1       5.806   3.126  18.650  0.00  0.00    +0.000 HD
ENDBRANCH   5  10
BRANCH   6  13
ATOM     13  C   UNL     1       6.978   4.627  16.159  0.00  0.00    +0.000 C 
ATOM     14  O   UNL     1       7.931   4.127  16.727  0.00  0.00    +0.000 OA
BRANCH  13  15
ATOM     15  C   UNL     1       6.925   4.508  14.654  0.00  0.00    +0.000 A 
ATOM     16  C   UNL     1       7.786   5.280  13.862  0.00  0.00    +0.000 A 
ATOM     17  C   UNL     1       7.808   5.133  12.477  0.00  0.00    +0.000 A 
ATOM     18  C   UNL     1       6.952   4.217  11.876  0.00  0.00    +0.000 A 
ATOM     19  C   UNL     1       6.063   3.466  12.649  0.00  0.00    +0.000 A 
ATOM     20  C   UNL     1       6.033   3.623  14.040  0.00  0.00    +0.000 A 
ENDBRANCH  13  15
ENDBRANCH   6  13
BRANCH   1  21
ATOM     21  C   UNL     1       1.392   9.151  18.540  0.00  0.00    +0.000 C 
BRANCH  21  23
ATOM     22  C   UNL     1      -0.378  10.218  19.968  0.00  0.00    +0.000 C 
ATOM     23  C   UNL     1       0.874   9.357  19.962  0.00  0.00    +0.000 C 
ENDBRANCH  21  23
ENDBRANCH   1  21
TORSDOF 5
ENDMDL
MODEL 5
REMARK VINA RESULT:      -7.3      2.730      6.930
REMARK  Name = 
REMARK  6 active torsions:
REMARK  status: ('A' for Active; 'I' for Inactive)
REMARK    1  A    between atoms: C_1  and  C_2
REMARK    2  A    between atoms: C_2  and  C_3
REMARK    3  A    between atoms: C_3  and  C_4
REMARK    4  A    between atoms: C_8  and  N_9
REMARK    5  A    between atoms: C_10  and  C_11
REMARK    6  A    between atoms: C_11  and  C_13
REMARK                            x       y       z     vdW  Elec       q    Type
REMARK                         _______ _______ _______ _____ _____    ______ ____
ROOT
ATOM      1  C   UNL     1       5.877   3.875  13.041  0.00  0.00    +0.000 A 
ATOM      2  C   UNL     1       7.067   4.587  13.175  0.00  0.00    +0.000 A 
ATOM      3  C   UNL     1       7.435   5.062  14.423  0.00  0.00    +0.000 A 
ATOM      4  C   UNL     1       6.605   4.800  15.523  0.00  0.00    +0.000 A 
ATOM      5  C   UNL     1       6.732   5.093  16.922  0.00  0.00    +0.000 A 
ATOM      6  C   UNL     1       5.643   4.666  17.669  0.00  0.00    +0.000 A 
ATOM      7  S   UNL     1       4.530   3.806  16.652  0.00  0.00    +0.000 S 
ATOM      8  C   UNL     1       5.434   4.098  15.257  0.00  0.00    +0.000 A 
ATOM      9  N   UNL     1       5.028   3.624  14.058  0.00  0.00    +0.000 NA
ENDROOT
BRANCH   5  10
ATOM     10  N   UNL     1       7.817   5.748  17.391  0.00  0.00    +0.000 N 
ATOM     11  H   UNL     1       8.180   6.575  16.918  0.00  0.00    +0.000 HD
ATOM     12  H   UNL     1       8.470   5.341  18.054  0.00  0.00    +0.000 HD
ENDBRANCH   5  10
BRANCH   6  13
ATOM     13  C   UNL     1       5.363   4.802  19.107  0.00  0.00    +0.000 C 
ATOM     14  O   UNL     1       6.194   5.127  19.935  0.00  0.00    +0.000 OA
BRANCH  13  15
ATOM     15  C   UNL     1       3.959   4.538  19.598  0.00  0.00    +0.000 A 
ATOM     16  C   UNL     1       3.574   3.234  19.942  0.00  0.00    +0.000 A 
ATOM     17  C   UNL     1       2.309   2.977  20.467  0.00  0.00    +0.000 A 
ATOM     18  C   UNL     1       1.417   4.029  20.637  0.00  0.00    +0.000 A 
ATOM     19  C   UNL     1       1.773   5.328  20.266  0.00  0.00    +0.000 A 
ATOM     20  C   UNL     1       3.040   5.584  19.727  0.00  0.00    +0.000 A 
ENDBRANCH  13  15
ENDBRANCH   6  13
BRANCH   1  21
ATOM     21  C   UNL     1       5.523   3.309  11.685  0.00  0.00    +0.000 C 
BRANCH  21  23
ATOM     22  C   UNL     1       3.523   3.782  10.241  0.00  0.00    +0.000 C 
ATOM     23  C   UNL     1       4.017   3.124  11.519  0.00  0.00    +0.000 C 
ENDBRANCH  21  23
ENDBRANCH   1  21
TORSDOF 5
ENDMDL
MODEL 6
REMARK VINA RESULT:      -7.1      2.624      6.942
REMARK  Name = 
REMARK  6 active torsions:
REMARK  status: ('A' for Active; 'I' for Inactive)
REMARK    1  A    between atoms: C_1  and  C_2
REMARK    2  A    between atoms: C_2  and  C_3
REMARK    3  A    between atoms: C_3  and  C_4
REMARK    4  A    between atoms: C_8  and  N_9
REMARK    5  A    between atoms: C_10  and  C_11
REMARK    6  A    between atoms: C_11  and  C_13
REMARK                            x       y       z     vdW  Elec       q    Type
REMARK                         _______ _______ _______ _____ _____    ______ ____
ROOT
ATOM      1  C   UNL     1       5.901   3.804  12.973  0.00  0.00    +0.000 A 
ATOM      2  C   UNL     1       7.022   4.630  13.023  0.00  0.00    +0.000 A 
ATOM      3  C   UNL     1       7.374   5.220  14.226  0.00  0.00    +0.000 A 
ATOM      4  C   UNL     1       6.600   4.957  15.367  0.00  0.00    +0.000 A 
ATOM      5  C   UNL     1       6.734   5.354  16.738  0.00  0.00    +0.000 A 
ATOM      6  C   UNL     1       5.709   4.880  17.545  0.00  0.00    +0.000 A 
ATOM      7  S   UNL     1       4.656   3.855  16.621  0.00  0.00    +0.000 S 
ATOM      8  C   UNL     1       5.494   4.135  15.182  0.00  0.00    +0.000 A 
ATOM      9  N   UNL     1       5.104   3.545  14.029  0.00  0.00    +0.000 NA
ENDROOT
BRANCH   5  10
ATOM     10  N   UNL     1       7.764   6.136  17.130  0.00  0.00    +0.000 N 
ATOM     11  H   UNL     1       7.985   6.263  18.118  0.00  0.00    +0.000 HD
ATOM     12  H   UNL     1       8.204   6.823  16.526  0.00  0.00    +0.000 HD
ENDBRANCH   5  10
BRANCH   6  13
ATOM     13  C   UNL     1       5.452   5.086  18.980  0.00  0.00    +0.000 C 
ATOM     14  O   UNL     1       6.291   5.474  19.772  0.00  0.00    +0.000 OA
BRANCH  13  15
ATOM     15  C   UNL     1       4.065   4.816  19.512  0.00  0.00    +0.000 A 
ATOM     16  C   UNL     1       3.154   5.872  19.652  0.00  0.00    +0.000 A 
ATOM     17  C   UNL     1       1.845   5.636  20.070  0.00  0.00    +0.000 A 
ATOM     18  C   UNL     1       1.449   4.337  20.364  0.00  0.00    +0.000 A 
ATOM     19  C   UNL     1       2.355   3.279  20.263  0.00  0.00    +0.000 A 
ATOM     20  C   UNL     1       3.673   3.518  19.854  0.00  0.00    +0.000 A 
ENDBRANCH  13  15
ENDBRANCH   6  13
BRANCH   1  21
ATOM     21  C   UNL     1       5.568   3.119  11.668  0.00  0.00    +0.000 C 
BRANCH  21  23
ATOM     22  C   UNL     1       3.601   3.935  10.336  0.00  0.00    +0.000 C 
ATOM     23  C   UNL     1       4.061   3.008  11.449  0.00  0.00    +0.000 C 
ENDBRANCH  21  23
ENDBRANCH   1  21
TORSDOF 5
ENDMDL
MODEL 7
REMARK VINA RESULT:      -7.0      2.760      7.260
REMARK  Name = 
REMARK  6 active torsions:
REMARK  status: ('A' for Active; 'I' for Inactive)
REMARK    1  A    between atoms: C_1  and  C_2
REMARK    2  A    between atoms: C_2  and  C_3
REMARK    3  A    between atoms: C_3  and  C_4
REMARK    4  A    between atoms: C_8  and  N_9
REMARK    5  A    between atoms: C_10  and  C_11
REMARK    6  A    between atoms: C_11  and  C_13
REMARK                            x       y       z     vdW  Elec       q    Type
REMARK                         _______ _______ _______ _____ _____    ______ ____
ROOT
ATOM      1  C   UNL     1       6.094   3.872  13.116  0.00  0.00    +0.000 A 
ATOM      2  C   UNL     1       7.166   4.754  13.234  0.00  0.00    +0.000 A 
ATOM      3  C   UNL     1       7.463   5.296  14.474  0.00  0.00    +0.000 A 
ATOM      4  C   UNL     1       6.684   4.928  15.582  0.00  0.00    +0.000 A 
ATOM      5  C   UNL     1       6.770   5.256  16.976  0.00  0.00    +0.000 A 
ATOM      6  C   UNL     1       5.759   4.683  17.734  0.00  0.00    +0.000 A 
ATOM      7  S   UNL     1       4.782   3.654  16.734  0.00  0.00    +0.000 S 
ATOM      8  C   UNL     1       5.630   4.058  15.331  0.00  0.00    +0.000 A 
ATOM      9  N   UNL     1       5.294   3.512  14.139  0.00  0.00    +0.000 NA
ENDROOT
BRANCH   5  10
ATOM     10  N   UNL     1       7.748   6.071  17.431  0.00  0.00    +0.000 N 
ATOM     11  H   UNL     1       8.575   6.269  16.869  0.00  0.00    +0.000 HD
ATOM     12  H   UNL     1       7.854   6.321  18.410  0.00  0.00    +0.000 HD
ENDBRANCH   5  10
BRANCH   6  13
ATOM     13  C   UNL     1       5.465   4.795  19.172  0.00  0.00    +0.000 C 
ATOM     14  O   UNL     1       6.283   5.129  20.009  0.00  0.00    +0.000 OA
BRANCH  13  15
ATOM     15  C   UNL     1       4.065   4.493  19.649  0.00  0.00    +0.000 A 
ATOM     16  C   UNL     1       3.734   3.197  20.066  0.00  0.00    +0.000 A 
ATOM     17  C   UNL     1       2.470   2.911  20.581  0.00  0.00    +0.000 A 
ATOM     18  C   UNL     1       1.525   3.927  20.665  0.00  0.00    +0.000 A 
ATOM     19  C   UNL     1       1.828   5.216  20.220  0.00  0.00    +0.000 A 
ATOM     20  C   UNL     1       3.094   5.499  19.693  0.00  0.00    +0.000 A 
ENDBRANCH  13  15
ENDBRANCH   6  13
BRANCH   1  21
ATOM     21  C   UNL     1       5.824   3.242  11.769  0.00  0.00    +0.000 C 
BRANCH  21  23
ATOM     22  C   UNL     1       6.310   0.872  11.093  0.00  0.00    +0.000 C 
ATOM     23  C   UNL     1       6.907   2.239  11.380  0.00  0.00    +0.000 C 
ENDBRANCH  21  23
ENDBRANCH   1  21
TORSDOF 5
ENDMDL
MODEL 8
REMARK VINA RESULT:      -7.0      2.809      7.215
REMARK  Name = 
REMARK  6 active torsions:
REMARK  status: ('A' for Active; 'I' for Inactive)
REMARK    1  A    between atoms: C_1  and  C_2
REMARK    2  A    between atoms: C_2  and  C_3
REMARK    3  A    between atoms: C_3  and  C_4
REMARK    4  A    between atoms: C_8  and  N_9
REMARK    5  A    between atoms: C_10  and  C_11
REMARK    6  A    between atoms: C_11  and  C_13
REMARK                            x       y       z     vdW  Elec       q    Type
REMARK                         _______ _______ _______ _____ _____    ______ ____
ROOT
ATOM      1  C   UNL     1       5.811   3.885  13.081  0.00  0.00    +0.000 A 
ATOM      2  C   UNL     1       7.040   4.525  13.232  0.00  0.00    +0.000 A 
ATOM      3  C   UNL     1       7.428   4.956  14.491  0.00  0.00    +0.000 A 
ATOM      4  C   UNL     1       6.578   4.723  15.583  0.00  0.00    +0.000 A 
ATOM      5  C   UNL     1       6.715   4.983  16.986  0.00  0.00    +0.000 A 
ATOM      6  C   UNL     1       5.600   4.608  17.722  0.00  0.00    +0.000 A 
ATOM      7  S   UNL     1       4.443   3.832  16.685  0.00  0.00    +0.000 S 
ATOM      8  C   UNL     1       5.371   4.095  15.299  0.00  0.00    +0.000 A 
ATOM      9  N   UNL     1       4.944   3.667  14.089  0.00  0.00    +0.000 NA
ENDROOT
BRANCH   5  10
ATOM     10  N   UNL     1       7.834   5.566  17.472  0.00  0.00    +0.000 N 
ATOM     11  H   UNL     1       8.157   6.467  17.119  0.00  0.00    +0.000 HD
ATOM     12  H   UNL     1       8.539   5.063  18.002  0.00  0.00    +0.000 HD
ENDBRANCH   5  10
BRANCH   6  13
ATOM     13  C   UNL     1       5.320   4.734  19.161  0.00  0.00    +0.000 C 
ATOM     14  O   UNL     1       6.129   5.130  19.979  0.00  0.00    +0.000 OA
BRANCH  13  15
ATOM     15  C   UNL     1       3.945   4.367  19.665  0.00  0.00    +0.000 A 
ATOM     16  C   UNL     1       2.982   5.367  19.858  0.00  0.00    +0.000 A 
ATOM     17  C   UNL     1       1.684   5.044  20.251  0.00  0.00    +0.000 A 
ATOM     18  C   UNL     1       1.350   3.713  20.465  0.00  0.00    +0.000 A 
ATOM     19  C   UNL     1       2.307   2.708  20.311  0.00  0.00    +0.000 A 
ATOM     20  C   UNL     1       3.614   3.033  19.927  0.00  0.00    +0.000 A 
ENDBRANCH  13  15
ENDBRANCH   6  13
BRANCH   1  21
ATOM     21  C   UNL     1       5.432   3.366  11.714  0.00  0.00    +0.000 C 
BRANCH  21  23
ATOM     22  C   UNL     1       7.137   1.675  10.975  0.00  0.00    +0.000 C 
ATOM     23  C   UNL     1       5.750   1.880  11.559  0.00  0.00    +0.000 C 
ENDBRANCH  21  23
ENDBRANCH   1  21
TORSDOF 5
ENDMDL
MODEL 9
REMARK VINA RESULT:      -6.9      3.783      6.067
REMARK  Name = 
REMARK  6 active torsions:
REMARK  status: ('A' for Active; 'I' for Inactive)
REMARK    1  A    between atoms: C_1  and  C_2
REMARK    2  A    between atoms: C_2  and  C_3
REMARK    3  A    between atoms: C_3  and  C_4
REMARK    4  A    between atoms: C_8  and  N_9
REMARK    5  A    between atoms: C_10  and  C_11
REMARK    6  A    between atoms: C_11  and  C_13
REMARK                            x       y       z     vdW  Elec       q    Type
REMARK                         _______ _______ _______ _____ _____    ______ ____
ROOT
ATOM      1  C   UNL     1       7.780   8.101  17.818  0.00  0.00    +0.000 A 
ATOM      2  C   UNL     1       8.348   7.153  18.665  0.00  0.00    +0.000 A 
ATOM      3  C   UNL     1       7.658   5.981  18.930  0.00  0.00    +0.000 A 
ATOM      4  C   UNL     1       6.409   5.775  18.323  0.00  0.00    +0.000 A 
ATOM      5  C   UNL     1       5.496   4.669  18.343  0.00  0.00    +0.000 A 
ATOM      6  C   UNL     1       4.341   4.902  17.609  0.00  0.00    +0.000 A 
ATOM      7  S   UNL     1       4.451   6.440  16.809  0.00  0.00    +0.000 S 
ATOM      8  C   UNL     1       5.940   6.805  17.516  0.00  0.00    +0.000 A 
ATOM      9  N   UNL     1       6.571   7.968  17.237  0.00  0.00    +0.000 NA
ENDROOT
BRANCH   5  10
ATOM     10  N   UNL     1       5.781   3.554  19.051  0.00  0.00    +0.000 N 
ATOM     11  H   UNL     1       5.042   2.933  19.379  0.00  0.00    +0.000 HD
ATOM     12  H   UNL     1       6.675   3.397  19.508  0.00  0.00    +0.000 HD
ENDBRANCH   5  10
BRANCH   6  13
ATOM     13  C   UNL     1       3.154   4.057  17.405  0.00  0.00    +0.000 C 
ATOM     14  O   UNL     1       2.800   3.632  16.320  0.00  0.00    +0.000 OA
BRANCH  13  15
ATOM     15  C   UNL     1       2.324   3.675  18.607  0.00  0.00    +0.000 A 
ATOM     16  C   UNL     1       2.210   2.327  18.976  0.00  0.00    +0.000 A 
ATOM     17  C   UNL     1       1.511   1.957  20.124  0.00  0.00    +0.000 A 
ATOM     18  C   UNL     1       0.910   2.940  20.901  0.00  0.00    +0.000 A 
ATOM     19  C   UNL     1       0.984   4.284  20.526  0.00  0.00    +0.000 A 
ATOM     20  C   UNL     1       1.677   4.654  19.367  0.00  0.00    +0.000 A 
ENDBRANCH  13  15
ENDBRANCH   6  13
BRANCH   1  21
ATOM     21  C   UNL     1       8.575   9.344  17.491  0.00  0.00    +0.000 C 
BRANCH  21  23
ATOM     22  C   UNL     1       9.875  11.285  18.413  0.00  0.00    +0.000 C 
ATOM     23  C   UNL     1       8.936  10.138  18.744  0.00  0.00    +0.000 C 
ENDBRANCH  21  23
ENDBRANCH   1  21
TORSDOF 5
ENDMDL
