MODEL 1
REMARK VINA RESULT:      -8.3      0.000      0.000
REMARK  Name = 
REMARK  7 active torsions:
REMARK  status: ('A' for Active; 'I' for Inactive)
REMARK    1  A    between atoms: C_2  and  C_3
REMARK    2  A    between atoms: C_3  and  O_4
REMARK    3  A    between atoms: C_8  and  C_9
REMARK    4  A    between atoms: C_12  and  C_13
REMARK    5  A    between atoms: C_17  and  O_18
REMARK    6  A    between atoms: O_18  and  C_19
REMARK    7  A    between atoms: C_19  and  C_20
REMARK                            x       y       z     vdW  Elec       q    Type
REMARK                         _______ _______ _______ _____ _____    ______ ____
ROOT
ATOM      1  C   UNL     1      -5.168  12.606  18.492  0.00  0.00    +0.000 A 
ATOM      2  C   UNL     1      -3.926  12.170  18.910  0.00  0.00    +0.000 A 
ATOM      3  C   UNL     1      -3.331  11.388  17.887  0.00  0.00    +0.000 A 
ATOM      4  C   UNL     1      -2.116  10.684  17.733  0.00  0.00    +0.000 A 
ATOM      5  C   UNL     1      -1.964  10.029  16.492  0.00  0.00    +0.000 A 
ATOM      6  C   UNL     1      -2.953  10.120  15.520  0.00  0.00    +0.000 A 
ATOM      7  N   UNL     1      -4.111  10.797  15.639  0.00  0.00    +0.000 NA
ATOM      8  C   UNL     1      -4.241  11.394  16.836  0.00  0.00    +0.000 A 
ATOM      9  N   UNL     1      -5.334  12.127  17.212  0.00  0.00    +0.000 N 
ATOM     10  H   UNL     1      -6.138  12.265  16.616  0.00  0.00    +0.000 HD
ENDROOT
BRANCH   1  16
ATOM     11  O   UNL     1      -7.916  11.435  23.509  0.00  0.00    +0.000 OA
ATOM     12  C   UNL     1      -6.980  12.192  23.243  0.00  0.00    +0.000 C 
ATOM     13  N   UNL     1      -6.585  12.487  21.942  0.00  0.00    +0.000 N 
ATOM     14  C   UNL     1      -5.414  13.299  21.615  0.00  0.00    +0.000 C 
ATOM     15  C   UNL     1      -5.660  14.182  20.395  0.00  0.00    +0.000 C 
ATOM     16  C   UNL     1      -6.223  13.414  19.192  0.00  0.00    +0.000 C 
ATOM     17  C   UNL     1      -7.423  12.553  19.610  0.00  0.00    +0.000 C 
ATOM     18  C   UNL     1      -7.154  11.699  20.848  0.00  0.00    +0.000 C 
BRANCH  12  19
ATOM     19  C   UNL     1      -6.233  12.901  24.382  0.00  0.00    +0.000 C 
BRANCH  19  20
ATOM     20  O   UNL     1      -5.156  12.136  24.902  0.00  0.00    +0.000 OA
ATOM     21  H   UNL     1      -5.370  11.207  24.687  0.00  0.00    +0.000 HD
ENDBRANCH  19  20
ENDBRANCH  12  19
ENDBRANCH   1  16
BRANCH   4  22
ATOM     22  C   UNL     1      -1.083  10.685  18.789  0.00  0.00    +0.000 A 
ATOM     23  C   UNL     1      -0.394  11.845  19.140  0.00  0.00    +0.000 A 
ATOM     24  N   UNL     1       0.563  11.897  20.094  0.00  0.00    +0.000 NA
ATOM     25  C   UNL     1       0.806  10.718  20.715  0.00  0.00    +0.000 A 
ATOM     26  C   UNL     1       0.121   9.547  20.425  0.00  0.00    +0.000 A 
ATOM     27  N   UNL     1      -0.818   9.516  19.445  0.00  0.00    +0.000 NA
BRANCH  26  28
ATOM     28  O   UNL     1       0.336   8.341  21.051  0.00  0.00    +0.000 OA
BRANCH  28  29
ATOM     29  C   UNL     1       1.698   7.906  21.051  0.00  0.00    +0.000 C 
BRANCH  29  30
ATOM     30  C   UNL     1       1.860   6.640  20.246  0.00  0.00    +0.000 A 
ATOM     31  C   UNL     1       1.212   5.454  20.621  0.00  0.00    +0.000 A 
ATOM     32  C   UNL     1       1.408   4.276  19.893  0.00  0.00    +0.000 A 
ATOM     33  C   UNL     1       2.250   4.274  18.781  0.00  0.00    +0.000 A 
ATOM     34  C   UNL     1       2.884   5.450  18.403  0.00  0.00    +0.000 A 
ATOM     35  F   UNL     1       3.699   5.450  17.340  0.00  0.00    +0.000 F 
ATOM     36  C   UNL     1       2.695   6.628  19.118  0.00  0.00    +0.000 A 
ENDBRANCH  29  30
ENDBRANCH  28  29
ENDBRANCH  26  28
ENDBRANCH   4  22
TORSDOF 7
ENDMDL
MODEL 2
REMARK VINA RESULT:      -8.2      2.808      7.960
REMARK  Name = 
REMARK  7 active torsions:
REMARK  status: ('A' for Active; 'I' for Inactive)
REMARK    1  A    between atoms: C_2  and  C_3
REMARK    2  A    between atoms: C_3  and  O_4
REMARK    3  A    between atoms: C_8  and  C_9
REMARK    4  A    between atoms: C_12  and  C_13
REMARK    5  A    between atoms: C_17  and  O_18
REMARK    6  A    between atoms: O_18  and  C_19
REMARK    7  A    between atoms: C_19  and  C_20
REMARK                            x       y       z     vdW  Elec       q    Type
REMARK                         _______ _______ _______ _____ _____    ______ ____
ROOT
ATOM      1  C   UNL     1      -0.732  11.111  18.795  0.00  0.00    +0.000 A 
ATOM      2  C   UNL     1      -1.971  11.411  19.326  0.00  0.00    +0.000 A 
ATOM      3  C   UNL     1      -2.943  11.392  18.293  0.00  0.00    +0.000 A 
ATOM      4  C   UNL     1      -4.335  11.623  18.214  0.00  0.00    +0.000 A 
ATOM      5  C   UNL     1      -4.885  11.486  16.921  0.00  0.00    +0.000 A 
ATOM      6  C   UNL     1      -4.082  11.128  15.846  0.00  0.00    +0.000 A 
ATOM      7  N   UNL     1      -2.757  10.888  15.901  0.00  0.00    +0.000 NA
ATOM      8  C   UNL     1      -2.254  11.046  17.137  0.00  0.00    +0.000 A 
ATOM      9  N   UNL     1      -0.932  10.879  17.453  0.00  0.00    +0.000 N 
ATOM     10  H   UNL     1      -0.228  10.636  16.771  0.00  0.00    +0.000 HD
ENDROOT
BRANCH   1  16
ATOM     11  O   UNL     1       2.480   6.389  20.013  0.00  0.00    +0.000 OA
ATOM     12  C   UNL     1       2.538   7.206  19.090  0.00  0.00    +0.000 C 
ATOM     13  N   UNL     1       1.805   8.388  19.074  0.00  0.00    +0.000 N 
ATOM     14  C   UNL     1       1.785   9.313  17.941  0.00  0.00    +0.000 C 
ATOM     15  C   UNL     1       1.733  10.767  18.400  0.00  0.00    +0.000 C 
ATOM     16  C   UNL     1       0.629  11.042  19.429  0.00  0.00    +0.000 C 
ATOM     17  C   UNL     1       0.680  10.015  20.568  0.00  0.00    +0.000 C 
ATOM     18  C   UNL     1       0.757   8.570  20.078  0.00  0.00    +0.000 C 
BRANCH  12  19
ATOM     19  C   UNL     1       3.498   6.957  17.919  0.00  0.00    +0.000 C 
BRANCH  19  20
ATOM     20  O   UNL     1       3.482   5.614  17.460  0.00  0.00    +0.000 OA
ATOM     21  H   UNL     1       2.597   5.271  17.695  0.00  0.00    +0.000 HD
ENDBRANCH  19  20
ENDBRANCH  12  19
ENDBRANCH   1  16
BRANCH   4  22
ATOM     22  C   UNL     1      -5.135  11.940  19.414  0.00  0.00    +0.000 A 
ATOM     23  C   UNL     1      -6.195  11.131  19.824  0.00  0.00    +0.000 A 
ATOM     24  N   UNL     1      -6.960  11.380  20.910  0.00  0.00    +0.000 NA
ATOM     25  C   UNL     1      -6.614  12.491  21.602  0.00  0.00    +0.000 A 
ATOM     26  C   UNL     1      -5.547  13.305  21.255  0.00  0.00    +0.000 A 
ATOM     27  N   UNL     1      -4.808  13.046  20.145  0.00  0.00    +0.000 NA
BRANCH  26  28
ATOM     28  O   UNL     1      -5.162  14.429  21.948  0.00  0.00    +0.000 OA
BRANCH  28  29
ATOM     29  C   UNL     1      -4.538  14.165  23.207  0.00  0.00    +0.000 C 
BRANCH  29  30
ATOM     30  C   UNL     1      -3.158  13.587  23.014  0.00  0.00    +0.000 A 
ATOM     31  C   UNL     1      -2.115  14.360  22.481  0.00  0.00    +0.000 A 
ATOM     32  C   UNL     1      -0.853  13.798  22.264  0.00  0.00    +0.000 A 
ATOM     33  C   UNL     1      -0.619  12.460  22.580  0.00  0.00    +0.000 A 
ATOM     34  C   UNL     1      -1.648  11.697  23.117  0.00  0.00    +0.000 A 
ATOM     35  F   UNL     1      -1.429  10.409  23.415  0.00  0.00    +0.000 F 
ATOM     36  C   UNL     1      -2.907  12.245  23.340  0.00  0.00    +0.000 A 
ENDBRANCH  29  30
ENDBRANCH  28  29
ENDBRANCH  26  28
ENDBRANCH   4  22
TORSDOF 7
ENDMDL
MODEL 3
REMARK VINA RESULT:      -8.0      3.263      8.517
REMARK  Name = 
REMARK  7 active torsions:
REMARK  status: ('A' for Active; 'I' for Inactive)
REMARK    1  A    between atoms: C_2  and  C_3
REMARK    2  A    between atoms: C_3  and  O_4
REMARK    3  A    between atoms: C_8  and  C_9
REMARK    4  A    between atoms: C_12  and  C_13
REMARK    5  A    between atoms: C_17  and  O_18
REMARK    6  A    between atoms: O_18  and  C_19
REMARK    7  A    between atoms: C_19  and  C_20
REMARK                            x       y       z     vdW  Elec       q    Type
REMARK                         _______ _______ _______ _____ _____    ______ ____
ROOT
ATOM      1  C   UNL     1      -2.823  12.487  19.671  0.00  0.00    +0.000 A 
ATOM      2  C   UNL     1      -3.835  12.728  20.580  0.00  0.00    +0.000 A 
ATOM      3  C   UNL     1      -5.079  12.358  20.011  0.00  0.00    +0.000 A 
ATOM      4  C   UNL     1      -6.428  12.379  20.432  0.00  0.00    +0.000 A 
ATOM      5  C   UNL     1      -7.352  11.892  19.483  0.00  0.00    +0.000 A 
ATOM      6  C   UNL     1      -6.917  11.418  18.252  0.00  0.00    +0.000 A 
ATOM      7  N   UNL     1      -5.637  11.373  17.835  0.00  0.00    +0.000 NA
ATOM      8  C   UNL     1      -4.779  11.861  18.747  0.00  0.00    +0.000 A 
ATOM      9  N   UNL     1      -3.425  11.944  18.558  0.00  0.00    +0.000 N 
ATOM     10  H   UNL     1      -2.968  11.653  17.706  0.00  0.00    +0.000 HD
ENDROOT
BRANCH   1  16
ATOM     11  O   UNL     1       1.229   9.530  22.660  0.00  0.00    +0.000 OA
ATOM     12  C   UNL     1       0.910   9.511  21.468  0.00  0.00    +0.000 C 
ATOM     13  N   UNL     1       0.045  10.438  20.897  0.00  0.00    +0.000 N 
ATOM     14  C   UNL     1      -0.423  10.364  19.513  0.00  0.00    +0.000 C 
ATOM     15  C   UNL     1      -0.547  11.748  18.884  0.00  0.00    +0.000 C 
ATOM     16  C   UNL     1      -1.343  12.738  19.743  0.00  0.00    +0.000 C 
ATOM     17  C   UNL     1      -0.830  12.738  21.190  0.00  0.00    +0.000 C 
ATOM     18  C   UNL     1      -0.693  11.338  21.784  0.00  0.00    +0.000 C 
BRANCH  12  19
ATOM     19  C   UNL     1       1.527   8.458  20.538  0.00  0.00    +0.000 C 
BRANCH  19  20
ATOM     20  O   UNL     1       1.571   7.161  21.114  0.00  0.00    +0.000 OA
ATOM     21  H   UNL     1       1.548   6.541  20.358  0.00  0.00    +0.000 HD
ENDBRANCH  19  20
ENDBRANCH  12  19
ENDBRANCH   1  16
BRANCH   4  22
ATOM     22  C   UNL     1      -6.808  12.841  21.782  0.00  0.00    +0.000 A 
ATOM     23  C   UNL     1      -7.539  12.034  22.654  0.00  0.00    +0.000 A 
ATOM     24  N   UNL     1      -7.917  12.412  23.896  0.00  0.00    +0.000 NA
ATOM     25  C   UNL     1      -7.517  13.655  24.255  0.00  0.00    +0.000 A 
ATOM     26  C   UNL     1      -6.758  14.479  23.436  0.00  0.00    +0.000 A 
ATOM     27  N   UNL     1      -6.412  14.085  22.183  0.00  0.00    +0.000 NA
BRANCH  26  28
ATOM     28  O   UNL     1      -6.323  15.737  23.780  0.00  0.00    +0.000 OA
BRANCH  28  29
ATOM     29  C   UNL     1      -5.174  16.188  23.058  0.00  0.00    +0.000 C 
BRANCH  29  30
ATOM     30  C   UNL     1      -3.921  16.024  23.881  0.00  0.00    +0.000 A 
ATOM     31  C   UNL     1      -3.572  16.960  24.866  0.00  0.00    +0.000 A 
ATOM     32  C   UNL     1      -2.383  16.820  25.590  0.00  0.00    +0.000 A 
ATOM     33  C   UNL     1      -1.534  15.743  25.339  0.00  0.00    +0.000 A 
ATOM     34  C   UNL     1      -1.884  14.810  24.372  0.00  0.00    +0.000 A 
ATOM     35  F   UNL     1      -1.067  13.777  24.123  0.00  0.00    +0.000 F 
ATOM     36  C   UNL     1      -3.065  14.937  23.647  0.00  0.00    +0.000 A 
ENDBRANCH  29  30
ENDBRANCH  28  29
ENDBRANCH  26  28
ENDBRANCH   4  22
TORSDOF 7
ENDMDL
MODEL 4
REMARK VINA RESULT:      -7.8      4.996      7.643
REMARK  Name = 
REMARK  7 active torsions:
REMARK  status: ('A' for Active; 'I' for Inactive)
REMARK    1  A    between atoms: C_2  and  C_3
REMARK    2  A    between atoms: C_3  and  O_4
REMARK    3  A    between atoms: C_8  and  C_9
REMARK    4  A    between atoms: C_12  and  C_13
REMARK    5  A    between atoms: C_17  and  O_18
REMARK    6  A    between atoms: O_18  and  C_19
REMARK    7  A    between atoms: C_19  and  C_20
REMARK                            x       y       z     vdW  Elec       q    Type
REMARK                         _______ _______ _______ _____ _____    ______ ____
ROOT
ATOM      1  C   UNL     1       1.199  14.195  20.905  0.00  0.00    +0.000 A 
ATOM      2  C   UNL     1       1.332  12.914  20.406  0.00  0.00    +0.000 A 
ATOM      3  C   UNL     1       0.515  12.029  21.154  0.00  0.00    +0.000 A 
ATOM      4  C   UNL     1       0.245  10.642  21.131  0.00  0.00    +0.000 A 
ATOM      5  C   UNL     1      -0.670  10.200  22.111  0.00  0.00    +0.000 A 
ATOM      6  C   UNL     1      -1.251  11.103  22.993  0.00  0.00    +0.000 A 
ATOM      7  N   UNL     1      -1.020  12.430  23.023  0.00  0.00    +0.000 NA
ATOM      8  C   UNL     1      -0.131  12.822  22.096  0.00  0.00    +0.000 A 
ATOM      9  N   UNL     1       0.288  14.116  21.934  0.00  0.00    +0.000 N 
ATOM     10  H   UNL     1      -0.035  14.877  22.514  0.00  0.00    +0.000 HD
ENDROOT
BRANCH   1  16
ATOM     11  O   UNL     1       6.874  15.231  20.002  0.00  0.00    +0.000 OA
ATOM     12  C   UNL     1       5.939  15.044  19.219  0.00  0.00    +0.000 C 
ATOM     13  N   UNL     1       4.607  15.008  19.620  0.00  0.00    +0.000 N 
ATOM     14  C   UNL     1       3.499  14.683  18.722  0.00  0.00    +0.000 C 
ATOM     15  C   UNL     1       2.257  15.511  19.035  0.00  0.00    +0.000 C 
ATOM     16  C   UNL     1       1.865  15.485  20.518  0.00  0.00    +0.000 C 
ATOM     17  C   UNL     1       3.078  15.794  21.406  0.00  0.00    +0.000 C 
ATOM     18  C   UNL     1       4.313  14.967  21.053  0.00  0.00    +0.000 C 
BRANCH  12  19
ATOM     19  C   UNL     1       6.226  14.896  17.719  0.00  0.00    +0.000 C 
BRANCH  19  20
ATOM     20  O   UNL     1       7.610  14.786  17.424  0.00  0.00    +0.000 OA
ATOM     21  H   UNL     1       7.923  14.016  17.939  0.00  0.00    +0.000 HD
ENDBRANCH  19  20
ENDBRANCH  12  19
ENDBRANCH   1  16
BRANCH   4  22
ATOM     22  C   UNL     1       0.854   9.753  20.121  0.00  0.00    +0.000 A 
ATOM     23  C   UNL     1       0.841  10.068  18.763  0.00  0.00    +0.000 A 
ATOM     24  N   UNL     1       1.379   9.286  17.800  0.00  0.00    +0.000 NA
ATOM     25  C   UNL     1       1.961   8.151  18.254  0.00  0.00    +0.000 A 
ATOM     26  C   UNL     1       2.032   7.814  19.597  0.00  0.00    +0.000 A 
ATOM     27  N   UNL     1       1.462   8.604  20.543  0.00  0.00    +0.000 NA
BRANCH  26  28
ATOM     28  O   UNL     1       2.632   6.677  20.087  0.00  0.00    +0.000 OA
BRANCH  28  29
ATOM     29  C   UNL     1       1.723   5.633  20.444  0.00  0.00    +0.000 C 
BRANCH  29  30
ATOM     30  C   UNL     1       1.861   4.455  19.511  0.00  0.00    +0.000 A 
ATOM     31  C   UNL     1       1.111   3.285  19.703  0.00  0.00    +0.000 A 
ATOM     32  C   UNL     1       1.283   2.184  18.857  0.00  0.00    +0.000 A 
ATOM     33  C   UNL     1       2.203   2.243  17.810  0.00  0.00    +0.000 A 
ATOM     34  C   UNL     1       2.938   3.405  17.614  0.00  0.00    +0.000 A 
ATOM     35  F   UNL     1       3.827   3.463  16.613  0.00  0.00    +0.000 F 
ATOM     36  C   UNL     1       2.774   4.507  18.446  0.00  0.00    +0.000 A 
ENDBRANCH  29  30
ENDBRANCH  28  29
ENDBRANCH  26  28
ENDBRANCH   4  22
TORSDOF 7
ENDMDL
MODEL 5
REMARK VINA RESULT:      -7.7      2.790      4.823
REMARK  Name = 
REMARK  7 active torsions:
REMARK  status: ('A' for Active; 'I' for Inactive)
REMARK    1  A    between atoms: C_2  and  C_3
REMARK    2  A    between atoms: C_3  and  O_4
REMARK    3  A    between atoms: C_8  and  C_9
REMARK    4  A    between atoms: C_12  and  C_13
REMARK    5  A    between atoms: C_17  and  O_18
REMARK    6  A    between atoms: O_18  and  C_19
REMARK    7  A    between atoms: C_19  and  C_20
REMARK                            x       y       z     vdW  Elec       q    Type
REMARK                         _______ _______ _______ _____ _____    ______ ____
ROOT
ATOM      1  C   UNL     1      -1.507  11.768  20.164  0.00  0.00    +0.000 A 
ATOM      2  C   UNL     1      -0.607  10.846  19.665  0.00  0.00    +0.000 A 
ATOM      3  C   UNL     1       0.037  10.186  20.742  0.00  0.00    +0.000 A 
ATOM      4  C   UNL     1       1.028   9.186  20.865  0.00  0.00    +0.000 A 
ATOM      5  C   UNL     1       1.360   8.841  22.192  0.00  0.00    +0.000 A 
ATOM      6  C   UNL     1       0.717   9.449  23.262  0.00  0.00    +0.000 A 
ATOM      7  N   UNL     1      -0.241  10.392  23.169  0.00  0.00    +0.000 NA
ATOM      8  C   UNL     1      -0.524  10.718  21.897  0.00  0.00    +0.000 A 
ATOM      9  N   UNL     1      -1.447  11.663  21.535  0.00  0.00    +0.000 N 
ATOM     10  H   UNL     1      -1.980  12.199  22.205  0.00  0.00    +0.000 HD
ENDROOT
BRANCH   1  16
ATOM     11  O   UNL     1      -6.995  11.019  18.315  0.00  0.00    +0.000 OA
ATOM     12  C   UNL     1      -6.534  11.572  19.317  0.00  0.00    +0.000 C 
ATOM     13  N   UNL     1      -5.177  11.824  19.490  0.00  0.00    +0.000 N 
ATOM     14  C   UNL     1      -4.608  12.383  20.716  0.00  0.00    +0.000 C 
ATOM     15  C   UNL     1      -3.458  13.342  20.419  0.00  0.00    +0.000 C 
ATOM     16  C   UNL     1      -2.404  12.754  19.471  0.00  0.00    +0.000 C 
ATOM     17  C   UNL     1      -3.070  12.149  18.226  0.00  0.00    +0.000 C 
ATOM     18  C   UNL     1      -4.232  11.214  18.555  0.00  0.00    +0.000 C 
BRANCH  12  19
ATOM     19  C   UNL     1      -7.487  12.065  20.414  0.00  0.00    +0.000 C 
BRANCH  19  20
ATOM     20  O   UNL     1      -7.630  11.143  21.484  0.00  0.00    +0.000 OA
ATOM     21  H   UNL     1      -7.106  10.360  21.222  0.00  0.00    +0.000 HD
ENDBRANCH  19  20
ENDBRANCH  12  19
ENDBRANCH   1  16
BRANCH   4  22
ATOM     22  C   UNL     1       1.624   8.539  19.678  0.00  0.00    +0.000 A 
ATOM     23  C   UNL     1       1.927   9.261  18.524  0.00  0.00    +0.000 A 
ATOM     24  N   UNL     1       2.467   8.716  17.411  0.00  0.00    +0.000 NA
ATOM     25  C   UNL     1       2.715   7.387  17.495  0.00  0.00    +0.000 A 
ATOM     26  C   UNL     1       2.465   6.635  18.633  0.00  0.00    +0.000 A 
ATOM     27  N   UNL     1       1.899   7.202  19.730  0.00  0.00    +0.000 NA
BRANCH  26  28
ATOM     28  O   UNL     1       2.721   5.290  18.753  0.00  0.00    +0.000 OA
BRANCH  28  29
ATOM     29  C   UNL     1       3.839   4.970  19.586  0.00  0.00    +0.000 C 
BRANCH  29  30
ATOM     30  C   UNL     1       5.118   4.948  18.786  0.00  0.00    +0.000 A 
ATOM     31  C   UNL     1       5.180   4.320  17.533  0.00  0.00    +0.000 A 
ATOM     32  C   UNL     1       6.384   4.267  16.824  0.00  0.00    +0.000 A 
ATOM     33  C   UNL     1       7.537   4.842  17.358  0.00  0.00    +0.000 A 
ATOM     34  C   UNL     1       7.474   5.472  18.593  0.00  0.00    +0.000 A 
ATOM     35  F   UNL     1       8.581   6.020  19.113  0.00  0.00    +0.000 F 
ATOM     36  C   UNL     1       6.282   5.534  19.307  0.00  0.00    +0.000 A 
ENDBRANCH  29  30
ENDBRANCH  28  29
ENDBRANCH  26  28
ENDBRANCH   4  22
TORSDOF 7
ENDMDL
MODEL 6
REMARK VINA RESULT:      -7.7      4.906      7.136
REMARK  Name = 
REMARK  7 active torsions:
REMARK  status: ('A' for Active; 'I' for Inactive)
REMARK    1  A    between atoms: C_2  and  C_3
REMARK    2  A    between atoms: C_3  and  O_4
REMARK    3  A    between atoms: C_8  and  C_9
REMARK    4  A    between atoms: C_12  and  C_13
REMARK    5  A    between atoms: C_17  and  O_18
REMARK    6  A    between atoms: O_18  and  C_19
REMARK    7  A    between atoms: C_19  and  C_20
REMARK                            x       y       z     vdW  Elec       q    Type
REMARK                         _______ _______ _______ _____ _____    ______ ____
ROOT
ATOM      1  C   UNL     1       1.609  14.407  21.125  0.00  0.00    +0.000 A 
ATOM      2  C   UNL     1       1.649  13.157  20.540  0.00  0.00    +0.000 A 
ATOM      3  C   UNL     1       0.648  12.335  21.116  0.00  0.00    +0.000 A 
ATOM      4  C   UNL     1       0.219  10.999  20.948  0.00  0.00    +0.000 A 
ATOM      5  C   UNL     1      -0.854  10.612  21.778  0.00  0.00    +0.000 A 
ATOM      6  C   UNL     1      -1.427  11.519  22.660  0.00  0.00    +0.000 A 
ATOM      7  N   UNL     1      -1.045  12.800  22.827  0.00  0.00    +0.000 NA
ATOM      8  C   UNL     1      -0.009  13.138  22.041  0.00  0.00    +0.000 A 
ATOM      9  N   UNL     1       0.577  14.375  22.035  0.00  0.00    +0.000 N 
ATOM     10  H   UNL     1       0.278  15.131  22.635  0.00  0.00    +0.000 HD
ENDROOT
BRANCH   1  16
ATOM     11  O   UNL     1       2.811  17.229  16.156  0.00  0.00    +0.000 OA
ATOM     12  C   UNL     1       2.020  17.476  17.070  0.00  0.00    +0.000 C 
ATOM     13  N   UNL     1       2.013  16.786  18.278  0.00  0.00    +0.000 N 
ATOM     14  C   UNL     1       1.015  16.997  19.326  0.00  0.00    +0.000 C 
ATOM     15  C   UNL     1       1.629  16.894  20.719  0.00  0.00    +0.000 C 
ATOM     16  C   UNL     1       2.467  15.625  20.924  0.00  0.00    +0.000 C 
ATOM     17  C   UNL     1       3.464  15.441  19.771  0.00  0.00    +0.000 C 
ATOM     18  C   UNL     1       2.826  15.574  18.390  0.00  0.00    +0.000 C 
BRANCH  12  19
ATOM     19  C   UNL     1       1.021  18.631  16.914  0.00  0.00    +0.000 C 
BRANCH  19  20
ATOM     20  O   UNL     1       0.211  18.515  15.755  0.00  0.00    +0.000 OA
ATOM     21  H   UNL     1      -0.383  19.292  15.774  0.00  0.00    +0.000 HD
ENDBRANCH  19  20
ENDBRANCH  12  19
ENDBRANCH   1  16
BRANCH   4  22
ATOM     22  C   UNL     1       0.838  10.110  19.943  0.00  0.00    +0.000 A 
ATOM     23  C   UNL     1       0.819  10.416  18.582  0.00  0.00    +0.000 A 
ATOM     24  N   UNL     1       1.365   9.634  17.624  0.00  0.00    +0.000 NA
ATOM     25  C   UNL     1       1.960   8.508  18.084  0.00  0.00    +0.000 A 
ATOM     26  C   UNL     1       2.036   8.180  19.430  0.00  0.00    +0.000 A 
ATOM     27  N   UNL     1       1.458   8.970  20.371  0.00  0.00    +0.000 NA
BRANCH  26  28
ATOM     28  O   UNL     1       2.648   7.053  19.927  0.00  0.00    +0.000 OA
BRANCH  28  29
ATOM     29  C   UNL     1       1.754   5.986  20.253  0.00  0.00    +0.000 C 
BRANCH  29  30
ATOM     30  C   UNL     1       1.981   4.798  19.352  0.00  0.00    +0.000 A 
ATOM     31  C   UNL     1       3.020   4.789  18.410  0.00  0.00    +0.000 A 
ATOM     32  C   UNL     1       3.191   3.701  17.549  0.00  0.00    +0.000 A 
ATOM     33  C   UNL     1       2.326   2.608  17.623  0.00  0.00    +0.000 A 
ATOM     34  C   UNL     1       1.304   2.612  18.561  0.00  0.00    +0.000 A 
ATOM     35  F   UNL     1       0.467   1.567  18.631  0.00  0.00    +0.000 F 
ATOM     36  C   UNL     1       1.126   3.687  19.425  0.00  0.00    +0.000 A 
ENDBRANCH  29  30
ENDBRANCH  28  29
ENDBRANCH  26  28
ENDBRANCH   4  22
TORSDOF 7
ENDMDL
MODEL 7
REMARK VINA RESULT:      -7.7      4.575      8.966
REMARK  Name = 
REMARK  7 active torsions:
REMARK  status: ('A' for Active; 'I' for Inactive)
REMARK    1  A    between atoms: C_2  and  C_3
REMARK    2  A    between atoms: C_3  and  O_4
REMARK    3  A    between atoms: C_8  and  C_9
REMARK    4  A    between atoms: C_12  and  C_13
REMARK    5  A    between atoms: C_17  and  O_18
REMARK    6  A    between atoms: O_18  and  C_19
REMARK    7  A    between atoms: C_19  and  C_20
REMARK                            x       y       z     vdW  Elec       q    Type
REMARK                         _______ _______ _______ _____ _____    ______ ____
ROOT
ATOM      1  C   UNL     1       0.559  13.343  19.930  0.00  0.00    +0.000 A 
ATOM      2  C   UNL     1      -0.529  13.452  20.774  0.00  0.00    +0.000 A 
ATOM      3  C   UNL     1      -0.590  12.312  21.614  0.00  0.00    +0.000 A 
ATOM      4  C   UNL     1      -1.450  11.858  22.639  0.00  0.00    +0.000 A 
ATOM      5  C   UNL     1      -1.095  10.615  23.204  0.00  0.00    +0.000 A 
ATOM      6  C   UNL     1       0.038   9.939  22.768  0.00  0.00    +0.000 A 
ATOM      7  N   UNL     1       0.881  10.359  21.805  0.00  0.00    +0.000 NA
ATOM      8  C   UNL     1       0.509  11.534  21.268  0.00  0.00    +0.000 A 
ATOM      9  N   UNL     1       1.187  12.164  20.260  0.00  0.00    +0.000 N 
ATOM     10  H   UNL     1       2.019  11.783  19.831  0.00  0.00    +0.000 HD
ENDROOT
BRANCH   1  16
ATOM     11  O   UNL     1       3.150  18.559  20.353  0.00  0.00    +0.000 OA
ATOM     12  C   UNL     1       3.605  17.430  20.152  0.00  0.00    +0.000 C 
ATOM     13  N   UNL     1       2.804  16.324  19.886  0.00  0.00    +0.000 N 
ATOM     14  C   UNL     1       3.323  14.963  19.750  0.00  0.00    +0.000 C 
ATOM     15  C   UNL     1       2.578  14.179  18.675  0.00  0.00    +0.000 C 
ATOM     16  C   UNL     1       1.052  14.236  18.826  0.00  0.00    +0.000 C 
ATOM     17  C   UNL     1       0.578  15.685  19.004  0.00  0.00    +0.000 C 
ATOM     18  C   UNL     1       1.358  16.452  20.070  0.00  0.00    +0.000 C 
BRANCH  12  19
ATOM     19  C   UNL     1       5.125  17.220  20.134  0.00  0.00    +0.000 C 
BRANCH  19  20
ATOM     20  O   UNL     1       5.720  17.562  18.891  0.00  0.00    +0.000 OA
ATOM     21  H   UNL     1       5.114  17.211  18.209  0.00  0.00    +0.000 HD
ENDBRANCH  19  20
ENDBRANCH  12  19
ENDBRANCH   1  16
BRANCH   4  22
ATOM     22  C   UNL     1      -2.603  12.663  23.092  0.00  0.00    +0.000 A 
ATOM     23  C   UNL     1      -2.433  13.880  23.752  0.00  0.00    +0.000 A 
ATOM     24  N   UNL     1      -3.454  14.651  24.191  0.00  0.00    +0.000 NA
ATOM     25  C   UNL     1      -4.688  14.157  23.931  0.00  0.00    +0.000 A 
ATOM     26  C   UNL     1      -4.906  12.970  23.247  0.00  0.00    +0.000 A 
ATOM     27  N   UNL     1      -3.863  12.203  22.837  0.00  0.00    +0.000 NA
BRANCH  26  28
ATOM     28  O   UNL     1      -6.146  12.454  22.954  0.00  0.00    +0.000 OA
BRANCH  28  29
ATOM     29  C   UNL     1      -6.817  13.099  21.868  0.00  0.00    +0.000 C 
BRANCH  29  30
ATOM     30  C   UNL     1      -6.562  12.373  20.570  0.00  0.00    +0.000 A 
ATOM     31  C   UNL     1      -5.910  13.006  19.501  0.00  0.00    +0.000 A 
ATOM     32  C   UNL     1      -5.722  12.337  18.287  0.00  0.00    +0.000 A 
ATOM     33  C   UNL     1      -6.180  11.029  18.131  0.00  0.00    +0.000 A 
ATOM     34  C   UNL     1      -6.817  10.399  19.191  0.00  0.00    +0.000 A 
ATOM     35  F   UNL     1      -7.266   9.145  19.042  0.00  0.00    +0.000 F 
ATOM     36  C   UNL     1      -7.008  11.053  20.404  0.00  0.00    +0.000 A 
ENDBRANCH  29  30
ENDBRANCH  28  29
ENDBRANCH  26  28
ENDBRANCH   4  22
TORSDOF 7
ENDMDL
MODEL 8
REMARK VINA RESULT:      -7.6      5.253      7.013
REMARK  Name = 
REMARK  7 active torsions:
REMARK  status: ('A' for Active; 'I' for Inactive)
REMARK    1  A    between atoms: C_2  and  C_3
REMARK    2  A    between atoms: C_3  and  O_4
REMARK    3  A    between atoms: C_8  and  C_9
REMARK    4  A    between atoms: C_12  and  C_13
REMARK    5  A    between atoms: C_17  and  O_18
REMARK    6  A    between atoms: O_18  and  C_19
REMARK    7  A    between atoms: C_19  and  C_20
REMARK                            x       y       z     vdW  Elec       q    Type
REMARK                         _______ _______ _______ _____ _____    ______ ____
ROOT
ATOM      1  C   UNL     1       0.025  13.621  20.661  0.00  0.00    +0.000 A 
ATOM      2  C   UNL     1       0.480  12.436  20.116  0.00  0.00    +0.000 A 
ATOM      3  C   UNL     1       0.185  11.367  20.999  0.00  0.00    +0.000 A 
ATOM      4  C   UNL     1       0.404   9.971  21.001  0.00  0.00    +0.000 A 
ATOM      5  C   UNL     1      -0.084   9.296  22.141  0.00  0.00    +0.000 A 
ATOM      6  C   UNL     1      -0.744   9.994  23.145  0.00  0.00    +0.000 A 
ATOM      7  N   UNL     1      -0.977  11.320  23.157  0.00  0.00    +0.000 NA
ATOM      8  C   UNL     1      -0.484  11.942  22.073  0.00  0.00    +0.000 A 
ATOM      9  N   UNL     1      -0.573  13.291  21.856  0.00  0.00    +0.000 N 
ATOM     10  H   UNL     1      -1.010  13.927  22.508  0.00  0.00    +0.000 HD
ENDROOT
BRANCH   1  16
ATOM     11  O   UNL     1       4.475  17.365  21.187  0.00  0.00    +0.000 OA
ATOM     12  C   UNL     1       4.095  16.668  20.242  0.00  0.00    +0.000 C 
ATOM     13  N   UNL     1       2.887  15.980  20.242  0.00  0.00    +0.000 N 
ATOM     14  C   UNL     1       2.473  15.068  19.176  0.00  0.00    +0.000 C 
ATOM     15  C   UNL     1       0.974  15.158  18.905  0.00  0.00    +0.000 C 
ATOM     16  C   UNL     1       0.118  15.039  20.173  0.00  0.00    +0.000 C 
ATOM     17  C   UNL     1       0.628  15.990  21.264  0.00  0.00    +0.000 C 
ATOM     18  C   UNL     1       2.135  15.895  21.495  0.00  0.00    +0.000 C 
BRANCH  12  19
ATOM     19  C   UNL     1       4.952  16.584  18.972  0.00  0.00    +0.000 C 
BRANCH  19  20
ATOM     20  O   UNL     1       6.224  15.993  19.195  0.00  0.00    +0.000 OA
ATOM     21  H   UNL     1       6.251  15.792  20.152  0.00  0.00    +0.000 HD
ENDBRANCH  19  20
ENDBRANCH  12  19
ENDBRANCH   1  16
BRANCH   4  22
ATOM     22  C   UNL     1       1.059   9.289  19.866  0.00  0.00    +0.000 A 
ATOM     23  C   UNL     1       0.894   9.730  18.553  0.00  0.00    +0.000 A 
ATOM     24  N   UNL     1       1.467   9.138  17.480  0.00  0.00    +0.000 NA
ATOM     25  C   UNL     1       2.243   8.068  17.772  0.00  0.00    +0.000 A 
ATOM     26  C   UNL     1       2.466   7.616  19.064  0.00  0.00    +0.000 A 
ATOM     27  N   UNL     1       1.860   8.213  20.123  0.00  0.00    +0.000 NA
BRANCH  26  28
ATOM     28  O   UNL     1       3.263   6.544  19.391  0.00  0.00    +0.000 OA
BRANCH  28  29
ATOM     29  C   UNL     1       3.247   5.479  18.437  0.00  0.00    +0.000 C 
BRANCH  29  30
ATOM     30  C   UNL     1       2.423   4.318  18.938  0.00  0.00    +0.000 A 
ATOM     31  C   UNL     1       1.700   3.506  18.052  0.00  0.00    +0.000 A 
ATOM     32  C   UNL     1       0.904   2.462  18.534  0.00  0.00    +0.000 A 
ATOM     33  C   UNL     1       0.825   2.218  19.905  0.00  0.00    +0.000 A 
ATOM     34  C   UNL     1       1.548   3.016  20.782  0.00  0.00    +0.000 A 
ATOM     35  F   UNL     1       1.469   2.789  22.100  0.00  0.00    +0.000 F 
ATOM     36  C   UNL     1       2.345   4.055  20.314  0.00  0.00    +0.000 A 
ENDBRANCH  29  30
ENDBRANCH  28  29
ENDBRANCH  26  28
ENDBRANCH   4  22
TORSDOF 7
ENDMDL
MODEL 9
REMARK VINA RESULT:      -7.6      4.968      8.270
REMARK  Name = 
REMARK  7 active torsions:
REMARK  status: ('A' for Active; 'I' for Inactive)
REMARK    1  A    between atoms: C_2  and  C_3
REMARK    2  A    between atoms: C_3  and  O_4
REMARK    3  A    between atoms: C_8  and  C_9
REMARK    4  A    between atoms: C_12  and  C_13
REMARK    5  A    between atoms: C_17  and  O_18
REMARK    6  A    between atoms: O_18  and  C_19
REMARK    7  A    between atoms: C_19  and  C_20
REMARK                            x       y       z     vdW  Elec       q    Type
REMARK                         _______ _______ _______ _____ _____    ______ ____
ROOT
ATOM      1  C   UNL     1       1.870   8.562  18.487  0.00  0.00    +0.000 A 
ATOM      2  C   UNL     1       2.957   7.782  18.142  0.00  0.00    +0.000 A 
ATOM      3  C   UNL     1       3.010   6.647  18.990  0.00  0.00    +0.000 A 
ATOM      4  C   UNL     1       3.866   5.531  19.131  0.00  0.00    +0.000 A 
ATOM      5  C   UNL     1       3.504   4.632  20.156  0.00  0.00    +0.000 A 
ATOM      6  C   UNL     1       2.370   4.857  20.925  0.00  0.00    +0.000 A 
ATOM      7  N   UNL     1       1.531   5.904  20.799  0.00  0.00    +0.000 NA
ATOM      8  C   UNL     1       1.909   6.756  19.832  0.00  0.00    +0.000 A 
ATOM      9  N   UNL     1       1.236   7.907  19.518  0.00  0.00    +0.000 N 
ATOM     10  H   UNL     1       0.404   8.210  20.005  0.00  0.00    +0.000 HD
ENDROOT
BRANCH   1  16
ATOM     11  O   UNL     1      -2.149  12.148  20.742  0.00  0.00    +0.000 OA
ATOM     12  C   UNL     1      -0.916  12.183  20.758  0.00  0.00    +0.000 C 
ATOM     13  N   UNL     1      -0.121  11.337  19.991  0.00  0.00    +0.000 N 
ATOM     14  C   UNL     1       1.339  11.298  20.078  0.00  0.00    +0.000 C 
ATOM     15  C   UNL     1       1.980  11.069  18.713  0.00  0.00    +0.000 C 
ATOM     16  C   UNL     1       1.384   9.879  17.951  0.00  0.00    +0.000 C 
ATOM     17  C   UNL     1      -0.149   9.960  17.930  0.00  0.00    +0.000 C 
ATOM     18  C   UNL     1      -0.761  10.213  19.307  0.00  0.00    +0.000 C 
BRANCH  12  19
ATOM     19  C   UNL     1      -0.200  13.238  21.612  0.00  0.00    +0.000 C 
BRANCH  19  20
ATOM     20  O   UNL     1      -0.322  13.002  23.007  0.00  0.00    +0.000 OA
ATOM     21  H   UNL     1       0.197  12.192  23.179  0.00  0.00    +0.000 HD
ENDBRANCH  19  20
ENDBRANCH  12  19
ENDBRANCH   1  16
BRANCH   4  22
ATOM     22  C   UNL     1       5.021   5.326  18.233  0.00  0.00    +0.000 A 
ATOM     23  C   UNL     1       6.313   5.150  18.728  0.00  0.00    +0.000 A 
ATOM     24  N   UNL     1       7.402   4.965  17.948  0.00  0.00    +0.000 NA
ATOM     25  C   UNL     1       7.150   4.948  16.618  0.00  0.00    +0.000 A 
ATOM     26  C   UNL     1       5.878   5.082  16.081  0.00  0.00    +0.000 A 
ATOM     27  N   UNL     1       4.803   5.291  16.884  0.00  0.00    +0.000 NA
BRANCH  26  28
ATOM     28  O   UNL     1       5.590   5.051  14.737  0.00  0.00    +0.000 OA
BRANCH  28  29
ATOM     29  C   UNL     1       6.674   4.626  13.906  0.00  0.00    +0.000 C 
BRANCH  29  30
ATOM     30  C   UNL     1       6.192   3.683  12.832  0.00  0.00    +0.000 A 
ATOM     31  C   UNL     1       7.082   2.828  12.165  0.00  0.00    +0.000 A 
ATOM     32  C   UNL     1       6.630   1.992  11.138  0.00  0.00    +0.000 A 
ATOM     33  C   UNL     1       5.284   2.000  10.771  0.00  0.00    +0.000 A 
ATOM     34  C   UNL     1       4.401   2.839  11.438  0.00  0.00    +0.000 A 
ATOM     35  F   UNL     1       3.109   2.855  11.083  0.00  0.00    +0.000 F 
ATOM     36  C   UNL     1       4.838   3.673  12.462  0.00  0.00    +0.000 A 
ENDBRANCH  29  30
ENDBRANCH  28  29
ENDBRANCH  26  28
ENDBRANCH   4  22
TORSDOF 7
ENDMDL
