MODEL 1
REMARK VINA RESULT:      -8.2      0.000      0.000
REMARK  Name = 
REMARK  3 active torsions:
REMARK  status: ('A' for Active; 'I' for Inactive)
REMARK    1  A    between atoms: C_4  and  C_5
REMARK    2  A    between atoms: N_13  and  C_14
REMARK    3  A    between atoms: C_18  and  O_19
REMARK                            x       y       z     vdW  Elec       q    Type
REMARK                         _______ _______ _______ _____ _____    ______ ____
ROOT
ATOM      1  O   UNL     1       8.145   4.192  17.062  0.00  0.00    +0.000 OA
ATOM      2  C   UNL     1       7.061   4.752  17.019  0.00  0.00    +0.000 C 
ATOM      3  O   UNL     1       6.442   5.204  18.155  0.00  0.00    +0.000 OA
ATOM      4  C   UNL     1       5.090   5.543  17.821  0.00  0.00    +0.000 C 
ATOM      5  C   UNL     1       5.146   5.820  16.325  0.00  0.00    +0.000 C 
ATOM      6  N   UNL     1       6.294   5.072  15.911  0.00  0.00    +0.000 N 
ENDROOT
BRANCH   4   7
ATOM      7  C   UNL     1       4.132   4.436  18.240  0.00  0.00    +0.000 A 
ATOM      8  C   UNL     1       4.415   3.572  19.315  0.00  0.00    +0.000 A 
ATOM      9  C   UNL     1       3.504   2.588  19.706  0.00  0.00    +0.000 A 
ATOM     10  C   UNL     1       2.301   2.464  19.028  0.00  0.00    +0.000 A 
ATOM     11  F   UNL     1       1.421   1.529  19.408  0.00  0.00    +0.000 F 
ATOM     12  C   UNL     1       1.992   3.304  17.966  0.00  0.00    +0.000 A 
ATOM     13  C   UNL     1       2.903   4.289  17.572  0.00  0.00    +0.000 A 
ENDBRANCH   4   7
BRANCH   6  14
ATOM     14  C   UNL     1       6.592   4.762  14.569  0.00  0.00    +0.000 A 
ATOM     15  C   UNL     1       7.546   5.514  13.867  0.00  0.00    +0.000 A 
ATOM     16  C   UNL     1       7.883   5.207  12.549  0.00  0.00    +0.000 A 
ATOM     17  C   UNL     1       7.242   4.162  11.895  0.00  0.00    +0.000 A 
ATOM     18  C   UNL     1       6.278   3.427  12.575  0.00  0.00    +0.000 A 
ATOM     19  C   UNL     1       5.971   3.699  13.909  0.00  0.00    +0.000 A 
BRANCH  18  20
ATOM     20  O   UNL     1       5.595   2.419  11.956  0.00  0.00    +0.000 OA
ATOM     21  H   UNL     1       5.973   2.298  11.068  0.00  0.00    +0.000 HD
ENDBRANCH  18  20
ENDBRANCH   6  14
TORSDOF 3
ENDMDL
MODEL 2
REMARK VINA RESULT:      -8.2      0.105      1.081
REMARK  Name = 
REMARK  3 active torsions:
REMARK  status: ('A' for Active; 'I' for Inactive)
REMARK    1  A    between atoms: C_4  and  C_5
REMARK    2  A    between atoms: N_13  and  C_14
REMARK    3  A    between atoms: C_18  and  O_19
REMARK                            x       y       z     vdW  Elec       q    Type
REMARK                         _______ _______ _______ _____ _____    ______ ____
ROOT
ATOM      1  O   UNL     1       8.120   4.190  17.078  0.00  0.00    +0.000 OA
ATOM      2  C   UNL     1       7.056   4.786  17.025  0.00  0.00    +0.000 C 
ATOM      3  O   UNL     1       6.447   5.268  18.155  0.00  0.00    +0.000 OA
ATOM      4  C   UNL     1       5.109   5.650  17.812  0.00  0.00    +0.000 C 
ATOM      5  C   UNL     1       5.182   5.914  16.314  0.00  0.00    +0.000 C 
ATOM      6  N   UNL     1       6.305   5.124  15.912  0.00  0.00    +0.000 N 
ENDROOT
BRANCH   4   7
ATOM      7  C   UNL     1       4.112   4.579  18.235  0.00  0.00    +0.000 A 
ATOM      8  C   UNL     1       2.829   4.489  17.663  0.00  0.00    +0.000 A 
ATOM      9  C   UNL     1       1.944   3.476  18.039  0.00  0.00    +0.000 A 
ATOM     10  C   UNL     1       2.339   2.541  18.985  0.00  0.00    +0.000 A 
ATOM     11  F   UNL     1       1.497   1.562  19.339  0.00  0.00    +0.000 F 
ATOM     12  C   UNL     1       3.600   2.603  19.564  0.00  0.00    +0.000 A 
ATOM     13  C   UNL     1       4.486   3.617  19.190  0.00  0.00    +0.000 A 
ENDBRANCH   4   7
BRANCH   6  14
ATOM     14  C   UNL     1       6.598   4.795  14.573  0.00  0.00    +0.000 A 
ATOM     15  C   UNL     1       7.558   5.529  13.860  0.00  0.00    +0.000 A 
ATOM     16  C   UNL     1       7.890   5.202  12.546  0.00  0.00    +0.000 A 
ATOM     17  C   UNL     1       7.239   4.155  11.907  0.00  0.00    +0.000 A 
ATOM     18  C   UNL     1       6.270   3.437  12.596  0.00  0.00    +0.000 A 
ATOM     19  C   UNL     1       5.966   3.729  13.928  0.00  0.00    +0.000 A 
BRANCH  18  20
ATOM     20  O   UNL     1       5.577   2.428  11.991  0.00  0.00    +0.000 OA
ATOM     21  H   UNL     1       5.872   1.586  12.375  0.00  0.00    +0.000 HD
ENDBRANCH  18  20
ENDBRANCH   6  14
TORSDOF 3
ENDMDL
MODEL 3
REMARK VINA RESULT:      -7.7      1.679      2.059
REMARK  Name = 
REMARK  3 active torsions:
REMARK  status: ('A' for Active; 'I' for Inactive)
REMARK    1  A    between atoms: C_4  and  C_5
REMARK    2  A    between atoms: N_13  and  C_14
REMARK    3  A    between atoms: C_18  and  O_19
REMARK                            x       y       z     vdW  Elec       q    Type
REMARK                         _______ _______ _______ _____ _____    ______ ____
ROOT
ATOM      1  O   UNL     1       7.223   4.317  18.302  0.00  0.00    +0.000 OA
ATOM      2  C   UNL     1       6.226   4.999  18.124  0.00  0.00    +0.000 C 
ATOM      3  O   UNL     1       5.529   5.537  19.174  0.00  0.00    +0.000 OA
ATOM      4  C   UNL     1       4.279   6.028  18.673  0.00  0.00    +0.000 C 
ATOM      5  C   UNL     1       4.553   6.274  17.195  0.00  0.00    +0.000 C 
ATOM      6  N   UNL     1       5.646   5.391  16.929  0.00  0.00    +0.000 N 
ENDROOT
BRANCH   4   7
ATOM      7  C   UNL     1       3.151   5.047  18.968  0.00  0.00    +0.000 A 
ATOM      8  C   UNL     1       2.697   4.806  20.279  0.00  0.00    +0.000 A 
ATOM      9  C   UNL     1       1.637   3.930  20.522  0.00  0.00    +0.000 A 
ATOM     10  C   UNL     1       1.019   3.293  19.456  0.00  0.00    +0.000 A 
ATOM     11  F   UNL     1      -0.005   2.463  19.686  0.00  0.00    +0.000 F 
ATOM     12  C   UNL     1       1.442   3.515  18.152  0.00  0.00    +0.000 A 
ATOM     13  C   UNL     1       2.505   4.390  17.906  0.00  0.00    +0.000 A 
ENDBRANCH   4   7
BRANCH   6  14
ATOM     14  C   UNL     1       6.070   5.030  15.635  0.00  0.00    +0.000 A 
ATOM     15  C   UNL     1       5.364   4.060  14.906  0.00  0.00    +0.000 A 
ATOM     16  C   UNL     1       5.743   3.708  13.611  0.00  0.00    +0.000 A 
ATOM     17  C   UNL     1       6.861   4.296  13.033  0.00  0.00    +0.000 A 
ATOM     18  C   UNL     1       7.581   5.240  13.755  0.00  0.00    +0.000 A 
ATOM     19  C   UNL     1       7.179   5.631  15.034  0.00  0.00    +0.000 A 
BRANCH  18  20
ATOM     20  O   UNL     1       8.709   5.810  13.239  0.00  0.00    +0.000 OA
ATOM     21  H   UNL     1       9.479   5.401  13.669  0.00  0.00    +0.000 HD
ENDBRANCH  18  20
ENDBRANCH   6  14
TORSDOF 3
ENDMDL
MODEL 4
REMARK VINA RESULT:      -7.7      1.698      2.257
REMARK  Name = 
REMARK  3 active torsions:
REMARK  status: ('A' for Active; 'I' for Inactive)
REMARK    1  A    between atoms: C_4  and  C_5
REMARK    2  A    between atoms: N_13  and  C_14
REMARK    3  A    between atoms: C_18  and  O_19
REMARK                            x       y       z     vdW  Elec       q    Type
REMARK                         _______ _______ _______ _____ _____    ______ ____
ROOT
ATOM      1  O   UNL     1       7.136   4.302  18.278  0.00  0.00    +0.000 OA
ATOM      2  C   UNL     1       6.163   5.014  18.084  0.00  0.00    +0.000 C 
ATOM      3  O   UNL     1       5.466   5.573  19.124  0.00  0.00    +0.000 OA
ATOM      4  C   UNL     1       4.239   6.101  18.604  0.00  0.00    +0.000 C 
ATOM      5  C   UNL     1       4.543   6.338  17.131  0.00  0.00    +0.000 C 
ATOM      6  N   UNL     1       5.613   5.422  16.881  0.00  0.00    +0.000 N 
ENDROOT
BRANCH   4   7
ATOM      7  C   UNL     1       3.078   5.154  18.882  0.00  0.00    +0.000 A 
ATOM      8  C   UNL     1       2.432   4.444  17.853  0.00  0.00    +0.000 A 
ATOM      9  C   UNL     1       1.395   3.553  18.136  0.00  0.00    +0.000 A 
ATOM     10  C   UNL     1       0.999   3.361  19.452  0.00  0.00    +0.000 A 
ATOM     11  F   UNL     1       0.013   2.499  19.727  0.00  0.00    +0.000 F 
ATOM     12  C   UNL     1       1.621   4.045  20.489  0.00  0.00    +0.000 A 
ATOM     13  C   UNL     1       2.659   4.939  20.207  0.00  0.00    +0.000 A 
ENDBRANCH   4   7
BRANCH   6  14
ATOM     14  C   UNL     1       6.045   5.047  15.593  0.00  0.00    +0.000 A 
ATOM     15  C   UNL     1       5.338   4.077  14.867  0.00  0.00    +0.000 A 
ATOM     16  C   UNL     1       5.726   3.712  13.577  0.00  0.00    +0.000 A 
ATOM     17  C   UNL     1       6.853   4.287  13.004  0.00  0.00    +0.000 A 
ATOM     18  C   UNL     1       7.574   5.231  13.725  0.00  0.00    +0.000 A 
ATOM     19  C   UNL     1       7.164   5.635  14.997  0.00  0.00    +0.000 A 
BRANCH  18  20
ATOM     20  O   UNL     1       8.711   5.789  13.215  0.00  0.00    +0.000 OA
ATOM     21  H   UNL     1       9.245   6.120  13.957  0.00  0.00    +0.000 HD
ENDBRANCH  18  20
ENDBRANCH   6  14
TORSDOF 3
ENDMDL
MODEL 5
REMARK VINA RESULT:      -7.6      3.520      4.599
REMARK  Name = 
REMARK  3 active torsions:
REMARK  status: ('A' for Active; 'I' for Inactive)
REMARK    1  A    between atoms: C_4  and  C_5
REMARK    2  A    between atoms: N_13  and  C_14
REMARK    3  A    between atoms: C_18  and  O_19
REMARK                            x       y       z     vdW  Elec       q    Type
REMARK                         _______ _______ _______ _____ _____    ______ ____
ROOT
ATOM      1  O   UNL     1       3.171   7.536  18.054  0.00  0.00    +0.000 OA
ATOM      2  C   UNL     1       3.303   6.339  17.858  0.00  0.00    +0.000 C 
ATOM      3  O   UNL     1       2.227   5.534  17.588  0.00  0.00    +0.000 OA
ATOM      4  C   UNL     1       2.654   4.169  17.692  0.00  0.00    +0.000 C 
ATOM      5  C   UNL     1       4.156   4.242  17.452  0.00  0.00    +0.000 C 
ATOM      6  N   UNL     1       4.467   5.589  17.820  0.00  0.00    +0.000 N 
ENDROOT
BRANCH   4   7
ATOM      7  C   UNL     1       2.239   3.570  19.029  0.00  0.00    +0.000 A 
ATOM      8  C   UNL     1       3.184   3.161  19.988  0.00  0.00    +0.000 A 
ATOM      9  C   UNL     1       2.780   2.648  21.223  0.00  0.00    +0.000 A 
ATOM     10  C   UNL     1       1.426   2.546  21.510  0.00  0.00    +0.000 A 
ATOM     11  F   UNL     1       1.036   2.066  22.697  0.00  0.00    +0.000 F 
ATOM     12  C   UNL     1       0.471   2.945  20.584  0.00  0.00    +0.000 A 
ATOM     13  C   UNL     1       0.873   3.457  19.347  0.00  0.00    +0.000 A 
ENDBRANCH   4   7
BRANCH   6  14
ATOM     14  C   UNL     1       5.774   6.059  18.060  0.00  0.00    +0.000 A 
ATOM     15  C   UNL     1       6.298   7.108  17.288  0.00  0.00    +0.000 A 
ATOM     16  C   UNL     1       7.576   7.613  17.527  0.00  0.00    +0.000 A 
ATOM     17  C   UNL     1       8.368   7.053  18.521  0.00  0.00    +0.000 A 
ATOM     18  C   UNL     1       7.867   5.998  19.274  0.00  0.00    +0.000 A 
ATOM     19  C   UNL     1       6.571   5.519  19.072  0.00  0.00    +0.000 A 
BRANCH  18  20
ATOM     20  O   UNL     1       8.629   5.392  20.231  0.00  0.00    +0.000 OA
ATOM     21  H   UNL     1       9.384   4.965  19.792  0.00  0.00    +0.000 HD
ENDBRANCH  18  20
ENDBRANCH   6  14
TORSDOF 3
ENDMDL
MODEL 6
REMARK VINA RESULT:      -7.4      3.502      4.699
REMARK  Name = 
REMARK  3 active torsions:
REMARK  status: ('A' for Active; 'I' for Inactive)
REMARK    1  A    between atoms: C_4  and  C_5
REMARK    2  A    between atoms: N_13  and  C_14
REMARK    3  A    between atoms: C_18  and  O_19
REMARK                            x       y       z     vdW  Elec       q    Type
REMARK                         _______ _______ _______ _____ _____    ______ ____
ROOT
ATOM      1  O   UNL     1       3.163   7.432  17.841  0.00  0.00    +0.000 OA
ATOM      2  C   UNL     1       3.317   6.225  17.738  0.00  0.00    +0.000 C 
ATOM      3  O   UNL     1       2.262   5.386  17.489  0.00  0.00    +0.000 OA
ATOM      4  C   UNL     1       2.702   4.040  17.709  0.00  0.00    +0.000 C 
ATOM      5  C   UNL     1       4.211   4.118  17.519  0.00  0.00    +0.000 C 
ATOM      6  N   UNL     1       4.491   5.493  17.798  0.00  0.00    +0.000 N 
ENDROOT
BRANCH   4   7
ATOM      7  C   UNL     1       2.245   3.533  19.070  0.00  0.00    +0.000 A 
ATOM      8  C   UNL     1       0.883   3.430  19.408  0.00  0.00    +0.000 A 
ATOM      9  C   UNL     1       0.486   2.927  20.649  0.00  0.00    +0.000 A 
ATOM     10  C   UNL     1       1.449   2.517  21.560  0.00  0.00    +0.000 A 
ATOM     11  F   UNL     1       1.071   2.024  22.745  0.00  0.00    +0.000 F 
ATOM     12  C   UNL     1       2.801   2.603  21.252  0.00  0.00    +0.000 A 
ATOM     13  C   UNL     1       3.200   3.108  20.011  0.00  0.00    +0.000 A 
ENDBRANCH   4   7
BRANCH   6  14
ATOM     14  C   UNL     1       5.782   5.999  18.049  0.00  0.00    +0.000 A 
ATOM     15  C   UNL     1       6.276   7.075  17.296  0.00  0.00    +0.000 A 
ATOM     16  C   UNL     1       7.537   7.616  17.547  0.00  0.00    +0.000 A 
ATOM     17  C   UNL     1       8.343   7.066  18.535  0.00  0.00    +0.000 A 
ATOM     18  C   UNL     1       7.872   5.985  19.270  0.00  0.00    +0.000 A 
ATOM     19  C   UNL     1       6.593   5.468  19.056  0.00  0.00    +0.000 A 
BRANCH  18  20
ATOM     20  O   UNL     1       8.650   5.387  20.220  0.00  0.00    +0.000 OA
ATOM     21  H   UNL     1       9.487   5.123  19.804  0.00  0.00    +0.000 HD
ENDBRANCH  18  20
ENDBRANCH   6  14
TORSDOF 3
ENDMDL
MODEL 7
REMARK VINA RESULT:      -7.4      3.070      6.427
REMARK  Name = 
REMARK  3 active torsions:
REMARK  status: ('A' for Active; 'I' for Inactive)
REMARK    1  A    between atoms: C_4  and  C_5
REMARK    2  A    between atoms: N_13  and  C_14
REMARK    3  A    between atoms: C_18  and  O_19
REMARK                            x       y       z     vdW  Elec       q    Type
REMARK                         _______ _______ _______ _____ _____    ______ ____
ROOT
ATOM      1  O   UNL     1       3.193   7.155  17.981  0.00  0.00    +0.000 OA
ATOM      2  C   UNL     1       4.129   6.373  18.041  0.00  0.00    +0.000 C 
ATOM      3  O   UNL     1       5.372   6.707  17.570  0.00  0.00    +0.000 OA
ATOM      4  C   UNL     1       6.163   5.512  17.515  0.00  0.00    +0.000 C 
ATOM      5  C   UNL     1       5.500   4.593  18.532  0.00  0.00    +0.000 C 
ATOM      6  N   UNL     1       4.164   5.102  18.590  0.00  0.00    +0.000 N 
ENDROOT
BRANCH   4   7
ATOM      7  C   UNL     1       6.227   4.967  16.094  0.00  0.00    +0.000 A 
ATOM      8  C   UNL     1       5.228   4.124  15.573  0.00  0.00    +0.000 A 
ATOM      9  C   UNL     1       5.289   3.666  14.255  0.00  0.00    +0.000 A 
ATOM     10  C   UNL     1       6.347   4.054  13.446  0.00  0.00    +0.000 A 
ATOM     11  F   UNL     1       6.401   3.625  12.179  0.00  0.00    +0.000 F 
ATOM     12  C   UNL     1       7.345   4.889  13.931  0.00  0.00    +0.000 A 
ATOM     13  C   UNL     1       7.287   5.346  15.251  0.00  0.00    +0.000 A 
ENDBRANCH   4   7
BRANCH   6  14
ATOM     14  C   UNL     1       3.080   4.407  19.162  0.00  0.00    +0.000 A 
ATOM     15  C   UNL     1       2.704   4.659  20.491  0.00  0.00    +0.000 A 
ATOM     16  C   UNL     1       1.615   4.009  21.070  0.00  0.00    +0.000 A 
ATOM     17  C   UNL     1       0.902   3.066  20.341  0.00  0.00    +0.000 A 
ATOM     18  C   UNL     1       1.281   2.793  19.032  0.00  0.00    +0.000 A 
ATOM     19  C   UNL     1       2.341   3.474  18.431  0.00  0.00    +0.000 A 
BRANCH  18  20
ATOM     20  O   UNL     1       0.634   1.843  18.295  0.00  0.00    +0.000 OA
ATOM     21  H   UNL     1       1.266   1.132  18.095  0.00  0.00    +0.000 HD
ENDBRANCH  18  20
ENDBRANCH   6  14
TORSDOF 3
ENDMDL
MODEL 8
REMARK VINA RESULT:      -7.4      3.073      6.360
REMARK  Name = 
REMARK  3 active torsions:
REMARK  status: ('A' for Active; 'I' for Inactive)
REMARK    1  A    between atoms: C_4  and  C_5
REMARK    2  A    between atoms: N_13  and  C_14
REMARK    3  A    between atoms: C_18  and  O_19
REMARK                            x       y       z     vdW  Elec       q    Type
REMARK                         _______ _______ _______ _____ _____    ______ ____
ROOT
ATOM      1  O   UNL     1       3.212   7.374  17.725  0.00  0.00    +0.000 OA
ATOM      2  C   UNL     1       4.136   6.581  17.813  0.00  0.00    +0.000 C 
ATOM      3  O   UNL     1       5.390   6.888  17.353  0.00  0.00    +0.000 OA
ATOM      4  C   UNL     1       6.164   5.682  17.332  0.00  0.00    +0.000 C 
ATOM      5  C   UNL     1       5.475   4.792  18.357  0.00  0.00    +0.000 C 
ATOM      6  N   UNL     1       4.145   5.320  18.386  0.00  0.00    +0.000 N 
ENDROOT
BRANCH   4   7
ATOM      7  C   UNL     1       6.241   5.110  15.923  0.00  0.00    +0.000 A 
ATOM      8  C   UNL     1       7.300   5.419  15.048  0.00  0.00    +0.000 A 
ATOM      9  C   UNL     1       7.369   4.853  13.774  0.00  0.00    +0.000 A 
ATOM     10  C   UNL     1       6.383   3.967  13.366  0.00  0.00    +0.000 A 
ATOM     11  F   UNL     1       6.453   3.414  12.149  0.00  0.00    +0.000 F 
ATOM     12  C   UNL     1       5.328   3.639  14.208  0.00  0.00    +0.000 A 
ATOM     13  C   UNL     1       5.256   4.207  15.484  0.00  0.00    +0.000 A 
ENDBRANCH   4   7
BRANCH   6  14
ATOM     14  C   UNL     1       3.044   4.652  18.956  0.00  0.00    +0.000 A 
ATOM     15  C   UNL     1       2.536   5.061  20.198  0.00  0.00    +0.000 A 
ATOM     16  C   UNL     1       1.426   4.438  20.768  0.00  0.00    +0.000 A 
ATOM     17  C   UNL     1       0.825   3.366  20.121  0.00  0.00    +0.000 A 
ATOM     18  C   UNL     1       1.335   2.937  18.902  0.00  0.00    +0.000 A 
ATOM     19  C   UNL     1       2.416   3.587  18.303  0.00  0.00    +0.000 A 
BRANCH  18  20
ATOM     20  O   UNL     1       0.800   1.861  18.254  0.00  0.00    +0.000 OA
ATOM     21  H   UNL     1       0.858   1.092  18.845  0.00  0.00    +0.000 HD
ENDBRANCH  18  20
ENDBRANCH   6  14
TORSDOF 3
ENDMDL
MODEL 9
REMARK VINA RESULT:      -7.4      3.008      6.598
REMARK  Name = 
REMARK  3 active torsions:
REMARK  status: ('A' for Active; 'I' for Inactive)
REMARK    1  A    between atoms: C_4  and  C_5
REMARK    2  A    between atoms: N_13  and  C_14
REMARK    3  A    between atoms: C_18  and  O_19
REMARK                            x       y       z     vdW  Elec       q    Type
REMARK                         _______ _______ _______ _____ _____    ______ ____
ROOT
ATOM      1  O   UNL     1       3.477   7.139  17.853  0.00  0.00    +0.000 OA
ATOM      2  C   UNL     1       4.368   6.305  17.875  0.00  0.00    +0.000 C 
ATOM      3  O   UNL     1       5.631   6.592  17.426  0.00  0.00    +0.000 OA
ATOM      4  C   UNL     1       6.354   5.361  17.310  0.00  0.00    +0.000 C 
ATOM      5  C   UNL     1       5.635   4.428  18.277  0.00  0.00    +0.000 C 
ATOM      6  N   UNL     1       4.330   5.007  18.356  0.00  0.00    +0.000 N 
ENDROOT
BRANCH   4   7
ATOM      7  C   UNL     1       6.397   4.887  15.863  0.00  0.00    +0.000 A 
ATOM      8  C   UNL     1       5.406   4.043  15.326  0.00  0.00    +0.000 A 
ATOM      9  C   UNL     1       5.446   3.652  13.986  0.00  0.00    +0.000 A 
ATOM     10  C   UNL     1       6.472   4.108  13.171  0.00  0.00    +0.000 A 
ATOM     11  F   UNL     1       6.505   3.743  11.884  0.00  0.00    +0.000 F 
ATOM     12  C   UNL     1       7.461   4.945  13.673  0.00  0.00    +0.000 A 
ATOM     13  C   UNL     1       7.424   5.336  15.015  0.00  0.00    +0.000 A 
ENDBRANCH   4   7
BRANCH   6  14
ATOM     14  C   UNL     1       3.205   4.345  18.889  0.00  0.00    +0.000 A 
ATOM     15  C   UNL     1       2.157   3.946  18.046  0.00  0.00    +0.000 A 
ATOM     16  C   UNL     1       1.049   3.260  18.543  0.00  0.00    +0.000 A 
ATOM     17  C   UNL     1       0.952   2.992  19.902  0.00  0.00    +0.000 A 
ATOM     18  C   UNL     1       1.974   3.405  20.749  0.00  0.00    +0.000 A 
ATOM     19  C   UNL     1       3.108   4.050  20.251  0.00  0.00    +0.000 A 
BRANCH  18  20
ATOM     20  O   UNL     1       1.898   3.199  22.097  0.00  0.00    +0.000 OA
ATOM     21  H   UNL     1       2.780   3.349  22.476  0.00  0.00    +0.000 HD
ENDBRANCH  18  20
ENDBRANCH   6  14
TORSDOF 3
ENDMDL
