MODEL 1
REMARK VINA RESULT:      -7.7      0.000      0.000
REMARK  Name = 
REMARK  6 active torsions:
REMARK  status: ('A' for Active; 'I' for Inactive)
REMARK    1  A    between atoms: C_1  and  C_2
REMARK    2  A    between atoms: C_2  and  C_3
REMARK    3  A    between atoms: C_3  and  C_4
REMARK    4  A    between atoms: C_4  and  C_5
REMARK    5  A    between atoms: N_7  and  C_8
REMARK    6  A    between atoms: N_16  and  O_17
REMARK                            x       y       z     vdW  Elec       q    Type
REMARK                         _______ _______ _______ _____ _____    ______ ____
ROOT
ATOM      1  C   UNL     1       5.381   6.181  17.152  0.00  0.00    +0.000 A 
ATOM      2  C   UNL     1       5.402   5.152  16.208  0.00  0.00    +0.000 A 
ATOM      3  C   UNL     1       4.504   4.087  16.293  0.00  0.00    +0.000 A 
ATOM      4  C   UNL     1       3.550   4.042  17.315  0.00  0.00    +0.000 A 
ATOM      5  C   UNL     1       3.521   5.076  18.255  0.00  0.00    +0.000 A 
ATOM      6  C   UNL     1       4.461   6.116  18.202  0.00  0.00    +0.000 A 
ATOM      7  C   UNL     1       2.444   5.124  19.268  0.00  0.00    +0.000 C 
ATOM      8  O   UNL     1       2.380   6.059  20.064  0.00  0.00    +0.000 OA
ATOM      9  N   UNL     1       1.533   4.080  19.228  0.00  0.00    +0.000 N 
ATOM     10  C   UNL     1       1.628   2.885  18.533  0.00  0.00    +0.000 C 
ATOM     11  O   UNL     1       0.989   1.865  18.802  0.00  0.00    +0.000 OA
ATOM     12  C   UNL     1       2.573   2.901  17.357  0.00  0.00    +0.000 C 
ENDROOT
BRANCH   1  15
ATOM     13  C   UNL     1       7.420   7.447  17.796  0.00  0.00    +0.000 C 
ATOM     14  O   UNL     1       7.943   6.612  18.522  0.00  0.00    +0.000 OA
ATOM     15  N   UNL     1       6.237   7.298  17.096  0.00  0.00    +0.000 N 
ATOM     16  H   UNL     1       6.029   7.998  16.395  0.00  0.00    +0.000 HD
BRANCH  13  17
ATOM     17  C   UNL     1       8.086   8.794  17.581  0.00  0.00    +0.000 C 
BRANCH  17  18
ATOM     18  C   UNL     1       8.856   9.269  18.810  0.00  0.00    +0.000 C 
BRANCH  18  20
ATOM     19  C   UNL     1       9.771  11.270  20.033  0.00  0.00    +0.000 C 
ATOM     20  C   UNL     1       9.326  10.721  18.686  0.00  0.00    +0.000 C 
ENDBRANCH  18  20
ENDBRANCH  17  18
ENDBRANCH  13  17
ENDBRANCH   1  15
BRANCH   9  21
ATOM     21  O   UNL     1       0.562   4.107  20.255  0.00  0.00    +0.000 OA
ATOM     22  H   UNL     1      -0.090   4.733  19.890  0.00  0.00    +0.000 HD
ENDBRANCH   9  21
TORSDOF 5
ENDMDL
MODEL 2
REMARK VINA RESULT:      -7.6      3.281      5.577
REMARK  Name = 
REMARK  6 active torsions:
REMARK  status: ('A' for Active; 'I' for Inactive)
REMARK    1  A    between atoms: C_1  and  C_2
REMARK    2  A    between atoms: C_2  and  C_3
REMARK    3  A    between atoms: C_3  and  C_4
REMARK    4  A    between atoms: C_4  and  C_5
REMARK    5  A    between atoms: N_7  and  C_8
REMARK    6  A    between atoms: N_16  and  O_17
REMARK                            x       y       z     vdW  Elec       q    Type
REMARK                         _______ _______ _______ _____ _____    ______ ____
ROOT
ATOM      1  C   UNL     1       5.139   4.881  15.611  0.00  0.00    +0.000 A 
ATOM      2  C   UNL     1       5.103   6.198  16.072  0.00  0.00    +0.000 A 
ATOM      3  C   UNL     1       4.540   6.506  17.311  0.00  0.00    +0.000 A 
ATOM      4  C   UNL     1       4.019   5.495  18.125  0.00  0.00    +0.000 A 
ATOM      5  C   UNL     1       4.062   4.175  17.670  0.00  0.00    +0.000 A 
ATOM      6  C   UNL     1       4.577   3.873  16.400  0.00  0.00    +0.000 A 
ATOM      7  C   UNL     1       3.639   3.071  18.560  0.00  0.00    +0.000 C 
ATOM      8  O   UNL     1       3.724   1.904  18.187  0.00  0.00    +0.000 OA
ATOM      9  N   UNL     1       3.180   3.452  19.812  0.00  0.00    +0.000 N 
ATOM     10  C   UNL     1       2.841   4.720  20.253  0.00  0.00    +0.000 C 
ATOM     11  O   UNL     1       2.118   4.955  21.224  0.00  0.00    +0.000 OA
ATOM     12  C   UNL     1       3.453   5.855  19.470  0.00  0.00    +0.000 C 
ENDROOT
BRANCH   1  15
ATOM     13  C   UNL     1       7.002   4.836  13.968  0.00  0.00    +0.000 C 
ATOM     14  O   UNL     1       7.843   5.449  14.614  0.00  0.00    +0.000 OA
ATOM     15  N   UNL     1       5.727   4.506  14.388  0.00  0.00    +0.000 N 
ATOM     16  H   UNL     1       5.218   3.839  13.821  0.00  0.00    +0.000 HD
BRANCH  13  17
ATOM     17  C   UNL     1       7.328   4.344  12.569  0.00  0.00    +0.000 C 
BRANCH  17  18
ATOM     18  C   UNL     1       6.371   3.252  12.096  0.00  0.00    +0.000 C 
BRANCH  18  20
ATOM     19  C   UNL     1       6.195   0.939  11.120  0.00  0.00    +0.000 C 
ATOM     20  C   UNL     1       7.075   2.170  11.272  0.00  0.00    +0.000 C 
ENDBRANCH  18  20
ENDBRANCH  17  18
ENDBRANCH  13  17
ENDBRANCH   1  15
BRANCH   9  21
ATOM     21  O   UNL     1       2.707   2.386  20.613  0.00  0.00    +0.000 OA
ATOM     22  H   UNL     1       1.914   2.108  20.118  0.00  0.00    +0.000 HD
ENDBRANCH   9  21
TORSDOF 5
ENDMDL
MODEL 3
REMARK VINA RESULT:      -7.5      1.101      1.116
REMARK  Name = 
REMARK  6 active torsions:
REMARK  status: ('A' for Active; 'I' for Inactive)
REMARK    1  A    between atoms: C_1  and  C_2
REMARK    2  A    between atoms: C_2  and  C_3
REMARK    3  A    between atoms: C_3  and  C_4
REMARK    4  A    between atoms: C_4  and  C_5
REMARK    5  A    between atoms: N_7  and  C_8
REMARK    6  A    between atoms: N_16  and  O_17
REMARK                            x       y       z     vdW  Elec       q    Type
REMARK                         _______ _______ _______ _____ _____    ______ ____
ROOT
ATOM      1  C   UNL     1       5.772   5.243  18.266  0.00  0.00    +0.000 A 
ATOM      2  C   UNL     1       5.692   4.461  17.111  0.00  0.00    +0.000 A 
ATOM      3  C   UNL     1       4.574   3.662  16.867  0.00  0.00    +0.000 A 
ATOM      4  C   UNL     1       3.502   3.645  17.765  0.00  0.00    +0.000 A 
ATOM      5  C   UNL     1       3.576   4.434  18.916  0.00  0.00    +0.000 A 
ATOM      6  C   UNL     1       4.724   5.194  19.189  0.00  0.00    +0.000 A 
ATOM      7  C   UNL     1       2.407   4.539  19.817  0.00  0.00    +0.000 C 
ATOM      8  O   UNL     1       2.446   5.273  20.802  0.00  0.00    +0.000 OA
ATOM      9  N   UNL     1       1.300   3.788  19.455  0.00  0.00    +0.000 N 
ATOM     10  C   UNL     1       1.219   2.779  18.509  0.00  0.00    +0.000 C 
ATOM     11  O   UNL     1       0.336   1.919  18.475  0.00  0.00    +0.000 OA
ATOM     12  C   UNL     1       2.297   2.803  17.454  0.00  0.00    +0.000 C 
ENDROOT
BRANCH   1  15
ATOM     13  C   UNL     1       7.186   7.243  17.848  0.00  0.00    +0.000 C 
ATOM     14  O   UNL     1       6.556   7.732  16.919  0.00  0.00    +0.000 OA
ATOM     15  N   UNL     1       6.856   6.096  18.547  0.00  0.00    +0.000 N 
ATOM     16  H   UNL     1       7.365   5.921  19.404  0.00  0.00    +0.000 HD
BRANCH  13  17
ATOM     17  C   UNL     1       8.453   7.915  18.347  0.00  0.00    +0.000 C 
BRANCH  17  18
ATOM     18  C   UNL     1       8.435   9.426  18.135  0.00  0.00    +0.000 C 
BRANCH  18  20
ATOM     19  C   UNL     1       9.827  11.476  18.575  0.00  0.00    +0.000 C 
ATOM     20  C   UNL     1       9.300  10.173  19.154  0.00  0.00    +0.000 C 
ENDBRANCH  18  20
ENDBRANCH  17  18
ENDBRANCH  13  17
ENDBRANCH   1  15
BRANCH   9  21
ATOM     21  O   UNL     1       0.227   3.843  20.375  0.00  0.00    +0.000 OA
ATOM     22  H   UNL     1       0.487   4.599  20.933  0.00  0.00    +0.000 HD
ENDBRANCH   9  21
TORSDOF 5
ENDMDL
MODEL 4
REMARK VINA RESULT:      -7.3      3.366      5.670
REMARK  Name = 
REMARK  6 active torsions:
REMARK  status: ('A' for Active; 'I' for Inactive)
REMARK    1  A    between atoms: C_1  and  C_2
REMARK    2  A    between atoms: C_2  and  C_3
REMARK    3  A    between atoms: C_3  and  C_4
REMARK    4  A    between atoms: C_4  and  C_5
REMARK    5  A    between atoms: N_7  and  C_8
REMARK    6  A    between atoms: N_16  and  O_17
REMARK                            x       y       z     vdW  Elec       q    Type
REMARK                         _______ _______ _______ _____ _____    ______ ____
ROOT
ATOM      1  C   UNL     1       5.794   3.929  15.792  0.00  0.00    +0.000 A 
ATOM      2  C   UNL     1       6.683   4.448  16.736  0.00  0.00    +0.000 A 
ATOM      3  C   UNL     1       6.242   4.804  18.012  0.00  0.00    +0.000 A 
ATOM      4  C   UNL     1       4.903   4.627  18.376  0.00  0.00    +0.000 A 
ATOM      5  C   UNL     1       4.014   4.098  17.436  0.00  0.00    +0.000 A 
ATOM      6  C   UNL     1       4.446   3.793  16.136  0.00  0.00    +0.000 A 
ATOM      7  C   UNL     1       2.624   3.777  17.831  0.00  0.00    +0.000 C 
ATOM      8  O   UNL     1       1.852   3.262  17.025  0.00  0.00    +0.000 OA
ATOM      9  N   UNL     1       2.289   4.073  19.143  0.00  0.00    +0.000 N 
ATOM     10  C   UNL     1       2.994   4.838  20.058  0.00  0.00    +0.000 C 
ATOM     11  O   UNL     1       2.503   5.359  21.062  0.00  0.00    +0.000 OA
ATOM     12  C   UNL     1       4.468   4.985  19.769  0.00  0.00    +0.000 C 
ENDROOT
BRANCH   1  15
ATOM     13  C   UNL     1       6.761   4.323  13.538  0.00  0.00    +0.000 C 
ATOM     14  O   UNL     1       7.075   5.499  13.666  0.00  0.00    +0.000 OA
ATOM     15  N   UNL     1       6.188   3.517  14.505  0.00  0.00    +0.000 N 
ATOM     16  H   UNL     1       6.160   2.523  14.314  0.00  0.00    +0.000 HD
BRANCH  13  17
ATOM     17  C   UNL     1       7.012   3.607  12.222  0.00  0.00    +0.000 C 
BRANCH  17  18
ATOM     18  C   UNL     1       5.814   2.776  11.771  0.00  0.00    +0.000 C 
BRANCH  18  20
ATOM     19  C   UNL     1       3.587   3.096  10.644  0.00  0.00    +0.000 C 
ATOM     20  C   UNL     1       4.513   3.584  11.746  0.00  0.00    +0.000 C 
ENDBRANCH  18  20
ENDBRANCH  17  18
ENDBRANCH  13  17
ENDBRANCH   1  15
BRANCH   9  21
ATOM     21  O   UNL     1       0.935   3.832  19.472  0.00  0.00    +0.000 OA
ATOM     22  H   UNL     1       0.606   3.418  18.652  0.00  0.00    +0.000 HD
ENDBRANCH   9  21
TORSDOF 5
ENDMDL
MODEL 5
REMARK VINA RESULT:      -7.2      3.960      5.487
REMARK  Name = 
REMARK  6 active torsions:
REMARK  status: ('A' for Active; 'I' for Inactive)
REMARK    1  A    between atoms: C_1  and  C_2
REMARK    2  A    between atoms: C_2  and  C_3
REMARK    3  A    between atoms: C_3  and  C_4
REMARK    4  A    between atoms: C_4  and  C_5
REMARK    5  A    between atoms: N_7  and  C_8
REMARK    6  A    between atoms: N_16  and  O_17
REMARK                            x       y       z     vdW  Elec       q    Type
REMARK                         _______ _______ _______ _____ _____    ______ ____
ROOT
ATOM      1  C   UNL     1       4.372   5.429  17.176  0.00  0.00    +0.000 A 
ATOM      2  C   UNL     1       4.196   4.578  18.270  0.00  0.00    +0.000 A 
ATOM      3  C   UNL     1       3.455   4.986  19.380  0.00  0.00    +0.000 A 
ATOM      4  C   UNL     1       2.856   6.250  19.409  0.00  0.00    +0.000 A 
ATOM      5  C   UNL     1       3.023   7.099  18.312  0.00  0.00    +0.000 A 
ATOM      6  C   UNL     1       3.815   6.710  17.220  0.00  0.00    +0.000 A 
ATOM      7  C   UNL     1       2.296   8.387  18.255  0.00  0.00    +0.000 C 
ATOM      8  O   UNL     1       2.395   9.114  17.270  0.00  0.00    +0.000 OA
ATOM      9  N   UNL     1       1.504   8.678  19.356  0.00  0.00    +0.000 N 
ATOM     10  C   UNL     1       1.487   8.051  20.591  0.00  0.00    +0.000 C 
ATOM     11  O   UNL     1       1.044   8.554  21.626  0.00  0.00    +0.000 OA
ATOM     12  C   UNL     1       2.034   6.645  20.603  0.00  0.00    +0.000 C 
ENDROOT
BRANCH   1  15
ATOM     13  C   UNL     1       6.419   5.288  15.775  0.00  0.00    +0.000 C 
ATOM     14  O   UNL     1       7.220   5.788  16.553  0.00  0.00    +0.000 OA
ATOM     15  N   UNL     1       5.077   5.058  16.015  0.00  0.00    +0.000 N 
ATOM     16  H   UNL     1       4.588   4.470  15.352  0.00  0.00    +0.000 HD
BRANCH  13  17
ATOM     17  C   UNL     1       6.876   4.834  14.400  0.00  0.00    +0.000 C 
BRANCH  17  18
ATOM     18  C   UNL     1       6.029   3.689  13.851  0.00  0.00    +0.000 C 
BRANCH  18  20
ATOM     19  C   UNL     1       4.841   3.269  11.672  0.00  0.00    +0.000 C 
ATOM     20  C   UNL     1       6.186   3.513  12.338  0.00  0.00    +0.000 C 
ENDBRANCH  18  20
ENDBRANCH  17  18
ENDBRANCH  13  17
ENDBRANCH   1  15
BRANCH   9  21
ATOM     21  O   UNL     1       0.885   9.949  19.313  0.00  0.00    +0.000 OA
ATOM     22  H   UNL     1       1.182  10.282  18.446  0.00  0.00    +0.000 HD
ENDBRANCH   9  21
TORSDOF 5
ENDMDL
MODEL 6
REMARK VINA RESULT:      -7.1      3.577      6.158
REMARK  Name = 
REMARK  6 active torsions:
REMARK  status: ('A' for Active; 'I' for Inactive)
REMARK    1  A    between atoms: C_1  and  C_2
REMARK    2  A    between atoms: C_2  and  C_3
REMARK    3  A    between atoms: C_3  and  C_4
REMARK    4  A    between atoms: C_4  and  C_5
REMARK    5  A    between atoms: N_7  and  C_8
REMARK    6  A    between atoms: N_16  and  O_17
REMARK                            x       y       z     vdW  Elec       q    Type
REMARK                         _______ _______ _______ _____ _____    ______ ____
ROOT
ATOM      1  C   UNL     1       2.674   6.737  18.694  0.00  0.00    +0.000 A 
ATOM      2  C   UNL     1       2.145   5.456  18.521  0.00  0.00    +0.000 A 
ATOM      3  C   UNL     1       2.787   4.521  17.708  0.00  0.00    +0.000 A 
ATOM      4  C   UNL     1       3.987   4.844  17.066  0.00  0.00    +0.000 A 
ATOM      5  C   UNL     1       4.523   6.122  17.244  0.00  0.00    +0.000 A 
ATOM      6  C   UNL     1       3.847   7.079  18.016  0.00  0.00    +0.000 A 
ATOM      7  C   UNL     1       5.853   6.451  16.685  0.00  0.00    +0.000 C 
ATOM      8  O   UNL     1       6.355   7.555  16.883  0.00  0.00    +0.000 OA
ATOM      9  N   UNL     1       6.471   5.438  15.969  0.00  0.00    +0.000 N 
ATOM     10  C   UNL     1       5.919   4.255  15.505  0.00  0.00    +0.000 C 
ATOM     11  O   UNL     1       6.389   3.572  14.592  0.00  0.00    +0.000 OA
ATOM     12  C   UNL     1       4.673   3.804  16.227  0.00  0.00    +0.000 C 
ENDROOT
BRANCH   1  15
ATOM     13  C   UNL     1       1.428   8.846  19.110  0.00  0.00    +0.000 C 
ATOM     14  O   UNL     1       1.186   9.158  17.952  0.00  0.00    +0.000 OA
ATOM     15  N   UNL     1       2.091   7.707  19.531  0.00  0.00    +0.000 N 
ATOM     16  H   UNL     1       2.049   7.493  20.519  0.00  0.00    +0.000 HD
BRANCH  13  17
ATOM     17  C   UNL     1       0.969   9.737  20.251  0.00  0.00    +0.000 C 
BRANCH  17  18
ATOM     18  C   UNL     1       1.002   9.024  21.599  0.00  0.00    +0.000 C 
BRANCH  18  20
ATOM     19  C   UNL     1      -0.693  10.186  23.052  0.00  0.00    +0.000 C 
ATOM     20  C   UNL     1      -0.381   8.932  22.251  0.00  0.00    +0.000 C 
ENDBRANCH  18  20
ENDBRANCH  17  18
ENDBRANCH  13  17
ENDBRANCH   1  15
BRANCH   9  21
ATOM     21  O   UNL     1       7.703   5.803  15.378  0.00  0.00    +0.000 OA
ATOM     22  H   UNL     1       7.449   5.900  14.441  0.00  0.00    +0.000 HD
ENDBRANCH   9  21
TORSDOF 5
ENDMDL
MODEL 7
REMARK VINA RESULT:      -7.1      3.242      5.710
REMARK  Name = 
REMARK  6 active torsions:
REMARK  status: ('A' for Active; 'I' for Inactive)
REMARK    1  A    between atoms: C_1  and  C_2
REMARK    2  A    between atoms: C_2  and  C_3
REMARK    3  A    between atoms: C_3  and  C_4
REMARK    4  A    between atoms: C_4  and  C_5
REMARK    5  A    between atoms: N_7  and  C_8
REMARK    6  A    between atoms: N_16  and  O_17
REMARK                            x       y       z     vdW  Elec       q    Type
REMARK                         _______ _______ _______ _____ _____    ______ ____
ROOT
ATOM      1  C   UNL     1       5.764   4.257  15.667  0.00  0.00    +0.000 A 
ATOM      2  C   UNL     1       6.635   4.775  16.628  0.00  0.00    +0.000 A 
ATOM      3  C   UNL     1       6.195   5.025  17.929  0.00  0.00    +0.000 A 
ATOM      4  C   UNL     1       4.877   4.741  18.300  0.00  0.00    +0.000 A 
ATOM      5  C   UNL     1       4.007   4.213  17.343  0.00  0.00    +0.000 A 
ATOM      6  C   UNL     1       4.434   4.015  16.021  0.00  0.00    +0.000 A 
ATOM      7  C   UNL     1       2.648   3.780  17.736  0.00  0.00    +0.000 C 
ATOM      8  O   UNL     1       1.895   3.266  16.913  0.00  0.00    +0.000 OA
ATOM      9  N   UNL     1       2.318   3.975  19.069  0.00  0.00    +0.000 N 
ATOM     10  C   UNL     1       2.989   4.728  20.018  0.00  0.00    +0.000 C 
ATOM     11  O   UNL     1       2.484   5.155  21.059  0.00  0.00    +0.000 OA
ATOM     12  C   UNL     1       4.445   4.987  19.718  0.00  0.00    +0.000 C 
ENDROOT
BRANCH   1  15
ATOM     13  C   UNL     1       7.090   4.647  13.602  0.00  0.00    +0.000 C 
ATOM     14  O   UNL     1       7.760   5.599  13.980  0.00  0.00    +0.000 OA
ATOM     15  N   UNL     1       6.160   3.949  14.351  0.00  0.00    +0.000 N 
ATOM     16  H   UNL     1       5.826   3.074  13.966  0.00  0.00    +0.000 HD
BRANCH  13  17
ATOM     17  C   UNL     1       7.254   4.114  12.190  0.00  0.00    +0.000 C 
BRANCH  17  18
ATOM     18  C   UNL     1       6.333   2.931  11.900  0.00  0.00    +0.000 C 
BRANCH  18  20
ATOM     19  C   UNL     1       6.201   0.536  11.140  0.00  0.00    +0.000 C 
ATOM     20  C   UNL     1       7.045   1.800  11.152  0.00  0.00    +0.000 C 
ENDBRANCH  18  20
ENDBRANCH  17  18
ENDBRANCH  13  17
ENDBRANCH   1  15
BRANCH   9  21
ATOM     21  O   UNL     1       0.988   3.628  19.402  0.00  0.00    +0.000 OA
ATOM     22  H   UNL     1       0.887   4.057  20.272  0.00  0.00    +0.000 HD
ENDBRANCH   9  21
TORSDOF 5
ENDMDL
MODEL 8
REMARK VINA RESULT:      -7.1      3.047      4.902
REMARK  Name = 
REMARK  6 active torsions:
REMARK  status: ('A' for Active; 'I' for Inactive)
REMARK    1  A    between atoms: C_1  and  C_2
REMARK    2  A    between atoms: C_2  and  C_3
REMARK    3  A    between atoms: C_3  and  C_4
REMARK    4  A    between atoms: C_4  and  C_5
REMARK    5  A    between atoms: N_7  and  C_8
REMARK    6  A    between atoms: N_16  and  O_17
REMARK                            x       y       z     vdW  Elec       q    Type
REMARK                         _______ _______ _______ _____ _____    ______ ____
ROOT
ATOM      1  C   UNL     1       4.992   5.646  15.941  0.00  0.00    +0.000 A 
ATOM      2  C   UNL     1       4.768   6.829  16.650  0.00  0.00    +0.000 A 
ATOM      3  C   UNL     1       3.975   6.833  17.799  0.00  0.00    +0.000 A 
ATOM      4  C   UNL     1       3.405   5.648  18.273  0.00  0.00    +0.000 A 
ATOM      5  C   UNL     1       3.635   4.462  17.571  0.00  0.00    +0.000 A 
ATOM      6  C   UNL     1       4.386   4.467  16.386  0.00  0.00    +0.000 A 
ATOM      7  C   UNL     1       3.156   3.173  18.118  0.00  0.00    +0.000 C 
ATOM      8  O   UNL     1       3.401   2.120  17.534  0.00  0.00    +0.000 OA
ATOM      9  N   UNL     1       2.457   3.251  19.313  0.00  0.00    +0.000 N 
ATOM     10  C   UNL     1       1.943   4.376  19.935  0.00  0.00    +0.000 C 
ATOM     11  O   UNL     1       1.045   4.362  20.780  0.00  0.00    +0.000 OA
ATOM     12  C   UNL     1       2.587   5.681  19.533  0.00  0.00    +0.000 C 
ENDROOT
BRANCH   1  15
ATOM     13  C   UNL     1       7.081   5.024  14.749  0.00  0.00    +0.000 C 
ATOM     14  O   UNL     1       7.665   4.460  15.665  0.00  0.00    +0.000 OA
ATOM     15  N   UNL     1       5.812   5.573  14.800  0.00  0.00    +0.000 N 
ATOM     16  H   UNL     1       5.392   5.836  13.917  0.00  0.00    +0.000 HD
BRANCH  13  17
ATOM     17  C   UNL     1       7.744   5.156  13.389  0.00  0.00    +0.000 C 
BRANCH  17  18
ATOM     18  C   UNL     1       7.116   4.242  12.341  0.00  0.00    +0.000 C 
BRANCH  18  20
ATOM     19  C   UNL     1       4.852   3.267  11.834  0.00  0.00    +0.000 C 
ATOM     20  C   UNL     1       5.930   3.444  12.891  0.00  0.00    +0.000 C 
ENDBRANCH  18  20
ENDBRANCH  17  18
ENDBRANCH  13  17
ENDBRANCH   1  15
BRANCH   9  21
ATOM     21  O   UNL     1       1.941   2.016  19.773  0.00  0.00    +0.000 OA
ATOM     22  H   UNL     1       2.461   1.880  20.587  0.00  0.00    +0.000 HD
ENDBRANCH   9  21
TORSDOF 5
ENDMDL
MODEL 9
REMARK VINA RESULT:      -7.1      3.368      5.648
REMARK  Name = 
REMARK  6 active torsions:
REMARK  status: ('A' for Active; 'I' for Inactive)
REMARK    1  A    between atoms: C_1  and  C_2
REMARK    2  A    between atoms: C_2  and  C_3
REMARK    3  A    between atoms: C_3  and  C_4
REMARK    4  A    between atoms: C_4  and  C_5
REMARK    5  A    between atoms: N_7  and  C_8
REMARK    6  A    between atoms: N_16  and  O_17
REMARK                            x       y       z     vdW  Elec       q    Type
REMARK                         _______ _______ _______ _____ _____    ______ ____
ROOT
ATOM      1  C   UNL     1       5.090   4.429  15.623  0.00  0.00    +0.000 A 
ATOM      2  C   UNL     1       5.208   5.767  16.007  0.00  0.00    +0.000 A 
ATOM      3  C   UNL     1       4.703   6.205  17.232  0.00  0.00    +0.000 A 
ATOM      4  C   UNL     1       4.086   5.307  18.109  0.00  0.00    +0.000 A 
ATOM      5  C   UNL     1       3.975   3.966  17.731  0.00  0.00    +0.000 A 
ATOM      6  C   UNL     1       4.433   3.537  16.475  0.00  0.00    +0.000 A 
ATOM      7  C   UNL     1       3.447   2.969  18.688  0.00  0.00    +0.000 C 
ATOM      8  O   UNL     1       3.397   1.780  18.382  0.00  0.00    +0.000 OA
ATOM      9  N   UNL     1       3.054   3.468  19.920  0.00  0.00    +0.000 N 
ATOM     10  C   UNL     1       2.865   4.790  20.290  0.00  0.00    +0.000 C 
ATOM     11  O   UNL     1       2.188   5.158  21.252  0.00  0.00    +0.000 OA
ATOM     12  C   UNL     1       3.586   5.803  19.436  0.00  0.00    +0.000 C 
ENDROOT
BRANCH   1  15
ATOM     13  C   UNL     1       6.661   4.466  13.699  0.00  0.00    +0.000 C 
ATOM     14  O   UNL     1       7.340   5.431  14.023  0.00  0.00    +0.000 OA
ATOM     15  N   UNL     1       5.613   3.922  14.418  0.00  0.00    +0.000 N 
ATOM     16  H   UNL     1       5.272   3.018  14.116  0.00  0.00    +0.000 HD
BRANCH  13  17
ATOM     17  C   UNL     1       6.951   3.733  12.401  0.00  0.00    +0.000 C 
BRANCH  17  18
ATOM     18  C   UNL     1       5.766   2.900  11.923  0.00  0.00    +0.000 C 
BRANCH  18  20
ATOM     19  C   UNL     1       3.545   2.966  10.740  0.00  0.00    +0.000 C 
ATOM     20  C   UNL     1       4.551   3.759  11.559  0.00  0.00    +0.000 C 
ENDBRANCH  18  20
ENDBRANCH  17  18
ENDBRANCH  13  17
ENDBRANCH   1  15
BRANCH   9  21
ATOM     21  O   UNL     1       2.479   2.509  20.786  0.00  0.00    +0.000 OA
ATOM     22  H   UNL     1       3.241   1.927  20.964  0.00  0.00    +0.000 HD
ENDBRANCH   9  21
TORSDOF 5
ENDMDL
