MODEL 1
REMARK VINA RESULT:      -6.7      0.000      0.000
REMARK  Name = 
REMARK  10 active torsions:
REMARK  status: ('A' for Active; 'I' for Inactive)
REMARK    1  A    between atoms: C_1  and  C_2
REMARK    2  A    between atoms: C_5  and  N_6
REMARK    3  A    between atoms: C_9  and  O_10
REMARK    4  A    between atoms: C_11  and  C_12
REMARK    5  A    between atoms: C_12  and  C_14
REMARK    6  A    between atoms: C_14  and  C_15
REMARK    7  A    between atoms: C_14  and  C_16
REMARK    8  A    between atoms: C_14  and  C_17
REMARK    9  A    between atoms: C_18  and  C_19
REMARK   10  A    between atoms: C_22  and  N_23
REMARK                            x       y       z     vdW  Elec       q    Type
REMARK                         _______ _______ _______ _____ _____    ______ ____
ROOT
ATOM      1  N   UNL     1       0.585   9.814  20.326  0.00  0.00    +0.000 N 
ATOM      2  C   UNL     1      -0.189   9.317  21.405  0.00  0.00    +0.000 C 
ATOM      3  O   UNL     1      -0.527   8.189  21.712  0.00  0.00    +0.000 OA
ATOM      4  C   UNL     1      -0.568  10.462  22.270  0.00  0.00    +0.000 C 
ATOM      5  C   UNL     1      -0.362  11.568  21.561  0.00  0.00    +0.000 C 
ATOM      6  C   UNL     1       0.816  11.213  20.638  0.00  0.00    +0.000 C 
ENDROOT
BRANCH   1  11
ATOM      7  C   UNL     1       3.893   6.003  17.429  0.00  0.00    +0.000 C 
ATOM      8  C   UNL     1       3.064   7.012  18.167  0.00  0.00    +0.000 A 
ATOM      9  C   UNL     1       2.701   6.789  19.486  0.00  0.00    +0.000 A 
ATOM     10  C   UNL     1       1.874   7.703  20.154  0.00  0.00    +0.000 A 
ATOM     11  C   UNL     1       1.392   8.891  19.560  0.00  0.00    +0.000 A 
ATOM     12  C   UNL     1       1.774   9.101  18.234  0.00  0.00    +0.000 A 
ATOM     13  C   UNL     1       2.601   8.181  17.549  0.00  0.00    +0.000 A 
ENDBRANCH   1  11
BRANCH   6  14
ATOM     14  C   UNL     1       1.463  12.327  19.799  0.00  0.00    +0.000 A 
ATOM     15  C   UNL     1       2.326  13.170  20.541  0.00  0.00    +0.000 A 
ATOM     16  C   UNL     1       2.031  14.527  20.630  0.00  0.00    +0.000 A 
ATOM     17  C   UNL     1       1.008  15.034  19.831  0.00  0.00    +0.000 A 
ATOM     18  C   UNL     1       0.518  14.276  18.758  0.00  0.00    +0.000 A 
ATOM     19  C   UNL     1       0.776  12.893  18.721  0.00  0.00    +0.000 A 
BRANCH  17  20
ATOM     20  N   UNL     1       0.252  16.206  20.314  0.00  0.00    +0.000 N 
ATOM     21  O   UNL     1      -0.365  16.874  19.469  0.00  0.00    +0.000 OA
ATOM     22  O   UNL     1       0.322  16.497  21.516  0.00  0.00    +0.000 OA
ENDBRANCH  17  20
ENDBRANCH   6  14
BRANCH   4  23
ATOM     23  O   UNL     1      -0.316  10.408  23.628  0.00  0.00    +0.000 OA
ATOM     24  H   UNL     1       0.568  10.796  23.775  0.00  0.00    +0.000 HD
ENDBRANCH   4  23
BRANCH   5  25
ATOM     25  C   UNL     1      -1.136  12.802  21.907  0.00  0.00    +0.000 C 
ATOM     26  O   UNL     1      -0.703  13.555  22.778  0.00  0.00    +0.000 OA
BRANCH  25  27
ATOM     27  C   UNL     1      -2.508  13.205  21.244  0.00  0.00    +0.000 C 
ATOM     28  C   UNL     1      -2.626  12.425  19.929  0.00  0.00    +0.000 C 
ATOM     29  C   UNL     1      -3.685  12.716  22.136  0.00  0.00    +0.000 C 
ATOM     30  C   UNL     1      -2.776  14.705  21.041  0.00  0.00    +0.000 C 
ENDBRANCH  25  27
ENDBRANCH   5  25
TORSDOF 6
ENDMDL
MODEL 2
REMARK VINA RESULT:      -6.6      0.154      1.201
REMARK  Name = 
REMARK  10 active torsions:
REMARK  status: ('A' for Active; 'I' for Inactive)
REMARK    1  A    between atoms: C_1  and  C_2
REMARK    2  A    between atoms: C_5  and  N_6
REMARK    3  A    between atoms: C_9  and  O_10
REMARK    4  A    between atoms: C_11  and  C_12
REMARK    5  A    between atoms: C_12  and  C_14
REMARK    6  A    between atoms: C_14  and  C_15
REMARK    7  A    between atoms: C_14  and  C_16
REMARK    8  A    between atoms: C_14  and  C_17
REMARK    9  A    between atoms: C_18  and  C_19
REMARK   10  A    between atoms: C_22  and  N_23
REMARK                            x       y       z     vdW  Elec       q    Type
REMARK                         _______ _______ _______ _____ _____    ______ ____
ROOT
ATOM      1  N   UNL     1       0.554   9.716  20.422  0.00  0.00    +0.000 N 
ATOM      2  C   UNL     1      -0.226   9.239  21.505  0.00  0.00    +0.000 C 
ATOM      3  O   UNL     1      -0.540   8.114  21.848  0.00  0.00    +0.000 OA
ATOM      4  C   UNL     1      -0.649  10.404  22.322  0.00  0.00    +0.000 C 
ATOM      5  C   UNL     1      -0.459  11.488  21.577  0.00  0.00    +0.000 C 
ATOM      6  C   UNL     1       0.744  11.131  20.687  0.00  0.00    +0.000 C 
ENDROOT
BRANCH   1  11
ATOM      7  C   UNL     1       3.893   6.079  17.344  0.00  0.00    +0.000 C 
ATOM      8  C   UNL     1       3.009   6.988  18.144  0.00  0.00    +0.000 A 
ATOM      9  C   UNL     1       2.542   8.173  17.595  0.00  0.00    +0.000 A 
ATOM     10  C   UNL     1       1.769   9.051  18.366  0.00  0.00    +0.000 A 
ATOM     11  C   UNL     1       1.397   8.788  19.704  0.00  0.00    +0.000 A 
ATOM     12  C   UNL     1       1.871   7.588  20.237  0.00  0.00    +0.000 A 
ATOM     13  C   UNL     1       2.659   6.699  19.469  0.00  0.00    +0.000 A 
ENDBRANCH   1  11
BRANCH   6  14
ATOM     14  C   UNL     1       1.377  12.231  19.820  0.00  0.00    +0.000 A 
ATOM     15  C   UNL     1       2.238  13.098  20.537  0.00  0.00    +0.000 A 
ATOM     16  C   UNL     1       1.932  14.453  20.597  0.00  0.00    +0.000 A 
ATOM     17  C   UNL     1       0.901  14.934  19.793  0.00  0.00    +0.000 A 
ATOM     18  C   UNL     1       0.411  14.148  18.740  0.00  0.00    +0.000 A 
ATOM     19  C   UNL     1       0.680  12.767  18.733  0.00  0.00    +0.000 A 
BRANCH  17  20
ATOM     20  N   UNL     1       0.139  16.111  20.254  0.00  0.00    +0.000 N 
ATOM     21  O   UNL     1      -0.502  16.745  19.400  0.00  0.00    +0.000 OA
ATOM     22  O   UNL     1       0.226  16.440  21.445  0.00  0.00    +0.000 OA
ENDBRANCH  17  20
ENDBRANCH   6  14
BRANCH   4  23
ATOM     23  O   UNL     1      -0.419  10.404  23.685  0.00  0.00    +0.000 OA
ATOM     24  H   UNL     1       0.546  10.469  23.817  0.00  0.00    +0.000 HD
ENDBRANCH   4  23
BRANCH   5  25
ATOM     25  C   UNL     1      -1.269  12.713  21.865  0.00  0.00    +0.000 C 
ATOM     26  O   UNL     1      -0.851  13.529  22.686  0.00  0.00    +0.000 OA
BRANCH  25  27
ATOM     27  C   UNL     1      -2.664  13.032  21.202  0.00  0.00    +0.000 C 
ATOM     28  C   UNL     1      -3.750  12.627  22.205  0.00  0.00    +0.000 C 
ATOM     29  C   UNL     1      -2.813  14.568  21.009  0.00  0.00    +0.000 C 
ATOM     30  C   UNL     1      -2.929  12.441  19.808  0.00  0.00    +0.000 C 
ENDBRANCH  25  27
ENDBRANCH   5  25
TORSDOF 6
ENDMDL
MODEL 3
REMARK VINA RESULT:      -6.5      4.057      9.396
REMARK  Name = 
REMARK  10 active torsions:
REMARK  status: ('A' for Active; 'I' for Inactive)
REMARK    1  A    between atoms: C_1  and  C_2
REMARK    2  A    between atoms: C_5  and  N_6
REMARK    3  A    between atoms: C_9  and  O_10
REMARK    4  A    between atoms: C_11  and  C_12
REMARK    5  A    between atoms: C_12  and  C_14
REMARK    6  A    between atoms: C_14  and  C_15
REMARK    7  A    between atoms: C_14  and  C_16
REMARK    8  A    between atoms: C_14  and  C_17
REMARK    9  A    between atoms: C_18  and  C_19
REMARK   10  A    between atoms: C_22  and  N_23
REMARK                            x       y       z     vdW  Elec       q    Type
REMARK                         _______ _______ _______ _____ _____    ______ ____
ROOT
ATOM      1  N   UNL     1       1.703   8.033  19.253  0.00  0.00    +0.000 N 
ATOM      2  C   UNL     1       2.357   8.627  18.144  0.00  0.00    +0.000 C 
ATOM      3  O   UNL     1       2.255   9.727  17.634  0.00  0.00    +0.000 OA
ATOM      4  C   UNL     1       3.347   7.657  17.614  0.00  0.00    +0.000 C 
ATOM      5  C   UNL     1       3.034   6.468  18.122  0.00  0.00    +0.000 C 
ATOM      6  C   UNL     1       2.417   6.792  19.493  0.00  0.00    +0.000 C 
ENDROOT
BRANCH   1  11
ATOM      7  C   UNL     1      -1.154  11.298  23.129  0.00  0.00    +0.000 C 
ATOM      8  C   UNL     1      -0.450  10.447  22.114  0.00  0.00    +0.000 A 
ATOM      9  C   UNL     1       0.437   9.463  22.521  0.00  0.00    +0.000 A 
ATOM     10  C   UNL     1       1.141   8.712  21.570  0.00  0.00    +0.000 A 
ATOM     11  C   UNL     1       0.981   8.879  20.176  0.00  0.00    +0.000 A 
ATOM     12  C   UNL     1       0.079   9.871  19.787  0.00  0.00    +0.000 A 
ATOM     13  C   UNL     1      -0.630  10.639  20.739  0.00  0.00    +0.000 A 
ENDBRANCH   1  11
BRANCH   6  14
ATOM     14  C   UNL     1       2.111   5.636  20.460  0.00  0.00    +0.000 A 
ATOM     15  C   UNL     1       3.234   4.826  20.754  0.00  0.00    +0.000 A 
ATOM     16  C   UNL     1       3.199   3.477  20.418  0.00  0.00    +0.000 A 
ATOM     17  C   UNL     1       1.991   2.936  19.982  0.00  0.00    +0.000 A 
ATOM     18  C   UNL     1       0.796   3.645  20.178  0.00  0.00    +0.000 A 
ATOM     19  C   UNL     1       0.854   5.023  20.456  0.00  0.00    +0.000 A 
BRANCH  17  20
ATOM     20  N   UNL     1       2.026   1.791  19.051  0.00  0.00    +0.000 N 
ATOM     21  O   UNL     1       3.139   1.311  18.780  0.00  0.00    +0.000 OA
ATOM     22  O   UNL     1       0.961   1.411  18.545  0.00  0.00    +0.000 OA
ENDBRANCH  17  20
ENDBRANCH   6  14
BRANCH   4  23
ATOM     23  O   UNL     1       4.659   8.049  17.428  0.00  0.00    +0.000 OA
ATOM     24  H   UNL     1       4.956   7.674  16.577  0.00  0.00    +0.000 HD
ENDBRANCH   4  23
BRANCH   5  25
ATOM     25  C   UNL     1       3.457   5.235  17.387  0.00  0.00    +0.000 C 
ATOM     26  O   UNL     1       2.606   4.404  17.073  0.00  0.00    +0.000 OA
BRANCH  25  27
ATOM     27  C   UNL     1       4.949   4.900  16.999  0.00  0.00    +0.000 C 
ATOM     28  C   UNL     1       5.812   5.156  18.240  0.00  0.00    +0.000 C 
ATOM     29  C   UNL     1       5.081   3.380  16.694  0.00  0.00    +0.000 C 
ATOM     30  C   UNL     1       5.523   5.594  15.754  0.00  0.00    +0.000 C 
ENDBRANCH  25  27
ENDBRANCH   5  25
TORSDOF 6
ENDMDL
MODEL 4
REMARK VINA RESULT:      -6.5      4.033      9.461
REMARK  Name = 
REMARK  10 active torsions:
REMARK  status: ('A' for Active; 'I' for Inactive)
REMARK    1  A    between atoms: C_1  and  C_2
REMARK    2  A    between atoms: C_5  and  N_6
REMARK    3  A    between atoms: C_9  and  O_10
REMARK    4  A    between atoms: C_11  and  C_12
REMARK    5  A    between atoms: C_12  and  C_14
REMARK    6  A    between atoms: C_14  and  C_15
REMARK    7  A    between atoms: C_14  and  C_16
REMARK    8  A    between atoms: C_14  and  C_17
REMARK    9  A    between atoms: C_18  and  C_19
REMARK   10  A    between atoms: C_22  and  N_23
REMARK                            x       y       z     vdW  Elec       q    Type
REMARK                         _______ _______ _______ _____ _____    ______ ____
ROOT
ATOM      1  N   UNL     1       1.757   7.968  19.294  0.00  0.00    +0.000 N 
ATOM      2  C   UNL     1       2.354   8.590  18.169  0.00  0.00    +0.000 C 
ATOM      3  O   UNL     1       2.203   9.691  17.672  0.00  0.00    +0.000 OA
ATOM      4  C   UNL     1       3.354   7.654  17.597  0.00  0.00    +0.000 C 
ATOM      5  C   UNL     1       3.095   6.453  18.104  0.00  0.00    +0.000 C 
ATOM      6  C   UNL     1       2.516   6.747  19.499  0.00  0.00    +0.000 C 
ENDROOT
BRANCH   1  11
ATOM      7  C   UNL     1      -1.170  11.393  22.975  0.00  0.00    +0.000 C 
ATOM      8  C   UNL     1      -0.384  10.521  22.043  0.00  0.00    +0.000 A 
ATOM      9  C   UNL     1      -0.550  10.634  20.671  0.00  0.00    +0.000 A 
ATOM     10  C   UNL     1       0.138   9.776  19.804  0.00  0.00    +0.000 A 
ATOM     11  C   UNL     1       1.043   8.785  20.248  0.00  0.00    +0.000 A 
ATOM     12  C   UNL     1       1.201   8.691  21.632  0.00  0.00    +0.000 A 
ATOM     13  C   UNL     1       0.505   9.548  22.516  0.00  0.00    +0.000 A 
ENDBRANCH   1  11
BRANCH   6  14
ATOM     14  C   UNL     1       2.276   5.576  20.465  0.00  0.00    +0.000 A 
ATOM     15  C   UNL     1       3.402   4.732  20.627  0.00  0.00    +0.000 A 
ATOM     16  C   UNL     1       3.298   3.392  20.266  0.00  0.00    +0.000 A 
ATOM     17  C   UNL     1       2.040   2.892  19.941  0.00  0.00    +0.000 A 
ATOM     18  C   UNL     1       0.889   3.623  20.272  0.00  0.00    +0.000 A 
ATOM     19  C   UNL     1       1.010   4.992  20.573  0.00  0.00    +0.000 A 
BRANCH  17  20
ATOM     20  N   UNL     1       1.952   1.770  18.986  0.00  0.00    +0.000 N 
ATOM     21  O   UNL     1       3.017   1.235  18.635  0.00  0.00    +0.000 OA
ATOM     22  O   UNL     1       0.838   1.462  18.539  0.00  0.00    +0.000 OA
ENDBRANCH  17  20
ENDBRANCH   6  14
BRANCH   4  23
ATOM     23  O   UNL     1       4.647   8.087  17.370  0.00  0.00    +0.000 OA
ATOM     24  H   UNL     1       5.028   8.329  18.236  0.00  0.00    +0.000 HD
ENDBRANCH   4  23
BRANCH   5  25
ATOM     25  C   UNL     1       3.528   5.239  17.344  0.00  0.00    +0.000 C 
ATOM     26  O   UNL     1       2.676   4.448  16.942  0.00  0.00    +0.000 OA
BRANCH  25  27
ATOM     27  C   UNL     1       5.031   4.873  17.037  0.00  0.00    +0.000 C 
ATOM     28  C   UNL     1       5.089   3.364  16.773  0.00  0.00    +0.000 C 
ATOM     29  C   UNL     1       5.476   5.556  15.713  0.00  0.00    +0.000 C 
ATOM     30  C   UNL     1       6.084   5.310  18.069  0.00  0.00    +0.000 C 
ENDBRANCH  25  27
ENDBRANCH   5  25
TORSDOF 6
ENDMDL
MODEL 5
REMARK VINA RESULT:      -6.3      4.060      6.447
REMARK  Name = 
REMARK  10 active torsions:
REMARK  status: ('A' for Active; 'I' for Inactive)
REMARK    1  A    between atoms: C_1  and  C_2
REMARK    2  A    between atoms: C_5  and  N_6
REMARK    3  A    between atoms: C_9  and  O_10
REMARK    4  A    between atoms: C_11  and  C_12
REMARK    5  A    between atoms: C_12  and  C_14
REMARK    6  A    between atoms: C_14  and  C_15
REMARK    7  A    between atoms: C_14  and  C_16
REMARK    8  A    between atoms: C_14  and  C_17
REMARK    9  A    between atoms: C_18  and  C_19
REMARK   10  A    between atoms: C_22  and  N_23
REMARK                            x       y       z     vdW  Elec       q    Type
REMARK                         _______ _______ _______ _____ _____    ______ ____
ROOT
ATOM      1  N   UNL     1      -3.052  11.750  19.352  0.00  0.00    +0.000 N 
ATOM      2  C   UNL     1      -1.761  11.945  19.903  0.00  0.00    +0.000 C 
ATOM      3  O   UNL     1      -0.659  11.568  19.547  0.00  0.00    +0.000 OA
ATOM      4  C   UNL     1      -1.893  12.811  21.101  0.00  0.00    +0.000 C 
ATOM      5  C   UNL     1      -3.178  12.808  21.442  0.00  0.00    +0.000 C 
ATOM      6  C   UNL     1      -3.923  12.633  20.108  0.00  0.00    +0.000 C 
ENDROOT
BRANCH   1  11
ATOM      7  C   UNL     1      -3.320   9.771  13.888  0.00  0.00    +0.000 C 
ATOM      8  C   UNL     1      -3.251  10.316  15.283  0.00  0.00    +0.000 A 
ATOM      9  C   UNL     1      -2.259   9.889  16.153  0.00  0.00    +0.000 A 
ATOM     10  C   UNL     1      -2.235  10.352  17.475  0.00  0.00    +0.000 A 
ATOM     11  C   UNL     1      -3.170  11.277  17.992  0.00  0.00    +0.000 A 
ATOM     12  C   UNL     1      -4.156  11.700  17.098  0.00  0.00    +0.000 A 
ATOM     13  C   UNL     1      -4.194  11.232  15.765  0.00  0.00    +0.000 A 
ENDBRANCH   1  11
BRANCH   6  14
ATOM     14  C   UNL     1      -5.454  12.779  20.089  0.00  0.00    +0.000 A 
ATOM     15  C   UNL     1      -5.922  13.956  20.723  0.00  0.00    +0.000 A 
ATOM     16  C   UNL     1      -6.761  13.838  21.827  0.00  0.00    +0.000 A 
ATOM     17  C   UNL     1      -7.259  12.577  22.146  0.00  0.00    +0.000 A 
ATOM     18  C   UNL     1      -7.176  11.535  21.211  0.00  0.00    +0.000 A 
ATOM     19  C   UNL     1      -6.275  11.648  20.136  0.00  0.00    +0.000 A 
BRANCH  17  20
ATOM     20  N   UNL     1      -7.575  12.280  23.557  0.00  0.00    +0.000 N 
ATOM     21  O   UNL     1      -7.540  11.090  23.911  0.00  0.00    +0.000 OA
ATOM     22  O   UNL     1      -7.915  13.216  24.293  0.00  0.00    +0.000 OA
ENDBRANCH  17  20
ENDBRANCH   6  14
BRANCH   4  23
ATOM     23  O   UNL     1      -1.109  13.943  21.218  0.00  0.00    +0.000 OA
ATOM     24  H   UNL     1      -1.687  14.714  21.057  0.00  0.00    +0.000 HD
ENDBRANCH   4  23
BRANCH   5  25
ATOM     25  C   UNL     1      -3.549  13.102  22.861  0.00  0.00    +0.000 C 
ATOM     26  O   UNL     1      -3.965  12.188  23.573  0.00  0.00    +0.000 OA
BRANCH  25  27
ATOM     27  C   UNL     1      -3.472  14.532  23.522  0.00  0.00    +0.000 C 
ATOM     28  C   UNL     1      -4.633  14.637  24.519  0.00  0.00    +0.000 C 
ATOM     29  C   UNL     1      -2.172  14.649  24.367  0.00  0.00    +0.000 C 
ATOM     30  C   UNL     1      -3.427  15.741  22.574  0.00  0.00    +0.000 C 
ENDBRANCH  25  27
ENDBRANCH   5  25
TORSDOF 6
ENDMDL
MODEL 6
REMARK VINA RESULT:      -6.2      4.027      6.162
REMARK  Name = 
REMARK  10 active torsions:
REMARK  status: ('A' for Active; 'I' for Inactive)
REMARK    1  A    between atoms: C_1  and  C_2
REMARK    2  A    between atoms: C_5  and  N_6
REMARK    3  A    between atoms: C_9  and  O_10
REMARK    4  A    between atoms: C_11  and  C_12
REMARK    5  A    between atoms: C_12  and  C_14
REMARK    6  A    between atoms: C_14  and  C_15
REMARK    7  A    between atoms: C_14  and  C_16
REMARK    8  A    between atoms: C_14  and  C_17
REMARK    9  A    between atoms: C_18  and  C_19
REMARK   10  A    between atoms: C_22  and  N_23
REMARK                            x       y       z     vdW  Elec       q    Type
REMARK                         _______ _______ _______ _____ _____    ______ ____
ROOT
ATOM      1  N   UNL     1      -5.222  12.028  19.637  0.00  0.00    +0.000 N 
ATOM      2  C   UNL     1      -6.593  11.752  19.872  0.00  0.00    +0.000 C 
ATOM      3  O   UNL     1      -7.470  11.314  19.151  0.00  0.00    +0.000 OA
ATOM      4  C   UNL     1      -6.889  12.051  21.296  0.00  0.00    +0.000 C 
ATOM      5  C   UNL     1      -5.886  12.794  21.752  0.00  0.00    +0.000 C 
ATOM      6  C   UNL     1      -4.665  12.319  20.946  0.00  0.00    +0.000 C 
ENDROOT
BRANCH   1  11
ATOM      7  C   UNL     1      -2.813   9.897  14.789  0.00  0.00    +0.000 C 
ATOM      8  C   UNL     1      -3.446  10.412  16.047  0.00  0.00    +0.000 A 
ATOM      9  C   UNL     1      -4.324  11.484  16.001  0.00  0.00    +0.000 A 
ATOM     10  C   UNL     1      -4.865  12.004  17.184  0.00  0.00    +0.000 A 
ATOM     11  C   UNL     1      -4.587  11.473  18.464  0.00  0.00    +0.000 A 
ATOM     12  C   UNL     1      -3.707  10.390  18.489  0.00  0.00    +0.000 A 
ATOM     13  C   UNL     1      -3.149   9.864  17.301  0.00  0.00    +0.000 A 
ENDBRANCH   1  11
BRANCH   6  14
ATOM     14  C   UNL     1      -3.270  12.828  21.344  0.00  0.00    +0.000 A 
ATOM     15  C   UNL     1      -2.471  13.223  20.243  0.00  0.00    +0.000 A 
ATOM     16  C   UNL     1      -1.270  12.562  20.009  0.00  0.00    +0.000 A 
ATOM     17  C   UNL     1      -0.809  11.669  20.974  0.00  0.00    +0.000 A 
ATOM     18  C   UNL     1      -1.368  11.680  22.261  0.00  0.00    +0.000 A 
ATOM     19  C   UNL     1      -2.615  12.301  22.462  0.00  0.00    +0.000 A 
BRANCH  17  20
ATOM     20  N   UNL     1       0.025  10.532  20.541  0.00  0.00    +0.000 N 
ATOM     21  O   UNL     1       0.975  10.209  21.273  0.00  0.00    +0.000 OA
ATOM     22  O   UNL     1      -0.224  10.001  19.450  0.00  0.00    +0.000 OA
ENDBRANCH  17  20
ENDBRANCH   6  14
BRANCH   4  23
ATOM     23  O   UNL     1      -7.508  11.097  22.081  0.00  0.00    +0.000 OA
ATOM     24  H   UNL     1      -7.134  10.230  21.835  0.00  0.00    +0.000 HD
ENDBRANCH   4  23
BRANCH   5  25
ATOM     25  C   UNL     1      -6.129  13.697  22.920  0.00  0.00    +0.000 C 
ATOM     26  O   UNL     1      -6.771  13.274  23.881  0.00  0.00    +0.000 OA
BRANCH  25  27
ATOM     27  C   UNL     1      -5.638  15.194  23.004  0.00  0.00    +0.000 C 
ATOM     28  C   UNL     1      -5.606  15.744  21.573  0.00  0.00    +0.000 C 
ATOM     29  C   UNL     1      -6.691  16.048  23.766  0.00  0.00    +0.000 C 
ATOM     30  C   UNL     1      -4.317  15.458  23.744  0.00  0.00    +0.000 C 
ENDBRANCH  25  27
ENDBRANCH   5  25
TORSDOF 6
ENDMDL
MODEL 7
REMARK VINA RESULT:      -6.2      4.206      6.324
REMARK  Name = 
REMARK  10 active torsions:
REMARK  status: ('A' for Active; 'I' for Inactive)
REMARK    1  A    between atoms: C_1  and  C_2
REMARK    2  A    between atoms: C_5  and  N_6
REMARK    3  A    between atoms: C_9  and  O_10
REMARK    4  A    between atoms: C_11  and  C_12
REMARK    5  A    between atoms: C_12  and  C_14
REMARK    6  A    between atoms: C_14  and  C_15
REMARK    7  A    between atoms: C_14  and  C_16
REMARK    8  A    between atoms: C_14  and  C_17
REMARK    9  A    between atoms: C_18  and  C_19
REMARK   10  A    between atoms: C_22  and  N_23
REMARK                            x       y       z     vdW  Elec       q    Type
REMARK                         _______ _______ _______ _____ _____    ______ ____
ROOT
ATOM      1  N   UNL     1      -5.342  12.073  19.745  0.00  0.00    +0.000 N 
ATOM      2  C   UNL     1      -6.695  11.738  20.003  0.00  0.00    +0.000 C 
ATOM      3  O   UNL     1      -7.557  11.240  19.303  0.00  0.00    +0.000 OA
ATOM      4  C   UNL     1      -6.991  12.062  21.421  0.00  0.00    +0.000 C 
ATOM      5  C   UNL     1      -6.020  12.865  21.846  0.00  0.00    +0.000 C 
ATOM      6  C   UNL     1      -4.786  12.426  21.039  0.00  0.00    +0.000 C 
ENDROOT
BRANCH   1  11
ATOM      7  C   UNL     1      -2.869   9.943  14.929  0.00  0.00    +0.000 C 
ATOM      8  C   UNL     1      -3.520  10.458  16.178  0.00  0.00    +0.000 A 
ATOM      9  C   UNL     1      -4.364  11.556  16.125  0.00  0.00    +0.000 A 
ATOM     10  C   UNL     1      -4.921  12.074  17.302  0.00  0.00    +0.000 A 
ATOM     11  C   UNL     1      -4.693  11.517  18.580  0.00  0.00    +0.000 A 
ATOM     12  C   UNL     1      -3.845  10.407  18.611  0.00  0.00    +0.000 A 
ATOM     13  C   UNL     1      -3.272   9.882  17.430  0.00  0.00    +0.000 A 
ENDBRANCH   1  11
BRANCH   6  14
ATOM     14  C   UNL     1      -3.413  13.012  21.408  0.00  0.00    +0.000 A 
ATOM     15  C   UNL     1      -2.453  12.910  20.371  0.00  0.00    +0.000 A 
ATOM     16  C   UNL     1      -1.293  12.176  20.597  0.00  0.00    +0.000 A 
ATOM     17  C   UNL     1      -1.034  11.731  21.891  0.00  0.00    +0.000 A 
ATOM     18  C   UNL     1      -1.746  12.272  22.972  0.00  0.00    +0.000 A 
ATOM     19  C   UNL     1      -2.950  12.958  22.726  0.00  0.00    +0.000 A 
BRANCH  17  20
ATOM     20  N   UNL     1      -0.252  10.492  22.068  0.00  0.00    +0.000 N 
ATOM     21  O   UNL     1      -0.091   9.772  21.069  0.00  0.00    +0.000 OA
ATOM     22  O   UNL     1       0.146  10.205  23.205  0.00  0.00    +0.000 OA
ENDBRANCH  17  20
ENDBRANCH   6  14
BRANCH   4  23
ATOM     23  O   UNL     1      -7.557  11.103  22.239  0.00  0.00    +0.000 OA
ATOM     24  H   UNL     1      -8.510  11.068  22.029  0.00  0.00    +0.000 HD
ENDBRANCH   4  23
BRANCH   5  25
ATOM     25  C   UNL     1      -6.296  13.787  22.991  0.00  0.00    +0.000 C 
ATOM     26  O   UNL     1      -6.552  13.310  24.096  0.00  0.00    +0.000 OA
BRANCH  25  27
ATOM     27  C   UNL     1      -6.309  15.360  22.882  0.00  0.00    +0.000 C 
ATOM     28  C   UNL     1      -5.094  15.882  23.659  0.00  0.00    +0.000 C 
ATOM     29  C   UNL     1      -6.083  15.784  21.402  0.00  0.00    +0.000 C 
ATOM     30  C   UNL     1      -7.602  16.081  23.296  0.00  0.00    +0.000 C 
ENDBRANCH  25  27
ENDBRANCH   5  25
TORSDOF 6
ENDMDL
MODEL 8
REMARK VINA RESULT:      -6.2      4.041      6.428
REMARK  Name = 
REMARK  10 active torsions:
REMARK  status: ('A' for Active; 'I' for Inactive)
REMARK    1  A    between atoms: C_1  and  C_2
REMARK    2  A    between atoms: C_5  and  N_6
REMARK    3  A    between atoms: C_9  and  O_10
REMARK    4  A    between atoms: C_11  and  C_12
REMARK    5  A    between atoms: C_12  and  C_14
REMARK    6  A    between atoms: C_14  and  C_15
REMARK    7  A    between atoms: C_14  and  C_16
REMARK    8  A    between atoms: C_14  and  C_17
REMARK    9  A    between atoms: C_18  and  C_19
REMARK   10  A    between atoms: C_22  and  N_23
REMARK                            x       y       z     vdW  Elec       q    Type
REMARK                         _______ _______ _______ _____ _____    ______ ____
ROOT
ATOM      1  N   UNL     1      -2.927  11.711  19.370  0.00  0.00    +0.000 N 
ATOM      2  C   UNL     1      -1.654  11.928  19.954  0.00  0.00    +0.000 C 
ATOM      3  O   UNL     1      -0.537  11.566  19.631  0.00  0.00    +0.000 OA
ATOM      4  C   UNL     1      -1.831  12.796  21.145  0.00  0.00    +0.000 C 
ATOM      5  C   UNL     1      -3.125  12.774  21.451  0.00  0.00    +0.000 C 
ATOM      6  C   UNL     1      -3.831  12.583  20.098  0.00  0.00    +0.000 C 
ENDROOT
BRANCH   1  11
ATOM      7  C   UNL     1      -3.422   9.860  13.876  0.00  0.00    +0.000 C 
ATOM      8  C   UNL     1      -3.296  10.302  15.304  0.00  0.00    +0.000 A 
ATOM      9  C   UNL     1      -4.171  11.242  15.826  0.00  0.00    +0.000 A 
ATOM     10  C   UNL     1      -4.011  11.700  17.140  0.00  0.00    +0.000 A 
ATOM     11  C   UNL     1      -2.999  11.231  18.009  0.00  0.00    +0.000 A 
ATOM     12  C   UNL     1      -2.133  10.280  17.467  0.00  0.00    +0.000 A 
ATOM     13  C   UNL     1      -2.280   9.818  16.139  0.00  0.00    +0.000 A 
ENDBRANCH   1  11
BRANCH   6  14
ATOM     14  C   UNL     1      -5.363  12.705  20.037  0.00  0.00    +0.000 A 
ATOM     15  C   UNL     1      -5.866  13.879  20.650  0.00  0.00    +0.000 A 
ATOM     16  C   UNL     1      -6.732  13.755  21.731  0.00  0.00    +0.000 A 
ATOM     17  C   UNL     1      -7.220  12.489  22.045  0.00  0.00    +0.000 A 
ATOM     18  C   UNL     1      -7.096  11.442  21.120  0.00  0.00    +0.000 A 
ATOM     19  C   UNL     1      -6.167  11.562  20.069  0.00  0.00    +0.000 A 
BRANCH  17  20
ATOM     20  N   UNL     1      -7.569  12.196  23.449  0.00  0.00    +0.000 N 
ATOM     21  O   UNL     1      -7.555  11.006  23.804  0.00  0.00    +0.000 OA
ATOM     22  O   UNL     1      -7.915  13.136  24.178  0.00  0.00    +0.000 OA
ENDBRANCH  17  20
ENDBRANCH   6  14
BRANCH   4  23
ATOM     23  O   UNL     1      -1.069  13.941  21.279  0.00  0.00    +0.000 OA
ATOM     24  H   UNL     1      -1.674  14.666  21.526  0.00  0.00    +0.000 HD
ENDBRANCH   4  23
BRANCH   5  25
ATOM     25  C   UNL     1      -3.540  13.067  22.859  0.00  0.00    +0.000 C 
ATOM     26  O   UNL     1      -4.060  12.176  23.528  0.00  0.00    +0.000 OA
BRANCH  25  27
ATOM     27  C   UNL     1      -3.383  14.473  23.557  0.00  0.00    +0.000 C 
ATOM     28  C   UNL     1      -3.507  15.541  22.464  0.00  0.00    +0.000 C 
ATOM     29  C   UNL     1      -4.575  14.713  24.526  0.00  0.00    +0.000 C 
ATOM     30  C   UNL     1      -2.132  14.690  24.423  0.00  0.00    +0.000 C 
ENDBRANCH  25  27
ENDBRANCH   5  25
TORSDOF 6
ENDMDL
MODEL 9
REMARK VINA RESULT:      -6.1      3.929      6.081
REMARK  Name = 
REMARK  10 active torsions:
REMARK  status: ('A' for Active; 'I' for Inactive)
REMARK    1  A    between atoms: C_1  and  C_2
REMARK    2  A    between atoms: C_5  and  N_6
REMARK    3  A    between atoms: C_9  and  O_10
REMARK    4  A    between atoms: C_11  and  C_12
REMARK    5  A    between atoms: C_12  and  C_14
REMARK    6  A    between atoms: C_14  and  C_15
REMARK    7  A    between atoms: C_14  and  C_16
REMARK    8  A    between atoms: C_14  and  C_17
REMARK    9  A    between atoms: C_18  and  C_19
REMARK   10  A    between atoms: C_22  and  N_23
REMARK                            x       y       z     vdW  Elec       q    Type
REMARK                         _______ _______ _______ _____ _____    ______ ____
ROOT
ATOM      1  N   UNL     1      -5.171  12.157  19.782  0.00  0.00    +0.000 N 
ATOM      2  C   UNL     1      -6.549  11.918  20.013  0.00  0.00    +0.000 C 
ATOM      3  O   UNL     1      -7.438  11.516  19.286  0.00  0.00    +0.000 OA
ATOM      4  C   UNL     1      -6.837  12.209  21.440  0.00  0.00    +0.000 C 
ATOM      5  C   UNL     1      -5.813  12.916  21.906  0.00  0.00    +0.000 C 
ATOM      6  C   UNL     1      -4.606  12.415  21.094  0.00  0.00    +0.000 C 
ENDROOT
BRANCH   1  11
ATOM      7  C   UNL     1      -2.841   9.987  14.912  0.00  0.00    +0.000 C 
ATOM      8  C   UNL     1      -3.450  10.511  16.178  0.00  0.00    +0.000 A 
ATOM      9  C   UNL     1      -4.429  11.492  16.130  0.00  0.00    +0.000 A 
ATOM     10  C   UNL     1      -4.950  12.026  17.316  0.00  0.00    +0.000 A 
ATOM     11  C   UNL     1      -4.552  11.597  18.602  0.00  0.00    +0.000 A 
ATOM     12  C   UNL     1      -3.570  10.604  18.629  0.00  0.00    +0.000 A 
ATOM     13  C   UNL     1      -3.032  10.065  17.438  0.00  0.00    +0.000 A 
ENDBRANCH   1  11
BRANCH   6  14
ATOM     14  C   UNL     1      -3.196  12.877  21.499  0.00  0.00    +0.000 A 
ATOM     15  C   UNL     1      -2.517  13.592  20.483  0.00  0.00    +0.000 A 
ATOM     16  C   UNL     1      -1.322  13.083  19.984  0.00  0.00    +0.000 A 
ATOM     17  C   UNL     1      -0.746  11.994  20.635  0.00  0.00    +0.000 A 
ATOM     18  C   UNL     1      -1.182  11.635  21.918  0.00  0.00    +0.000 A 
ATOM     19  C   UNL     1      -2.424  12.111  22.378  0.00  0.00    +0.000 A 
BRANCH  17  20
ATOM     20  N   UNL     1       0.081  11.059  19.846  0.00  0.00    +0.000 N 
ATOM     21  O   UNL     1       0.431  11.424  18.712  0.00  0.00    +0.000 OA
ATOM     22  O   UNL     1       0.328   9.945  20.327  0.00  0.00    +0.000 OA
ENDBRANCH  17  20
ENDBRANCH   6  14
BRANCH   4  23
ATOM     23  O   UNL     1      -7.485  11.265  22.214  0.00  0.00    +0.000 OA
ATOM     24  H   UNL     1      -7.656  11.671  23.085  0.00  0.00    +0.000 HD
ENDBRANCH   4  23
BRANCH   5  25
ATOM     25  C   UNL     1      -6.030  13.812  23.085  0.00  0.00    +0.000 C 
ATOM     26  O   UNL     1      -6.597  13.364  24.081  0.00  0.00    +0.000 OA
BRANCH  25  27
ATOM     27  C   UNL     1      -5.603  15.329  23.138  0.00  0.00    +0.000 C 
ATOM     28  C   UNL     1      -4.248  15.397  23.854  0.00  0.00    +0.000 C 
ATOM     29  C   UNL     1      -5.350  15.853  21.696  0.00  0.00    +0.000 C 
ATOM     30  C   UNL     1      -6.612  16.321  23.738  0.00  0.00    +0.000 C 
ENDBRANCH  25  27
ENDBRANCH   5  25
TORSDOF 6
ENDMDL
