MODEL 1
REMARK VINA RESULT:      -6.9      0.000      0.000
REMARK  Name = 
REMARK  7 active torsions:
REMARK  status: ('A' for Active; 'I' for Inactive)
REMARK    1  A    between atoms: C_1  and  C_2
REMARK    2  A    between atoms: C_2  and  C_3
REMARK    3  A    between atoms: C_2  and  C_4
REMARK    4  A    between atoms: C_4  and  O_5
REMARK    5  A    between atoms: O_5  and  C_6
REMARK    6  A    between atoms: C_9  and  N_10
REMARK    7  A    between atoms: C_11  and  C_13
REMARK                            x       y       z     vdW  Elec       q    Type
REMARK                         _______ _______ _______ _____ _____    ______ ____
ROOT
ATOM      1  C   UNL     1       3.383   4.938  19.653  0.00  0.00    +0.000 A 
ATOM      2  C   UNL     1       3.018   5.954  18.791  0.00  0.00    +0.000 A 
ATOM      3  C   UNL     1       3.645   6.032  17.546  0.00  0.00    +0.000 A 
ATOM      4  C   UNL     1       4.604   5.086  17.187  0.00  0.00    +0.000 A 
ATOM      5  C   UNL     1       4.877   4.089  18.123  0.00  0.00    +0.000 A 
ATOM      6  N   UNL     1       4.297   3.994  19.346  0.00  0.00    +0.000 NA
ENDROOT
BRANCH   4   7
ATOM      7  N   UNL     1       5.304   5.091  15.960  0.00  0.00    +0.000 N 
ATOM      8  C   UNL     1       6.647   4.815  15.769  0.00  0.00    +0.000 C 
ATOM      9  O   UNL     1       7.462   4.563  16.650  0.00  0.00    +0.000 OA
ATOM     10  H   UNL     1       4.773   5.301  15.118  0.00  0.00    +0.000 HD
BRANCH   8  11
ATOM     11  C   UNL     1       7.057   4.843  14.367  0.00  0.00    +0.000 A 
ATOM     12  C   UNL     1       6.507   4.027  13.389  0.00  0.00    +0.000 A 
ATOM     13  S   UNL     1       7.269   4.413  11.906  0.00  0.00    +0.000 S 
ATOM     14  N   UNL     1       8.244   5.581  12.604  0.00  0.00    +0.000 NA
ATOM     15  N   UNL     1       8.041   5.717  13.904  0.00  0.00    +0.000 NA
ENDBRANCH   8  11
ENDBRANCH   4   7
BRANCH   1  16
ATOM     16  O   UNL     1       2.730   4.895  20.869  0.00  0.00    +0.000 OA
BRANCH  16  17
ATOM     17  C   UNL     1       1.313   4.787  20.718  0.00  0.00    +0.000 C 
BRANCH  17  19
ATOM     18  C   UNL     1       0.823   2.734  19.365  0.00  0.00    +0.000 C 
ATOM     19  C   UNL     1       0.893   3.310  20.779  0.00  0.00    +0.000 C 
ATOM     20  C   UNL     1       1.833   2.472  21.647  0.00  0.00    +0.000 C 
ENDBRANCH  17  19
ENDBRANCH  16  17
ENDBRANCH   1  16
TORSDOF 5
ENDMDL
MODEL 2
REMARK VINA RESULT:      -6.7      0.659      1.113
REMARK  Name = 
REMARK  7 active torsions:
REMARK  status: ('A' for Active; 'I' for Inactive)
REMARK    1  A    between atoms: C_1  and  C_2
REMARK    2  A    between atoms: C_2  and  C_3
REMARK    3  A    between atoms: C_2  and  C_4
REMARK    4  A    between atoms: C_4  and  O_5
REMARK    5  A    between atoms: O_5  and  C_6
REMARK    6  A    between atoms: C_9  and  N_10
REMARK    7  A    between atoms: C_11  and  C_13
REMARK                            x       y       z     vdW  Elec       q    Type
REMARK                         _______ _______ _______ _____ _____    ______ ____
ROOT
ATOM      1  C   UNL     1       3.274   4.891  19.582  0.00  0.00    +0.000 A 
ATOM      2  C   UNL     1       4.051   3.779  19.320  0.00  0.00    +0.000 A 
ATOM      3  C   UNL     1       4.740   3.716  18.107  0.00  0.00    +0.000 A 
ATOM      4  C   UNL     1       4.653   4.770  17.199  0.00  0.00    +0.000 A 
ATOM      5  C   UNL     1       3.861   5.855  17.578  0.00  0.00    +0.000 A 
ATOM      6  N   UNL     1       3.167   5.940  18.741  0.00  0.00    +0.000 NA
ENDROOT
BRANCH   4   7
ATOM      7  N   UNL     1       5.298   4.793  15.943  0.00  0.00    +0.000 N 
ATOM      8  C   UNL     1       6.659   4.895  15.711  0.00  0.00    +0.000 C 
ATOM      9  O   UNL     1       7.527   5.028  16.567  0.00  0.00    +0.000 OA
ATOM     10  H   UNL     1       4.715   4.708  15.114  0.00  0.00    +0.000 HD
BRANCH   8  11
ATOM     11  C   UNL     1       7.018   4.829  14.296  0.00  0.00    +0.000 A 
ATOM     12  C   UNL     1       6.432   3.952  13.395  0.00  0.00    +0.000 A 
ATOM     13  S   UNL     1       7.141   4.235  11.864  0.00  0.00    +0.000 S 
ATOM     14  N   UNL     1       8.142   5.443  12.447  0.00  0.00    +0.000 NA
ATOM     15  N   UNL     1       7.987   5.665  13.742  0.00  0.00    +0.000 NA
ENDBRANCH   8  11
ENDBRANCH   4   7
BRANCH   1  16
ATOM     16  O   UNL     1       2.618   4.913  20.797  0.00  0.00    +0.000 OA
BRANCH  16  17
ATOM     17  C   UNL     1       1.204   4.770  20.650  0.00  0.00    +0.000 C 
BRANCH  17  19
ATOM     18  C   UNL     1       0.731   2.616  19.457  0.00  0.00    +0.000 C 
ATOM     19  C   UNL     1       0.807   3.295  20.824  0.00  0.00    +0.000 C 
ATOM     20  C   UNL     1       1.769   2.537  21.740  0.00  0.00    +0.000 C 
ENDBRANCH  17  19
ENDBRANCH  16  17
ENDBRANCH   1  16
TORSDOF 5
ENDMDL
MODEL 3
REMARK VINA RESULT:      -6.4      4.361      7.698
REMARK  Name = 
REMARK  7 active torsions:
REMARK  status: ('A' for Active; 'I' for Inactive)
REMARK    1  A    between atoms: C_1  and  C_2
REMARK    2  A    between atoms: C_2  and  C_3
REMARK    3  A    between atoms: C_2  and  C_4
REMARK    4  A    between atoms: C_4  and  O_5
REMARK    5  A    between atoms: O_5  and  C_6
REMARK    6  A    between atoms: C_9  and  N_10
REMARK    7  A    between atoms: C_11  and  C_13
REMARK                            x       y       z     vdW  Elec       q    Type
REMARK                         _______ _______ _______ _____ _____    ______ ____
ROOT
ATOM      1  C   UNL     1       5.052   4.549  16.084  0.00  0.00    +0.000 A 
ATOM      2  C   UNL     1       5.504   5.844  16.251  0.00  0.00    +0.000 A 
ATOM      3  C   UNL     1       4.811   6.686  17.122  0.00  0.00    +0.000 A 
ATOM      4  C   UNL     1       3.702   6.210  17.819  0.00  0.00    +0.000 A 
ATOM      5  C   UNL     1       3.349   4.879  17.595  0.00  0.00    +0.000 A 
ATOM      6  N   UNL     1       3.991   4.040  16.744  0.00  0.00    +0.000 NA
ENDROOT
BRANCH   4   7
ATOM      7  N   UNL     1       2.928   6.988  18.709  0.00  0.00    +0.000 N 
ATOM      8  C   UNL     1       2.250   8.159  18.415  0.00  0.00    +0.000 C 
ATOM      9  O   UNL     1       2.249   8.736  17.332  0.00  0.00    +0.000 OA
ATOM     10  H   UNL     1       2.838   6.656  19.666  0.00  0.00    +0.000 HD
BRANCH   8  11
ATOM     11  C   UNL     1       1.490   8.694  19.541  0.00  0.00    +0.000 A 
ATOM     12  C   UNL     1       1.453   8.101  20.794  0.00  0.00    +0.000 A 
ATOM     13  S   UNL     1       0.462   9.072  21.796  0.00  0.00    +0.000 S 
ATOM     14  N   UNL     1       0.146  10.173  20.575  0.00  0.00    +0.000 NA
ATOM     15  N   UNL     1       0.742   9.867  19.434  0.00  0.00    +0.000 NA
ENDBRANCH   8  11
ENDBRANCH   4   7
BRANCH   1  16
ATOM     16  O   UNL     1       5.773   3.750  15.219  0.00  0.00    +0.000 OA
BRANCH  16  17
ATOM     17  C   UNL     1       6.154   4.446  14.031  0.00  0.00    +0.000 C 
BRANCH  17  19
ATOM     18  C   UNL     1       4.771   3.462  12.186  0.00  0.00    +0.000 C 
ATOM     19  C   UNL     1       6.154   3.479  12.836  0.00  0.00    +0.000 C 
ATOM     20  C   UNL     1       7.222   3.833  11.800  0.00  0.00    +0.000 C 
ENDBRANCH  17  19
ENDBRANCH  16  17
ENDBRANCH   1  16
TORSDOF 5
ENDMDL
MODEL 4
REMARK VINA RESULT:      -6.3      2.680      3.500
REMARK  Name = 
REMARK  7 active torsions:
REMARK  status: ('A' for Active; 'I' for Inactive)
REMARK    1  A    between atoms: C_1  and  C_2
REMARK    2  A    between atoms: C_2  and  C_3
REMARK    3  A    between atoms: C_2  and  C_4
REMARK    4  A    between atoms: C_4  and  O_5
REMARK    5  A    between atoms: O_5  and  C_6
REMARK    6  A    between atoms: C_9  and  N_10
REMARK    7  A    between atoms: C_11  and  C_13
REMARK                            x       y       z     vdW  Elec       q    Type
REMARK                         _______ _______ _______ _____ _____    ______ ____
ROOT
ATOM      1  C   UNL     1       2.095   6.739  19.899  0.00  0.00    +0.000 A 
ATOM      2  C   UNL     1       2.473   5.415  19.788  0.00  0.00    +0.000 A 
ATOM      3  C   UNL     1       3.273   5.037  18.709  0.00  0.00    +0.000 A 
ATOM      4  C   UNL     1       3.693   5.990  17.783  0.00  0.00    +0.000 A 
ATOM      5  C   UNL     1       3.275   7.302  18.006  0.00  0.00    +0.000 A 
ATOM      6  N   UNL     1       2.485   7.700  19.036  0.00  0.00    +0.000 NA
ENDROOT
BRANCH   4   7
ATOM      7  N   UNL     1       4.490   5.703  16.652  0.00  0.00    +0.000 N 
ATOM      8  C   UNL     1       5.847   5.431  16.640  0.00  0.00    +0.000 C 
ATOM      9  O   UNL     1       6.591   5.438  17.616  0.00  0.00    +0.000 OA
ATOM     10  H   UNL     1       4.027   5.674  15.747  0.00  0.00    +0.000 HD
BRANCH   8  11
ATOM     11  C   UNL     1       6.369   5.113  15.313  0.00  0.00    +0.000 A 
ATOM     12  C   UNL     1       5.692   4.330  14.389  0.00  0.00    +0.000 A 
ATOM     13  S   UNL     1       6.661   4.240  12.981  0.00  0.00    +0.000 S 
ATOM     14  N   UNL     1       7.870   5.193  13.640  0.00  0.00    +0.000 NA
ATOM     15  N   UNL     1       7.602   5.591  14.872  0.00  0.00    +0.000 NA
ENDBRANCH   8  11
ENDBRANCH   4   7
BRANCH   1  16
ATOM     16  O   UNL     1       1.310   7.068  20.987  0.00  0.00    +0.000 OA
BRANCH  16  17
ATOM     17  C   UNL     1       1.338   8.469  21.269  0.00  0.00    +0.000 C 
BRANCH  17  19
ATOM     18  C   UNL     1      -0.290   9.577  22.822  0.00  0.00    +0.000 C 
ATOM     19  C   UNL     1      -0.098   8.999  21.420  0.00  0.00    +0.000 C 
ATOM     20  C   UNL     1      -0.446  10.047  20.362  0.00  0.00    +0.000 C 
ENDBRANCH  17  19
ENDBRANCH  16  17
ENDBRANCH   1  16
TORSDOF 5
ENDMDL
MODEL 5
REMARK VINA RESULT:      -6.2      5.013      8.123
REMARK  Name = 
REMARK  7 active torsions:
REMARK  status: ('A' for Active; 'I' for Inactive)
REMARK    1  A    between atoms: C_1  and  C_2
REMARK    2  A    between atoms: C_2  and  C_3
REMARK    3  A    between atoms: C_2  and  C_4
REMARK    4  A    between atoms: C_4  and  O_5
REMARK    5  A    between atoms: O_5  and  C_6
REMARK    6  A    between atoms: C_9  and  N_10
REMARK    7  A    between atoms: C_11  and  C_13
REMARK                            x       y       z     vdW  Elec       q    Type
REMARK                         _______ _______ _______ _____ _____    ______ ____
ROOT
ATOM      1  C   UNL     1       3.614   5.142  17.442  0.00  0.00    +0.000 A 
ATOM      2  C   UNL     1       3.925   6.487  17.368  0.00  0.00    +0.000 A 
ATOM      3  C   UNL     1       3.368   7.354  18.309  0.00  0.00    +0.000 A 
ATOM      4  C   UNL     1       2.533   6.857  19.309  0.00  0.00    +0.000 A 
ATOM      5  C   UNL     1       2.307   5.481  19.305  0.00  0.00    +0.000 A 
ATOM      6  N   UNL     1       2.821   4.613  18.397  0.00  0.00    +0.000 NA
ENDROOT
BRANCH   4   7
ATOM      7  N   UNL     1       1.910   7.656  20.294  0.00  0.00    +0.000 N 
ATOM      8  C   UNL     1       1.282   8.874  20.100  0.00  0.00    +0.000 C 
ATOM      9  O   UNL     1       1.202   9.481  19.036  0.00  0.00    +0.000 OA
ATOM     10  H   UNL     1       1.901   7.303  21.247  0.00  0.00    +0.000 HD
BRANCH   8  11
ATOM     11  C   UNL     1       0.681   9.423  21.313  0.00  0.00    +0.000 A 
ATOM     12  C   UNL     1      -0.455  10.219  21.315  0.00  0.00    +0.000 A 
ATOM     13  S   UNL     1      -0.806  10.613  22.943  0.00  0.00    +0.000 S 
ATOM     14  N   UNL     1       0.504   9.753  23.531  0.00  0.00    +0.000 NA
ATOM     15  N   UNL     1       1.212   9.170  22.577  0.00  0.00    +0.000 NA
ENDBRANCH   8  11
ENDBRANCH   4   7
BRANCH   1  16
ATOM     16  O   UNL     1       4.195   4.321  16.496  0.00  0.00    +0.000 OA
BRANCH  16  17
ATOM     17  C   UNL     1       5.493   3.873  16.893  0.00  0.00    +0.000 C 
BRANCH  17  19
ATOM     18  C   UNL     1       5.906   4.312  14.459  0.00  0.00    +0.000 C 
ATOM     19  C   UNL     1       6.536   4.307  15.852  0.00  0.00    +0.000 C 
ATOM     20  C   UNL     1       7.138   5.678  16.166  0.00  0.00    +0.000 C 
ENDBRANCH  17  19
ENDBRANCH  16  17
ENDBRANCH   1  16
TORSDOF 5
ENDMDL
MODEL 6
REMARK VINA RESULT:      -6.2      4.881      7.996
REMARK  Name = 
REMARK  7 active torsions:
REMARK  status: ('A' for Active; 'I' for Inactive)
REMARK    1  A    between atoms: C_1  and  C_2
REMARK    2  A    between atoms: C_2  and  C_3
REMARK    3  A    between atoms: C_2  and  C_4
REMARK    4  A    between atoms: C_4  and  O_5
REMARK    5  A    between atoms: O_5  and  C_6
REMARK    6  A    between atoms: C_9  and  N_10
REMARK    7  A    between atoms: C_11  and  C_13
REMARK                            x       y       z     vdW  Elec       q    Type
REMARK                         _______ _______ _______ _____ _____    ______ ____
ROOT
ATOM      1  C   UNL     1       3.621   4.463  17.716  0.00  0.00    +0.000 A 
ATOM      2  C   UNL     1       4.497   5.079  18.590  0.00  0.00    +0.000 A 
ATOM      3  C   UNL     1       3.987   5.995  19.511  0.00  0.00    +0.000 A 
ATOM      4  C   UNL     1       2.619   6.258  19.551  0.00  0.00    +0.000 A 
ATOM      5  C   UNL     1       1.823   5.561  18.641  0.00  0.00    +0.000 A 
ATOM      6  N   UNL     1       2.289   4.676  17.724  0.00  0.00    +0.000 NA
ENDROOT
BRANCH   4   7
ATOM      7  N   UNL     1       2.012   7.178  20.435  0.00  0.00    +0.000 N 
ATOM      8  C   UNL     1       1.531   8.438  20.121  0.00  0.00    +0.000 C 
ATOM      9  O   UNL     1       1.597   8.979  19.022  0.00  0.00    +0.000 OA
ATOM     10  H   UNL     1       1.894   6.890  21.403  0.00  0.00    +0.000 HD
BRANCH   8  11
ATOM     11  C   UNL     1       0.902   9.122  21.248  0.00  0.00    +0.000 A 
ATOM     12  C   UNL     1      -0.344   9.727  21.180  0.00  0.00    +0.000 A 
ATOM     13  S   UNL     1      -0.685  10.381  22.724  0.00  0.00    +0.000 S 
ATOM     14  N   UNL     1       0.768   9.857  23.370  0.00  0.00    +0.000 NA
ATOM     15  N   UNL     1       1.519   9.207  22.496  0.00  0.00    +0.000 NA
ENDBRANCH   8  11
ENDBRANCH   4   7
BRANCH   1  16
ATOM     16  O   UNL     1       4.169   3.559  16.828  0.00  0.00    +0.000 OA
BRANCH  16  17
ATOM     17  C   UNL     1       5.497   3.917  16.442  0.00  0.00    +0.000 C 
BRANCH  17  19
ATOM     18  C   UNL     1       5.420   6.182  15.369  0.00  0.00    +0.000 C 
ATOM     19  C   UNL     1       5.465   4.677  15.106  0.00  0.00    +0.000 C 
ATOM     20  C   UNL     1       6.654   4.331  14.209  0.00  0.00    +0.000 C 
ENDBRANCH  17  19
ENDBRANCH  16  17
ENDBRANCH   1  16
TORSDOF 5
ENDMDL
MODEL 7
REMARK VINA RESULT:      -6.1      3.748      7.493
REMARK  Name = 
REMARK  7 active torsions:
REMARK  status: ('A' for Active; 'I' for Inactive)
REMARK    1  A    between atoms: C_1  and  C_2
REMARK    2  A    between atoms: C_2  and  C_3
REMARK    3  A    between atoms: C_2  and  C_4
REMARK    4  A    between atoms: C_4  and  O_5
REMARK    5  A    between atoms: O_5  and  C_6
REMARK    6  A    between atoms: C_9  and  N_10
REMARK    7  A    between atoms: C_11  and  C_13
REMARK                            x       y       z     vdW  Elec       q    Type
REMARK                         _______ _______ _______ _____ _____    ______ ____
ROOT
ATOM      1  C   UNL     1       6.178   4.482  14.818  0.00  0.00    +0.000 A 
ATOM      2  C   UNL     1       5.694   3.760  15.892  0.00  0.00    +0.000 A 
ATOM      3  C   UNL     1       4.917   4.420  16.846  0.00  0.00    +0.000 A 
ATOM      4  C   UNL     1       4.627   5.775  16.693  0.00  0.00    +0.000 A 
ATOM      5  C   UNL     1       5.144   6.399  15.558  0.00  0.00    +0.000 A 
ATOM      6  N   UNL     1       5.915   5.790  14.622  0.00  0.00    +0.000 NA
ENDROOT
BRANCH   4   7
ATOM      7  N   UNL     1       3.864   6.532  17.609  0.00  0.00    +0.000 N 
ATOM      8  C   UNL     1       2.622   6.205  18.127  0.00  0.00    +0.000 C 
ATOM      9  O   UNL     1       1.960   5.214  17.836  0.00  0.00    +0.000 OA
ATOM     10  H   UNL     1       4.265   7.405  17.946  0.00  0.00    +0.000 HD
BRANCH   8  11
ATOM     11  C   UNL     1       2.121   7.170  19.103  0.00  0.00    +0.000 A 
ATOM     12  C   UNL     1       1.883   6.863  20.434  0.00  0.00    +0.000 A 
ATOM     13  S   UNL     1       1.326   8.288  21.201  0.00  0.00    +0.000 S 
ATOM     14  N   UNL     1       1.422   9.193  19.796  0.00  0.00    +0.000 NA
ATOM     15  N   UNL     1       1.853   8.494  18.758  0.00  0.00    +0.000 NA
ENDBRANCH   8  11
ENDBRANCH   4   7
BRANCH   1  16
ATOM     16  O   UNL     1       6.935   3.785  13.897  0.00  0.00    +0.000 OA
BRANCH  16  17
ATOM     17  C   UNL     1       6.456   3.960  12.562  0.00  0.00    +0.000 C 
BRANCH  17  19
ATOM     18  C   UNL     1       4.307   3.336  11.431  0.00  0.00    +0.000 C 
ATOM     19  C   UNL     1       5.522   2.798  12.186  0.00  0.00    +0.000 C 
ATOM     20  C   UNL     1       6.231   1.726  11.356  0.00  0.00    +0.000 C 
ENDBRANCH  17  19
ENDBRANCH  16  17
ENDBRANCH   1  16
TORSDOF 5
ENDMDL
MODEL 8
REMARK VINA RESULT:      -6.1      3.347      7.452
REMARK  Name = 
REMARK  7 active torsions:
REMARK  status: ('A' for Active; 'I' for Inactive)
REMARK    1  A    between atoms: C_1  and  C_2
REMARK    2  A    between atoms: C_2  and  C_3
REMARK    3  A    between atoms: C_2  and  C_4
REMARK    4  A    between atoms: C_4  and  O_5
REMARK    5  A    between atoms: O_5  and  C_6
REMARK    6  A    between atoms: C_9  and  N_10
REMARK    7  A    between atoms: C_11  and  C_13
REMARK                            x       y       z     vdW  Elec       q    Type
REMARK                         _______ _______ _______ _____ _____    ______ ____
ROOT
ATOM      1  C   UNL     1       6.636   4.848  14.517  0.00  0.00    +0.000 A 
ATOM      2  C   UNL     1       5.892   5.928  14.951  0.00  0.00    +0.000 A 
ATOM      3  C   UNL     1       4.990   5.740  15.999  0.00  0.00    +0.000 A 
ATOM      4  C   UNL     1       4.868   4.488  16.600  0.00  0.00    +0.000 A 
ATOM      5  C   UNL     1       5.687   3.475  16.100  0.00  0.00    +0.000 A 
ATOM      6  N   UNL     1       6.562   3.621  15.073  0.00  0.00    +0.000 NA
ENDROOT
BRANCH   4   7
ATOM      7  N   UNL     1       3.974   4.195  17.654  0.00  0.00    +0.000 N 
ATOM      8  C   UNL     1       4.300   3.966  18.979  0.00  0.00    +0.000 C 
ATOM      9  O   UNL     1       5.434   3.938  19.447  0.00  0.00    +0.000 OA
ATOM     10  H   UNL     1       2.982   4.163  17.432  0.00  0.00    +0.000 HD
BRANCH   8  11
ATOM     11  C   UNL     1       3.139   3.750  19.839  0.00  0.00    +0.000 A 
ATOM     12  C   UNL     1       3.028   2.690  20.728  0.00  0.00    +0.000 A 
ATOM     13  S   UNL     1       1.524   2.845  21.530  0.00  0.00    +0.000 S 
ATOM     14  N   UNL     1       1.117   4.238  20.695  0.00  0.00    +0.000 NA
ATOM     15  N   UNL     1       2.046   4.616  19.833  0.00  0.00    +0.000 NA
ENDBRANCH   8  11
ENDBRANCH   4   7
BRANCH   1  16
ATOM     16  O   UNL     1       7.521   5.083  13.483  0.00  0.00    +0.000 OA
BRANCH  16  17
ATOM     17  C   UNL     1       6.958   4.769  12.208  0.00  0.00    +0.000 C 
BRANCH  17  19
ATOM     18  C   UNL     1       4.917   3.371  11.800  0.00  0.00    +0.000 C 
ATOM     19  C   UNL     1       6.385   3.343  12.227  0.00  0.00    +0.000 C 
ATOM     20  C   UNL     1       7.178   2.384  11.338  0.00  0.00    +0.000 C 
ENDBRANCH  17  19
ENDBRANCH  16  17
ENDBRANCH   1  16
TORSDOF 5
ENDMDL
MODEL 9
REMARK VINA RESULT:      -6.1      3.766      4.589
REMARK  Name = 
REMARK  7 active torsions:
REMARK  status: ('A' for Active; 'I' for Inactive)
REMARK    1  A    between atoms: C_1  and  C_2
REMARK    2  A    between atoms: C_2  and  C_3
REMARK    3  A    between atoms: C_2  and  C_4
REMARK    4  A    between atoms: C_4  and  O_5
REMARK    5  A    between atoms: O_5  and  C_6
REMARK    6  A    between atoms: C_9  and  N_10
REMARK    7  A    between atoms: C_11  and  C_13
REMARK                            x       y       z     vdW  Elec       q    Type
REMARK                         _______ _______ _______ _____ _____    ______ ____
ROOT
ATOM      1  C   UNL     1       1.436   8.322  19.885  0.00  0.00    +0.000 A 
ATOM      2  C   UNL     1       1.982   7.120  20.294  0.00  0.00    +0.000 A 
ATOM      3  C   UNL     1       2.840   6.446  19.425  0.00  0.00    +0.000 A 
ATOM      4  C   UNL     1       3.148   6.995  18.181  0.00  0.00    +0.000 A 
ATOM      5  C   UNL     1       2.562   8.226  17.881  0.00  0.00    +0.000 A 
ATOM      6  N   UNL     1       1.712   8.899  18.697  0.00  0.00    +0.000 NA
ENDROOT
BRANCH   4   7
ATOM      7  N   UNL     1       3.992   6.383  17.228  0.00  0.00    +0.000 N 
ATOM      8  C   UNL     1       5.344   6.614  17.045  0.00  0.00    +0.000 C 
ATOM      9  O   UNL     1       6.024   7.430  17.660  0.00  0.00    +0.000 OA
ATOM     10  H   UNL     1       3.578   5.683  16.616  0.00  0.00    +0.000 HD
BRANCH   8  11
ATOM     11  C   UNL     1       5.948   5.775  16.014  0.00  0.00    +0.000 A 
ATOM     12  C   UNL     1       5.259   4.784  15.329  0.00  0.00    +0.000 A 
ATOM     13  S   UNL     1       6.347   4.077  14.213  0.00  0.00    +0.000 S 
ATOM     14  N   UNL     1       7.613   5.069  14.675  0.00  0.00    +0.000 NA
ATOM     15  N   UNL     1       7.281   5.921  15.632  0.00  0.00    +0.000 NA
ENDBRANCH   8  11
ENDBRANCH   4   7
BRANCH   1  16
ATOM     16  O   UNL     1       0.600   8.957  20.781  0.00  0.00    +0.000 OA
BRANCH  16  17
ATOM     17  C   UNL     1       0.793  10.373  20.791  0.00  0.00    +0.000 C 
BRANCH  17  19
ATOM     18  C   UNL     1      -1.234  11.757  21.306  0.00  0.00    +0.000 C 
ATOM     19  C   UNL     1      -0.048  11.007  21.911  0.00  0.00    +0.000 C 
ATOM     20  C   UNL     1      -0.537   9.974  22.928  0.00  0.00    +0.000 C 
ENDBRANCH  17  19
ENDBRANCH  16  17
ENDBRANCH   1  16
TORSDOF 5
ENDMDL
