MODEL 1
REMARK VINA RESULT:      -8.6      0.000      0.000
REMARK  Name = 
REMARK  5 active torsions:
REMARK  status: ('A' for Active; 'I' for Inactive)
REMARK    1  A    between atoms: C_1  and  C_2
REMARK    2  A    between atoms: C_5  and  C_6
REMARK    3  A    between atoms: C_8  and  N_9
REMARK    4  A    between atoms: C_14  and  C_15
REMARK    5  A    between atoms: C_30  and  C_31
REMARK                            x       y       z     vdW  Elec       q    Type
REMARK                         _______ _______ _______ _____ _____    ______ ____
ROOT
ATOM      1  N   UNL     1       0.644  10.570  19.400  0.00  0.00    +0.000 N 
ATOM      2  C   UNL     1       0.983  10.087  20.742  0.00  0.00    +0.000 C 
ATOM      3  C   UNL     1       1.117   8.567  20.835  0.00  0.00    +0.000 C 
ATOM      4  N   UNL     1       1.881   8.018  19.736  0.00  0.00    +0.000 N 
ATOM      5  C   UNL     1       2.514   6.816  19.680  0.00  0.00    +0.000 A 
ATOM      6  C   UNL     1       3.021   6.718  18.394  0.00  0.00    +0.000 A 
ATOM      7  N   UNL     1       2.702   7.875  17.688  0.00  0.00    +0.000 NA
ATOM      8  C   UNL     1       2.019   8.636  18.526  0.00  0.00    +0.000 A 
ATOM      9  C   UNL     1       1.405   9.982  18.273  0.00  0.00    +0.000 C 
ENDROOT
BRANCH   6  10
ATOM     10  C   UNL     1       3.691   5.526  17.845  0.00  0.00    +0.000 C 
ATOM     11  O   UNL     1       4.880   5.583  17.523  0.00  0.00    +0.000 OA
ATOM     12  N   UNL     1       2.978   4.342  17.713  0.00  0.00    +0.000 N 
ATOM     13  C   UNL     1       1.522   4.178  17.798  0.00  0.00    +0.000 C 
ATOM     14  C   UNL     1       1.178   3.098  18.828  0.00  0.00    +0.000 C 
ATOM     15  O   UNL     1       1.836   1.859  18.504  0.00  0.00    +0.000 OA
ATOM     16  C   UNL     1       3.265   2.031  18.472  0.00  0.00    +0.000 C 
ATOM     17  C   UNL     1       3.680   3.088  17.441  0.00  0.00    +0.000 C 
ENDBRANCH   6  10
BRANCH   1  20
ATOM     18  C   UNL     1      -2.724  12.057  19.853  0.00  0.00    +0.000 A 
ATOM     19  C   UNL     1      -1.432  11.551  20.097  0.00  0.00    +0.000 A 
ATOM     20  C   UNL     1      -0.691  10.866  19.130  0.00  0.00    +0.000 A 
ATOM     21  N   UNL     1      -1.249  10.516  17.961  0.00  0.00    +0.000 NA
ATOM     22  C   UNL     1      -2.530  10.916  17.747  0.00  0.00    +0.000 A 
ATOM     23  C   UNL     1      -3.293  11.687  18.625  0.00  0.00    +0.000 A 
ATOM     24 CL   UNL     1      -4.867  12.152  18.089  0.00  0.00    +0.000 Cl
BRANCH  18  29
ATOM     25  C   UNL     1      -5.550  15.199  23.780  0.00  0.00    +0.000 C 
ATOM     26  C   UNL     1      -4.775  14.414  22.771  0.00  0.00    +0.000 A 
ATOM     27  C   UNL     1      -5.096  13.114  22.431  0.00  0.00    +0.000 A 
ATOM     28  N   UNL     1      -4.409  12.374  21.528  0.00  0.00    +0.000 NA
ATOM     29  C   UNL     1      -3.371  12.942  20.859  0.00  0.00    +0.000 A 
ATOM     30  C   UNL     1      -2.982  14.268  21.135  0.00  0.00    +0.000 A 
ATOM     31  C   UNL     1      -1.838  15.003  20.491  0.00  0.00    +0.000 C 
ATOM     32  C   UNL     1      -3.683  14.980  22.124  0.00  0.00    +0.000 A 
ENDBRANCH  18  29
ENDBRANCH   1  20
TORSDOF 3
ENDMDL
MODEL 2
REMARK VINA RESULT:      -8.5      1.346      2.326
REMARK  Name = 
REMARK  5 active torsions:
REMARK  status: ('A' for Active; 'I' for Inactive)
REMARK    1  A    between atoms: C_1  and  C_2
REMARK    2  A    between atoms: C_5  and  C_6
REMARK    3  A    between atoms: C_8  and  N_9
REMARK    4  A    between atoms: C_14  and  C_15
REMARK    5  A    between atoms: C_30  and  C_31
REMARK                            x       y       z     vdW  Elec       q    Type
REMARK                         _______ _______ _______ _____ _____    ______ ____
ROOT
ATOM      1  N   UNL     1       0.727  10.443  19.455  0.00  0.00    +0.000 N 
ATOM      2  C   UNL     1       1.065   9.911  20.779  0.00  0.00    +0.000 C 
ATOM      3  C   UNL     1       1.166   8.386  20.824  0.00  0.00    +0.000 C 
ATOM      4  N   UNL     1       1.910   7.855  19.704  0.00  0.00    +0.000 N 
ATOM      5  C   UNL     1       2.515   6.641  19.605  0.00  0.00    +0.000 A 
ATOM      6  C   UNL     1       3.012   6.573  18.313  0.00  0.00    +0.000 A 
ATOM      7  N   UNL     1       2.713   7.757  17.646  0.00  0.00    +0.000 NA
ATOM      8  C   UNL     1       2.053   8.506  18.511  0.00  0.00    +0.000 A 
ATOM      9  C   UNL     1       1.467   9.873  18.305  0.00  0.00    +0.000 C 
ENDROOT
BRANCH   6  10
ATOM     10  C   UNL     1       3.651   5.383  17.722  0.00  0.00    +0.000 C 
ATOM     11  O   UNL     1       2.960   4.418  17.386  0.00  0.00    +0.000 OA
ATOM     12  N   UNL     1       5.025   5.370  17.532  0.00  0.00    +0.000 N 
ATOM     13  C   UNL     1       6.003   6.304  18.105  0.00  0.00    +0.000 C 
ATOM     14  C   UNL     1       6.863   6.907  16.991  0.00  0.00    +0.000 C 
ATOM     15  O   UNL     1       7.504   5.869  16.226  0.00  0.00    +0.000 OA
ATOM     16  C   UNL     1       6.528   4.992  15.634  0.00  0.00    +0.000 C 
ATOM     17  C   UNL     1       5.643   4.336  16.702  0.00  0.00    +0.000 C 
ENDBRANCH   6  10
BRANCH   1  20
ATOM     18  C   UNL     1      -2.582  12.048  19.940  0.00  0.00    +0.000 A 
ATOM     19  C   UNL     1      -1.302  11.505  20.171  0.00  0.00    +0.000 A 
ATOM     20  C   UNL     1      -0.603  10.776  19.205  0.00  0.00    +0.000 A 
ATOM     21  N   UNL     1      -1.196  10.419  18.055  0.00  0.00    +0.000 NA
ATOM     22  C   UNL     1      -2.466  10.856  17.857  0.00  0.00    +0.000 A 
ATOM     23  C   UNL     1      -3.186  11.670  18.732  0.00  0.00    +0.000 A 
ATOM     24 CL   UNL     1      -4.755  12.174  18.217  0.00  0.00    +0.000 Cl
BRANCH  18  29
ATOM     25  C   UNL     1      -5.214  15.354  23.867  0.00  0.00    +0.000 C 
ATOM     26  C   UNL     1      -4.488  14.527  22.854  0.00  0.00    +0.000 A 
ATOM     27  C   UNL     1      -4.823  13.213  22.587  0.00  0.00    +0.000 A 
ATOM     28  N   UNL     1      -4.181  12.436  21.683  0.00  0.00    +0.000 NA
ATOM     29  C   UNL     1      -3.179  12.975  20.939  0.00  0.00    +0.000 A 
ATOM     30  C   UNL     1      -2.780  14.311  21.138  0.00  0.00    +0.000 A 
ATOM     31  C   UNL     1      -1.671  15.019  20.407  0.00  0.00    +0.000 C 
ATOM     32  C   UNL     1      -3.432  15.064  22.130  0.00  0.00    +0.000 A 
ENDBRANCH  18  29
ENDBRANCH   1  20
TORSDOF 3
ENDMDL
MODEL 3
REMARK VINA RESULT:      -8.2      5.691      8.952
REMARK  Name = 
REMARK  5 active torsions:
REMARK  status: ('A' for Active; 'I' for Inactive)
REMARK    1  A    between atoms: C_1  and  C_2
REMARK    2  A    between atoms: C_5  and  C_6
REMARK    3  A    between atoms: C_8  and  N_9
REMARK    4  A    between atoms: C_14  and  C_15
REMARK    5  A    between atoms: C_30  and  C_31
REMARK                            x       y       z     vdW  Elec       q    Type
REMARK                         _______ _______ _______ _____ _____    ______ ____
ROOT
ATOM      1  N   UNL     1       1.221  14.511  19.966  0.00  0.00    +0.000 N 
ATOM      2  C   UNL     1       1.876  14.254  21.252  0.00  0.00    +0.000 C 
ATOM      3  C   UNL     1       3.375  13.975  21.137  0.00  0.00    +0.000 C 
ATOM      4  N   UNL     1       4.036  14.904  20.248  0.00  0.00    +0.000 N 
ATOM      5  C   UNL     1       5.361  15.206  20.193  0.00  0.00    +0.000 A 
ATOM      6  C   UNL     1       5.505  16.074  19.123  0.00  0.00    +0.000 A 
ATOM      7  N   UNL     1       4.258  16.300  18.548  0.00  0.00    +0.000 NA
ATOM      8  C   UNL     1       3.398  15.584  19.251  0.00  0.00    +0.000 A 
ATOM      9  C   UNL     1       1.918  15.438  19.043  0.00  0.00    +0.000 C 
ENDROOT
BRANCH   6  10
ATOM     10  C   UNL     1       6.796  16.576  18.618  0.00  0.00    +0.000 C 
ATOM     11  O   UNL     1       7.087  17.766  18.756  0.00  0.00    +0.000 OA
ATOM     12  N   UNL     1       7.680  15.697  18.009  0.00  0.00    +0.000 N 
ATOM     13  C   UNL     1       7.386  14.337  17.539  0.00  0.00    +0.000 C 
ATOM     14  C   UNL     1       8.388  13.349  18.143  0.00  0.00    +0.000 C 
ATOM     15  O   UNL     1       9.738  13.740  17.831  0.00  0.00    +0.000 OA
ATOM     16  C   UNL     1      10.021  15.056  18.341  0.00  0.00    +0.000 C 
ATOM     17  C   UNL     1       9.062  16.102  17.757  0.00  0.00    +0.000 C 
ENDBRANCH   6  10
BRANCH   1  20
ATOM     18  C   UNL     1       0.549  11.062  18.778  0.00  0.00    +0.000 A 
ATOM     19  C   UNL     1       1.201  12.235  19.210  0.00  0.00    +0.000 A 
ATOM     20  C   UNL     1       0.542  13.459  19.357  0.00  0.00    +0.000 A 
ATOM     21  N   UNL     1      -0.722  13.609  18.934  0.00  0.00    +0.000 NA
ATOM     22  C   UNL     1      -1.337  12.509  18.427  0.00  0.00    +0.000 A 
ATOM     23  C   UNL     1      -0.774  11.235  18.345  0.00  0.00    +0.000 A 
ATOM     24 CL   UNL     1      -1.788   9.971  17.748  0.00  0.00    +0.000 Cl
BRANCH  18  29
ATOM     25  C   UNL     1       3.391   6.047  18.571  0.00  0.00    +0.000 C 
ATOM     26  C   UNL     1       2.659   7.346  18.677  0.00  0.00    +0.000 A 
ATOM     27  C   UNL     1       2.615   8.264  17.645  0.00  0.00    +0.000 A 
ATOM     28  N   UNL     1       1.968   9.451  17.713  0.00  0.00    +0.000 NA
ATOM     29  C   UNL     1       1.264   9.759  18.834  0.00  0.00    +0.000 A 
ATOM     30  C   UNL     1       1.245   8.876  19.932  0.00  0.00    +0.000 A 
ATOM     31  C   UNL     1       0.533   9.106  21.237  0.00  0.00    +0.000 C 
ATOM     32  C   UNL     1       1.981   7.681  19.842  0.00  0.00    +0.000 A 
ENDBRANCH  18  29
ENDBRANCH   1  20
TORSDOF 3
ENDMDL
MODEL 4
REMARK VINA RESULT:      -8.2      4.201     10.423
REMARK  Name = 
REMARK  5 active torsions:
REMARK  status: ('A' for Active; 'I' for Inactive)
REMARK    1  A    between atoms: C_1  and  C_2
REMARK    2  A    between atoms: C_5  and  C_6
REMARK    3  A    between atoms: C_8  and  N_9
REMARK    4  A    between atoms: C_14  and  C_15
REMARK    5  A    between atoms: C_30  and  C_31
REMARK                            x       y       z     vdW  Elec       q    Type
REMARK                         _______ _______ _______ _____ _____    ______ ____
ROOT
ATOM      1  N   UNL     1       1.046  10.131  18.670  0.00  0.00    +0.000 N 
ATOM      2  C   UNL     1      -0.115  10.239  17.782  0.00  0.00    +0.000 C 
ATOM      3  C   UNL     1      -1.380  10.739  18.480  0.00  0.00    +0.000 C 
ATOM      4  N   UNL     1      -1.118  11.869  19.343  0.00  0.00    +0.000 N 
ATOM      5  C   UNL     1      -2.006  12.787  19.808  0.00  0.00    +0.000 A 
ATOM      6  C   UNL     1      -1.288  13.607  20.663  0.00  0.00    +0.000 A 
ATOM      7  N   UNL     1       0.038  13.182  20.696  0.00  0.00    +0.000 NA
ATOM      8  C   UNL     1       0.105  12.137  19.889  0.00  0.00    +0.000 A 
ATOM      9  C   UNL     1       1.294  11.276  19.578  0.00  0.00    +0.000 C 
ENDROOT
BRANCH   6  10
ATOM     10  C   UNL     1      -1.874  14.680  21.486  0.00  0.00    +0.000 C 
ATOM     11  O   UNL     1      -1.867  15.842  21.074  0.00  0.00    +0.000 OA
ATOM     12  N   UNL     1      -2.445  14.366  22.711  0.00  0.00    +0.000 N 
ATOM     13  C   UNL     1      -2.304  13.106  23.452  0.00  0.00    +0.000 C 
ATOM     14  C   UNL     1      -3.688  12.546  23.795  0.00  0.00    +0.000 C 
ATOM     15  O   UNL     1      -4.459  13.514  24.532  0.00  0.00    +0.000 OA
ATOM     16  C   UNL     1      -4.626  14.723  23.770  0.00  0.00    +0.000 C 
ATOM     17  C   UNL     1      -3.272  15.350  23.410  0.00  0.00    +0.000 C 
ENDBRANCH   6  10
BRANCH   1  20
ATOM     18  C   UNL     1       2.537   6.739  18.857  0.00  0.00    +0.000 A 
ATOM     19  C   UNL     1       2.019   7.957  18.374  0.00  0.00    +0.000 A 
ATOM     20  C   UNL     1       1.355   8.876  19.192  0.00  0.00    +0.000 A 
ATOM     21  N   UNL     1       1.038   8.561  20.457  0.00  0.00    +0.000 NA
ATOM     22  C   UNL     1       1.449   7.349  20.911  0.00  0.00    +0.000 A 
ATOM     23  C   UNL     1       2.201   6.426  20.183  0.00  0.00    +0.000 A 
ATOM     24 CL   UNL     1       2.687   4.990  21.008  0.00  0.00    +0.000 Cl
BRANCH  18  29
ATOM     25  C   UNL     1       6.126   3.853  15.383  0.00  0.00    +0.000 C 
ATOM     26  C   UNL     1       5.176   4.555  16.300  0.00  0.00    +0.000 A 
ATOM     27  C   UNL     1       5.422   5.817  16.804  0.00  0.00    +0.000 A 
ATOM     28  N   UNL     1       4.586   6.476  17.642  0.00  0.00    +0.000 NA
ATOM     29  C   UNL     1       3.399   5.905  17.977  0.00  0.00    +0.000 A 
ATOM     30  C   UNL     1       3.061   4.624  17.498  0.00  0.00    +0.000 A 
ATOM     31  C   UNL     1       1.799   3.869  17.814  0.00  0.00    +0.000 C 
ATOM     32  C   UNL     1       3.985   3.949  16.680  0.00  0.00    +0.000 A 
ENDBRANCH  18  29
ENDBRANCH   1  20
TORSDOF 3
ENDMDL
MODEL 5
REMARK VINA RESULT:      -8.2      0.953      1.451
REMARK  Name = 
REMARK  5 active torsions:
REMARK  status: ('A' for Active; 'I' for Inactive)
REMARK    1  A    between atoms: C_1  and  C_2
REMARK    2  A    between atoms: C_5  and  C_6
REMARK    3  A    between atoms: C_8  and  N_9
REMARK    4  A    between atoms: C_14  and  C_15
REMARK    5  A    between atoms: C_30  and  C_31
REMARK                            x       y       z     vdW  Elec       q    Type
REMARK                         _______ _______ _______ _____ _____    ______ ____
ROOT
ATOM      1  N   UNL     1       0.279  10.681  19.205  0.00  0.00    +0.000 N 
ATOM      2  C   UNL     1       0.480  10.247  20.590  0.00  0.00    +0.000 C 
ATOM      3  C   UNL     1       0.679   8.739  20.741  0.00  0.00    +0.000 C 
ATOM      4  N   UNL     1       1.596   8.208  19.757  0.00  0.00    +0.000 N 
ATOM      5  C   UNL     1       2.291   7.040  19.809  0.00  0.00    +0.000 A 
ATOM      6  C   UNL     1       2.952   6.941  18.595  0.00  0.00    +0.000 A 
ATOM      7  N   UNL     1       2.660   8.063  17.824  0.00  0.00    +0.000 NA
ATOM      8  C   UNL     1       1.845   8.804  18.553  0.00  0.00    +0.000 A 
ATOM      9  C   UNL     1       1.198  10.110  18.192  0.00  0.00    +0.000 C 
ENDROOT
BRANCH   6  10
ATOM     10  C   UNL     1       3.742   5.774  18.162  0.00  0.00    +0.000 C 
ATOM     11  O   UNL     1       4.969   5.861  18.077  0.00  0.00    +0.000 OA
ATOM     12  N   UNL     1       3.094   4.581  17.873  0.00  0.00    +0.000 N 
ATOM     13  C   UNL     1       1.653   4.387  17.672  0.00  0.00    +0.000 C 
ATOM     14  C   UNL     1       1.142   3.278  18.596  0.00  0.00    +0.000 C 
ATOM     15  O   UNL     1       1.878   2.059  18.381  0.00  0.00    +0.000 OA
ATOM     16  C   UNL     1       3.282   2.258  18.629  0.00  0.00    +0.000 C 
ATOM     17  C   UNL     1       3.864   3.347  17.717  0.00  0.00    +0.000 C 
ENDBRANCH   6  10
BRANCH   1  20
ATOM     18  C   UNL     1      -3.194  11.984  19.223  0.00  0.00    +0.000 A 
ATOM     19  C   UNL     1      -1.915  11.553  19.630  0.00  0.00    +0.000 A 
ATOM     20  C   UNL     1      -1.027  10.899  18.771  0.00  0.00    +0.000 A 
ATOM     21  N   UNL     1      -1.422  10.504  17.551  0.00  0.00    +0.000 NA
ATOM     22  C   UNL     1      -2.686  10.829  17.178  0.00  0.00    +0.000 A 
ATOM     23  C   UNL     1      -3.590  11.567  17.943  0.00  0.00    +0.000 A 
ATOM     24 CL   UNL     1      -5.111  11.937  17.214  0.00  0.00    +0.000 Cl
BRANCH  18  29
ATOM     25  C   UNL     1      -5.978  15.547  22.805  0.00  0.00    +0.000 C 
ATOM     26  C   UNL     1      -5.303  14.606  21.860  0.00  0.00    +0.000 A 
ATOM     27  C   UNL     1      -4.024  14.820  21.381  0.00  0.00    +0.000 A 
ATOM     28  N   UNL     1      -3.389  13.991  20.518  0.00  0.00    +0.000 NA
ATOM     29  C   UNL     1      -4.004  12.844  20.128  0.00  0.00    +0.000 A 
ATOM     30  C   UNL     1      -5.305  12.541  20.577  0.00  0.00    +0.000 A 
ATOM     31  C   UNL     1      -6.107  11.324  20.200  0.00  0.00    +0.000 C 
ATOM     32  C   UNL     1      -5.952  13.458  21.423  0.00  0.00    +0.000 A 
ENDBRANCH  18  29
ENDBRANCH   1  20
TORSDOF 3
ENDMDL
MODEL 6
REMARK VINA RESULT:      -8.2      4.747     10.500
REMARK  Name = 
REMARK  5 active torsions:
REMARK  status: ('A' for Active; 'I' for Inactive)
REMARK    1  A    between atoms: C_1  and  C_2
REMARK    2  A    between atoms: C_5  and  C_6
REMARK    3  A    between atoms: C_8  and  N_9
REMARK    4  A    between atoms: C_14  and  C_15
REMARK    5  A    between atoms: C_30  and  C_31
REMARK                            x       y       z     vdW  Elec       q    Type
REMARK                         _______ _______ _______ _____ _____    ______ ____
ROOT
ATOM      1  N   UNL     1       1.077  10.313  18.385  0.00  0.00    +0.000 N 
ATOM      2  C   UNL     1      -0.299  10.814  18.435  0.00  0.00    +0.000 C 
ATOM      3  C   UNL     1      -0.550  11.816  19.562  0.00  0.00    +0.000 C 
ATOM      4  N   UNL     1       0.502  12.803  19.659  0.00  0.00    +0.000 N 
ATOM      5  C   UNL     1       0.447  14.026  20.253  0.00  0.00    +0.000 A 
ATOM      6  C   UNL     1       1.727  14.547  20.159  0.00  0.00    +0.000 A 
ATOM      7  N   UNL     1       2.544  13.636  19.495  0.00  0.00    +0.000 NA
ATOM      8  C   UNL     1       1.775  12.601  19.206  0.00  0.00    +0.000 A 
ATOM      9  C   UNL     1       2.154  11.322  18.518  0.00  0.00    +0.000 C 
ENDROOT
BRANCH   6  10
ATOM     10  C   UNL     1       2.164  15.815  20.772  0.00  0.00    +0.000 C 
ATOM     11  O   UNL     1       1.794  16.104  21.913  0.00  0.00    +0.000 OA
ATOM     12  N   UNL     1       3.004  16.662  20.064  0.00  0.00    +0.000 N 
ATOM     13  C   UNL     1       3.316  16.596  18.631  0.00  0.00    +0.000 C 
ATOM     14  C   UNL     1       4.834  16.559  18.429  0.00  0.00    +0.000 C 
ATOM     15  O   UNL     1       5.458  17.694  19.059  0.00  0.00    +0.000 OA
ATOM     16  C   UNL     1       5.179  17.714  20.471  0.00  0.00    +0.000 C 
ATOM     17  C   UNL     1       3.670  17.773  20.743  0.00  0.00    +0.000 C 
ENDBRANCH   6  10
BRANCH   1  20
ATOM     18  C   UNL     1       2.483   6.900  18.749  0.00  0.00    +0.000 A 
ATOM     19  C   UNL     1       2.006   8.108  18.203  0.00  0.00    +0.000 A 
ATOM     20  C   UNL     1       1.343   9.074  18.965  0.00  0.00    +0.000 A 
ATOM     21  N   UNL     1       0.985   8.818  20.233  0.00  0.00    +0.000 NA
ATOM     22  C   UNL     1       1.357   7.617  20.747  0.00  0.00    +0.000 A 
ATOM     23  C   UNL     1       2.106   6.649  20.077  0.00  0.00    +0.000 A 
ATOM     24 CL   UNL     1       2.537   5.237  20.973  0.00  0.00    +0.000 Cl
BRANCH  18  29
ATOM     25  C   UNL     1       6.091   3.796  15.488  0.00  0.00    +0.000 C 
ATOM     26  C   UNL     1       5.135   4.555  16.351  0.00  0.00    +0.000 A 
ATOM     27  C   UNL     1       5.392   5.837  16.800  0.00  0.00    +0.000 A 
ATOM     28  N   UNL     1       4.551   6.548  17.588  0.00  0.00    +0.000 NA
ATOM     29  C   UNL     1       3.349   6.011  17.927  0.00  0.00    +0.000 A 
ATOM     30  C   UNL     1       2.999   4.714  17.503  0.00  0.00    +0.000 A 
ATOM     31  C   UNL     1       1.719   3.994  17.830  0.00  0.00    +0.000 C 
ATOM     32  C   UNL     1       3.928   3.987  16.737  0.00  0.00    +0.000 A 
ENDBRANCH  18  29
ENDBRANCH   1  20
TORSDOF 3
ENDMDL
MODEL 7
REMARK VINA RESULT:      -8.1      4.430     10.734
REMARK  Name = 
REMARK  5 active torsions:
REMARK  status: ('A' for Active; 'I' for Inactive)
REMARK    1  A    between atoms: C_1  and  C_2
REMARK    2  A    between atoms: C_5  and  C_6
REMARK    3  A    between atoms: C_8  and  N_9
REMARK    4  A    between atoms: C_14  and  C_15
REMARK    5  A    between atoms: C_30  and  C_31
REMARK                            x       y       z     vdW  Elec       q    Type
REMARK                         _______ _______ _______ _____ _____    ______ ____
ROOT
ATOM      1  N   UNL     1       1.500   9.425  19.955  0.00  0.00    +0.000 N 
ATOM      2  C   UNL     1       0.686   9.958  18.859  0.00  0.00    +0.000 C 
ATOM      3  C   UNL     1      -0.775  10.203  19.238  0.00  0.00    +0.000 C 
ATOM      4  N   UNL     1      -0.904  10.862  20.519  0.00  0.00    +0.000 N 
ATOM      5  C   UNL     1      -1.969  11.561  20.994  0.00  0.00    +0.000 A 
ATOM      6  C   UNL     1      -1.640  11.912  22.293  0.00  0.00    +0.000 A 
ATOM      7  N   UNL     1      -0.366  11.431  22.587  0.00  0.00    +0.000 NA
ATOM      8  C   UNL     1       0.048  10.808  21.498  0.00  0.00    +0.000 A 
ATOM      9  C   UNL     1       1.341  10.080  21.276  0.00  0.00    +0.000 C 
ENDROOT
BRANCH   6  10
ATOM     10  C   UNL     1      -2.549  12.586  23.237  0.00  0.00    +0.000 C 
ATOM     11  O   UNL     1      -3.433  11.941  23.805  0.00  0.00    +0.000 OA
ATOM     12  N   UNL     1      -2.388  13.941  23.490  0.00  0.00    +0.000 N 
ATOM     13  C   UNL     1      -1.577  14.891  22.718  0.00  0.00    +0.000 C 
ATOM     14  C   UNL     1      -0.608  15.626  23.649  0.00  0.00    +0.000 C 
ATOM     15  O   UNL     1      -1.323  16.279  24.714  0.00  0.00    +0.000 OA
ATOM     16  C   UNL     1      -2.074  15.325  25.487  0.00  0.00    +0.000 C 
ATOM     17  C   UNL     1      -3.083  14.566  24.615  0.00  0.00    +0.000 C 
ENDBRANCH   6  10
BRANCH   1  20
ATOM     18  C   UNL     1       2.933   6.134  19.020  0.00  0.00    +0.000 A 
ATOM     19  C   UNL     1       2.493   7.473  18.977  0.00  0.00    +0.000 A 
ATOM     20  C   UNL     1       1.726   8.051  19.993  0.00  0.00    +0.000 A 
ATOM     21  N   UNL     1       1.233   7.300  20.989  0.00  0.00    +0.000 NA
ATOM     22  C   UNL     1       1.571   5.984  20.994  0.00  0.00    +0.000 A 
ATOM     23  C   UNL     1       2.413   5.364  20.070  0.00  0.00    +0.000 A 
ATOM     24 CL   UNL     1       2.771   3.696  20.339  0.00  0.00    +0.000 Cl
BRANCH  18  29
ATOM     25  C   UNL     1       6.926   4.606  15.147  0.00  0.00    +0.000 C 
ATOM     26  C   UNL     1       5.874   4.952  16.151  0.00  0.00    +0.000 A 
ATOM     27  C   UNL     1       5.993   6.022  17.018  0.00  0.00    +0.000 A 
ATOM     28  N   UNL     1       5.063   6.356  17.943  0.00  0.00    +0.000 NA
ATOM     29  C   UNL     1       3.905   5.646  18.005  0.00  0.00    +0.000 A 
ATOM     30  C   UNL     1       3.694   4.546  17.151  0.00  0.00    +0.000 A 
ATOM     31  C   UNL     1       2.477   3.661  17.136  0.00  0.00    +0.000 C 
ATOM     32  C   UNL     1       4.713   4.195  16.247  0.00  0.00    +0.000 A 
ENDBRANCH  18  29
ENDBRANCH   1  20
TORSDOF 3
ENDMDL
MODEL 8
REMARK VINA RESULT:      -8.1      4.925     10.289
REMARK  Name = 
REMARK  5 active torsions:
REMARK  status: ('A' for Active; 'I' for Inactive)
REMARK    1  A    between atoms: C_1  and  C_2
REMARK    2  A    between atoms: C_5  and  C_6
REMARK    3  A    between atoms: C_8  and  N_9
REMARK    4  A    between atoms: C_14  and  C_15
REMARK    5  A    between atoms: C_30  and  C_31
REMARK                            x       y       z     vdW  Elec       q    Type
REMARK                         _______ _______ _______ _____ _____    ______ ____
ROOT
ATOM      1  N   UNL     1       1.099  10.543  18.273  0.00  0.00    +0.000 N 
ATOM      2  C   UNL     1      -0.098  11.284  18.678  0.00  0.00    +0.000 C 
ATOM      3  C   UNL     1       0.177  12.397  19.690  0.00  0.00    +0.000 C 
ATOM      4  N   UNL     1       1.337  13.184  19.332  0.00  0.00    +0.000 N 
ATOM      5  C   UNL     1       1.655  14.438  19.752  0.00  0.00    +0.000 A 
ATOM      6  C   UNL     1       2.897  14.714  19.206  0.00  0.00    +0.000 A 
ATOM      7  N   UNL     1       3.314  13.624  18.445  0.00  0.00    +0.000 NA
ATOM      8  C   UNL     1       2.351  12.724  18.541  0.00  0.00    +0.000 A 
ATOM      9  C   UNL     1       2.296  11.350  17.940  0.00  0.00    +0.000 C 
ENDROOT
BRANCH   6  10
ATOM     10  C   UNL     1       3.688  15.926  19.488  0.00  0.00    +0.000 C 
ATOM     11  O   UNL     1       3.614  16.897  18.731  0.00  0.00    +0.000 OA
ATOM     12  N   UNL     1       4.495  15.967  20.616  0.00  0.00    +0.000 N 
ATOM     13  C   UNL     1       4.893  14.831  21.456  0.00  0.00    +0.000 C 
ATOM     14  C   UNL     1       4.549  15.120  22.921  0.00  0.00    +0.000 C 
ATOM     15  O   UNL     1       5.167  16.345  23.355  0.00  0.00    +0.000 OA
ATOM     16  C   UNL     1       4.729  17.454  22.549  0.00  0.00    +0.000 C 
ATOM     17  C   UNL     1       5.063  17.237  21.067  0.00  0.00    +0.000 C 
ENDBRANCH   6  10
BRANCH   1  20
ATOM     18  C   UNL     1       2.466   7.128  18.755  0.00  0.00    +0.000 A 
ATOM     19  C   UNL     1       1.998   8.321  18.168  0.00  0.00    +0.000 A 
ATOM     20  C   UNL     1       1.355   9.324  18.898  0.00  0.00    +0.000 A 
ATOM     21  N   UNL     1       1.007   9.121  20.178  0.00  0.00    +0.000 NA
ATOM     22  C   UNL     1       1.369   7.936  20.734  0.00  0.00    +0.000 A 
ATOM     23  C   UNL     1       2.099   6.933  20.094  0.00  0.00    +0.000 A 
ATOM     24 CL   UNL     1       2.521   5.551  21.039  0.00  0.00    +0.000 Cl
BRANCH  18  29
ATOM     25  C   UNL     1       6.007   3.853  15.590  0.00  0.00    +0.000 C 
ATOM     26  C   UNL     1       5.067   4.658  16.429  0.00  0.00    +0.000 A 
ATOM     27  C   UNL     1       5.356   5.942  16.850  0.00  0.00    +0.000 A 
ATOM     28  N   UNL     1       4.530   6.693  17.616  0.00  0.00    +0.000 NA
ATOM     29  C   UNL     1       3.311   6.198  17.959  0.00  0.00    +0.000 A 
ATOM     30  C   UNL     1       2.929   4.901  17.563  0.00  0.00    +0.000 A 
ATOM     31  C   UNL     1       1.628   4.223  17.898  0.00  0.00    +0.000 C 
ATOM     32  C   UNL     1       3.842   4.131  16.820  0.00  0.00    +0.000 A 
ENDBRANCH  18  29
ENDBRANCH   1  20
TORSDOF 3
ENDMDL
MODEL 9
REMARK VINA RESULT:      -8.1      4.205     10.679
REMARK  Name = 
REMARK  5 active torsions:
REMARK  status: ('A' for Active; 'I' for Inactive)
REMARK    1  A    between atoms: C_1  and  C_2
REMARK    2  A    between atoms: C_5  and  C_6
REMARK    3  A    between atoms: C_8  and  N_9
REMARK    4  A    between atoms: C_14  and  C_15
REMARK    5  A    between atoms: C_30  and  C_31
REMARK                            x       y       z     vdW  Elec       q    Type
REMARK                         _______ _______ _______ _____ _____    ______ ____
ROOT
ATOM      1  N   UNL     1       1.255   9.824  19.489  0.00  0.00    +0.000 N 
ATOM      2  C   UNL     1       0.738  10.147  18.157  0.00  0.00    +0.000 C 
ATOM      3  C   UNL     1      -0.776  10.359  18.117  0.00  0.00    +0.000 C 
ATOM      4  N   UNL     1      -1.240  11.185  19.210  0.00  0.00    +0.000 N 
ATOM      5  C   UNL     1      -2.405  11.882  19.292  0.00  0.00    +0.000 A 
ATOM      6  C   UNL     1      -2.425  12.432  20.563  0.00  0.00    +0.000 A 
ATOM      7  N   UNL     1      -1.260  12.073  21.235  0.00  0.00    +0.000 NA
ATOM      8  C   UNL     1      -0.569  11.325  20.391  0.00  0.00    +0.000 A 
ATOM      9  C   UNL     1       0.752  10.649  20.613  0.00  0.00    +0.000 C 
ENDROOT
BRANCH   6  10
ATOM     10  C   UNL     1      -3.559  13.181  21.135  0.00  0.00    +0.000 C 
ATOM     11  O   UNL     1      -4.630  12.607  21.345  0.00  0.00    +0.000 OA
ATOM     12  N   UNL     1      -3.401  14.523  21.452  0.00  0.00    +0.000 N 
ATOM     13  C   UNL     1      -2.304  15.403  21.031  0.00  0.00    +0.000 C 
ATOM     14  C   UNL     1      -1.676  16.075  22.256  0.00  0.00    +0.000 C 
ATOM     15  O   UNL     1      -2.672  16.789  23.010  0.00  0.00    +0.000 OA
ATOM     16  C   UNL     1      -3.714  15.900  23.453  0.00  0.00    +0.000 C 
ATOM     17  C   UNL     1      -4.402  15.208  22.269  0.00  0.00    +0.000 C 
ENDBRANCH   6  10
BRANCH   1  20
ATOM     18  C   UNL     1       2.636   6.398  19.147  0.00  0.00    +0.000 A 
ATOM     19  C   UNL     1       2.187   7.703  18.863  0.00  0.00    +0.000 A 
ATOM     20  C   UNL     1       1.491   8.484  19.791  0.00  0.00    +0.000 A 
ATOM     21  N   UNL     1       1.075   7.957  20.952  0.00  0.00    +0.000 NA
ATOM     22  C   UNL     1       1.419   6.667  21.202  0.00  0.00    +0.000 A 
ATOM     23  C   UNL     1       2.197   5.863  20.367  0.00  0.00    +0.000 A 
ATOM     24 CL   UNL     1       2.583   4.282  20.944  0.00  0.00    +0.000 Cl
BRANCH  18  29
ATOM     25  C   UNL     1       6.392   4.047  15.453  0.00  0.00    +0.000 C 
ATOM     26  C   UNL     1       5.395   4.609  16.415  0.00  0.00    +0.000 A 
ATOM     27  C   UNL     1       5.646   5.736  17.175  0.00  0.00    +0.000 A 
ATOM     28  N   UNL     1       4.769   6.265  18.061  0.00  0.00    +0.000 NA
ATOM     29  C   UNL     1       3.537   5.704  18.187  0.00  0.00    +0.000 A 
ATOM     30  C   UNL     1       3.192   4.559  17.442  0.00  0.00    +0.000 A 
ATOM     31  C   UNL     1       1.880   3.825  17.509  0.00  0.00    +0.000 C 
ATOM     32  C   UNL     1       4.155   4.006  16.580  0.00  0.00    +0.000 A 
ENDBRANCH  18  29
ENDBRANCH   1  20
TORSDOF 3
ENDMDL
