MODEL 1
REMARK VINA RESULT:      -9.0      0.000      0.000
REMARK  Name = 
REMARK  7 active torsions:
REMARK  status: ('A' for Active; 'I' for Inactive)
REMARK    1  A    between atoms: C_2  and  C_3
REMARK    2  A    between atoms: C_2  and  C_13
REMARK    3  A    between atoms: C_4  and  C_5
REMARK    4  A    between atoms: C_8  and  O_9
REMARK    5  A    between atoms: C_11  and  O_12
REMARK    6  A    between atoms: C_16  and  N_17
REMARK    7  A    between atoms: N_17  and  C_18
REMARK                            x       y       z     vdW  Elec       q    Type
REMARK                         _______ _______ _______ _____ _____    ______ ____
ROOT
ATOM      1  C   UNL     1       1.354   9.176  19.494  0.00  0.00    +0.000 A 
ATOM      2  C   UNL     1       1.816   9.230  18.169  0.00  0.00    +0.000 A 
ATOM      3  C   UNL     1       2.616   8.193  17.605  0.00  0.00    +0.000 A 
ATOM      4  C   UNL     1       2.949   7.065  18.340  0.00  0.00    +0.000 A 
ATOM      5  C   UNL     1       2.466   7.016  19.674  0.00  0.00    +0.000 A 
ATOM      6  C   UNL     1       1.680   8.037  20.238  0.00  0.00    +0.000 A 
ENDROOT
BRANCH   1   8
ATOM      7  O   UNL     1       0.875  10.906  21.039  0.00  0.00    +0.000 OA
ATOM      8  C   UNL     1       0.446  10.183  20.131  0.00  0.00    +0.000 C 
BRANCH   8   9
ATOM      9  C   UNL     1      -0.988  10.381  19.723  0.00  0.00    +0.000 C 
ATOM     10  C   UNL     1      -1.422  11.131  18.696  0.00  0.00    +0.000 C 
BRANCH  10  11
ATOM     11  C   UNL     1      -2.828  11.374  18.287  0.00  0.00    +0.000 A 
ATOM     12  C   UNL     1      -3.810  11.881  19.155  0.00  0.00    +0.000 A 
ATOM     13  C   UNL     1      -5.106  12.170  18.692  0.00  0.00    +0.000 A 
ATOM     14  C   UNL     1      -5.425  11.958  17.355  0.00  0.00    +0.000 A 
ATOM     15  C   UNL     1      -4.482  11.456  16.474  0.00  0.00    +0.000 A 
ATOM     16  C   UNL     1      -3.198  11.168  16.943  0.00  0.00    +0.000 A 
BRANCH  14  17
ATOM     17  O   UNL     1      -6.661  12.247  16.853  0.00  0.00    +0.000 OA
ATOM     18  H   UNL     1      -6.852  13.191  16.987  0.00  0.00    +0.000 HD
ENDBRANCH  14  17
BRANCH  16  19
ATOM     19  O   UNL     1      -2.260  10.674  16.060  0.00  0.00    +0.000 OA
ATOM     20  H   UNL     1      -2.612   9.846  15.679  0.00  0.00    +0.000 HD
ENDBRANCH  16  19
ENDBRANCH  10  11
ENDBRANCH   8   9
ENDBRANCH   1   8
BRANCH   4  21
ATOM     21  N   UNL     1       3.614   5.902  17.878  0.00  0.00    +0.000 N 
ATOM     22  H   UNL     1       2.899   5.429  17.319  0.00  0.00    +0.000 HD
BRANCH  21  23
ATOM     23  C   UNL     1       4.866   5.426  17.471  0.00  0.00    +0.000 A 
ATOM     24  C   UNL     1       5.871   5.503  18.372  0.00  0.00    +0.000 A 
ATOM     25  C   UNL     1       7.236   5.184  17.946  0.00  0.00    +0.000 A 
ATOM     26  O   UNL     1       7.992   4.458  18.568  0.00  0.00    +0.000 OA
ATOM     27  O   UNL     1       7.564   5.917  16.841  0.00  0.00    +0.000 OA
ATOM     28  C   UNL     1       6.747   5.393  15.839  0.00  0.00    +0.000 A 
ATOM     29  C   UNL     1       7.433   5.084  14.660  0.00  0.00    +0.000 A 
ATOM     30  C   UNL     1       6.788   4.325  13.708  0.00  0.00    +0.000 A 
ATOM     31  C   UNL     1       5.467   3.925  13.943  0.00  0.00    +0.000 A 
ATOM     32  C   UNL     1       4.759   4.312  15.112  0.00  0.00    +0.000 A 
ATOM     33  C   UNL     1       5.379   5.069  16.102  0.00  0.00    +0.000 A 
ENDBRANCH  21  23
ENDBRANCH   4  21
TORSDOF 7
ENDMDL
MODEL 2
REMARK VINA RESULT:      -8.9      3.467      4.756
REMARK  Name = 
REMARK  7 active torsions:
REMARK  status: ('A' for Active; 'I' for Inactive)
REMARK    1  A    between atoms: C_2  and  C_3
REMARK    2  A    between atoms: C_2  and  C_13
REMARK    3  A    between atoms: C_4  and  C_5
REMARK    4  A    between atoms: C_8  and  O_9
REMARK    5  A    between atoms: C_11  and  O_12
REMARK    6  A    between atoms: C_16  and  N_17
REMARK    7  A    between atoms: N_17  and  C_18
REMARK                            x       y       z     vdW  Elec       q    Type
REMARK                         _______ _______ _______ _____ _____    ______ ____
ROOT
ATOM      1  C   UNL     1       0.420  10.392  20.951  0.00  0.00    +0.000 A 
ATOM      2  C   UNL     1       0.826   9.183  21.539  0.00  0.00    +0.000 A 
ATOM      3  C   UNL     1       1.483   8.162  20.790  0.00  0.00    +0.000 A 
ATOM      4  C   UNL     1       1.776   8.336  19.445  0.00  0.00    +0.000 A 
ATOM      5  C   UNL     1       1.372   9.567  18.866  0.00  0.00    +0.000 A 
ATOM      6  C   UNL     1       0.719  10.576  19.597  0.00  0.00    +0.000 A 
ENDROOT
BRANCH   1   8
ATOM      7  O   UNL     1       0.445  12.580  21.856  0.00  0.00    +0.000 OA
ATOM      8  C   UNL     1      -0.202  11.540  21.686  0.00  0.00    +0.000 C 
BRANCH   8   9
ATOM      9  C   UNL     1      -1.601  11.510  22.238  0.00  0.00    +0.000 C 
ATOM     10  C   UNL     1      -2.430  12.562  22.351  0.00  0.00    +0.000 C 
BRANCH  10  11
ATOM     11  C   UNL     1      -3.801  12.574  22.920  0.00  0.00    +0.000 A 
ATOM     12  C   UNL     1      -4.070  12.433  24.293  0.00  0.00    +0.000 A 
ATOM     13  C   UNL     1      -5.382  12.535  24.787  0.00  0.00    +0.000 A 
ATOM     14  C   UNL     1      -6.433  12.782  23.910  0.00  0.00    +0.000 A 
ATOM     15  C   UNL     1      -6.203  12.922  22.551  0.00  0.00    +0.000 A 
ATOM     16  C   UNL     1      -4.896  12.816  22.069  0.00  0.00    +0.000 A 
BRANCH  14  17
ATOM     17  O   UNL     1      -7.721  12.915  24.345  0.00  0.00    +0.000 OA
ATOM     18  H   UNL     1      -7.972  13.854  24.331  0.00  0.00    +0.000 HD
ENDBRANCH  14  17
BRANCH  16  19
ATOM     19  O   UNL     1      -4.671  12.962  20.715  0.00  0.00    +0.000 OA
ATOM     20  H   UNL     1      -4.385  12.097  20.363  0.00  0.00    +0.000 HD
ENDBRANCH  16  19
ENDBRANCH  10  11
ENDBRANCH   8   9
ENDBRANCH   1   8
BRANCH   4  21
ATOM     21  N   UNL     1       2.538   7.479  18.612  0.00  0.00    +0.000 N 
ATOM     22  H   UNL     1       3.290   8.086  18.276  0.00  0.00    +0.000 HD
BRANCH  21  23
ATOM     23  C   UNL     1       2.958   6.152  18.474  0.00  0.00    +0.000 A 
ATOM     24  C   UNL     1       4.045   5.933  17.700  0.00  0.00    +0.000 A 
ATOM     25  C   UNL     1       4.425   4.555  17.378  0.00  0.00    +0.000 A 
ATOM     26  O   UNL     1       5.562   4.123  17.464  0.00  0.00    +0.000 OA
ATOM     27  O   UNL     1       3.357   3.885  16.852  0.00  0.00    +0.000 OA
ATOM     28  C   UNL     1       2.474   3.770  17.927  0.00  0.00    +0.000 A 
ATOM     29  C   UNL     1       1.978   2.475  18.107  0.00  0.00    +0.000 A 
ATOM     30  C   UNL     1       1.314   2.187  19.281  0.00  0.00    +0.000 A 
ATOM     31  C   UNL     1       1.136   3.205  20.224  0.00  0.00    +0.000 A 
ATOM     32  C   UNL     1       1.580   4.535  19.992  0.00  0.00    +0.000 A 
ATOM     33  C   UNL     1       2.263   4.863  18.824  0.00  0.00    +0.000 A 
ENDBRANCH  21  23
ENDBRANCH   4  21
TORSDOF 7
ENDMDL
MODEL 3
REMARK VINA RESULT:      -8.8      1.574      2.209
REMARK  Name = 
REMARK  7 active torsions:
REMARK  status: ('A' for Active; 'I' for Inactive)
REMARK    1  A    between atoms: C_2  and  C_3
REMARK    2  A    between atoms: C_2  and  C_13
REMARK    3  A    between atoms: C_4  and  C_5
REMARK    4  A    between atoms: C_8  and  O_9
REMARK    5  A    between atoms: C_11  and  O_12
REMARK    6  A    between atoms: C_16  and  N_17
REMARK    7  A    between atoms: N_17  and  C_18
REMARK                            x       y       z     vdW  Elec       q    Type
REMARK                         _______ _______ _______ _____ _____    ______ ____
ROOT
ATOM      1  C   UNL     1       0.969  10.276  19.929  0.00  0.00    +0.000 A 
ATOM      2  C   UNL     1       1.465   9.769  18.719  0.00  0.00    +0.000 A 
ATOM      3  C   UNL     1       1.982   8.444  18.611  0.00  0.00    +0.000 A 
ATOM      4  C   UNL     1       1.988   7.585  19.702  0.00  0.00    +0.000 A 
ATOM      5  C   UNL     1       1.472   8.107  20.916  0.00  0.00    +0.000 A 
ATOM      6  C   UNL     1       0.965   9.414  21.031  0.00  0.00    +0.000 A 
ENDROOT
BRANCH   1   8
ATOM      7  O   UNL     1       0.991  12.545  20.610  0.00  0.00    +0.000 OA
ATOM      8  C   UNL     1       0.339  11.625  20.104  0.00  0.00    +0.000 C 
BRANCH   8   9
ATOM      9  C   UNL     1      -1.071  11.941  19.685  0.00  0.00    +0.000 C 
ATOM     10  C   UNL     1      -1.836  11.204  18.860  0.00  0.00    +0.000 C 
BRANCH  10  11
ATOM     11  C   UNL     1      -3.215  11.502  18.401  0.00  0.00    +0.000 A 
ATOM     12  C   UNL     1      -4.207  12.048  19.234  0.00  0.00    +0.000 A 
ATOM     13  C   UNL     1      -5.473  12.388  18.725  0.00  0.00    +0.000 A 
ATOM     14  C   UNL     1      -5.752  12.187  17.377  0.00  0.00    +0.000 A 
ATOM     15  C   UNL     1      -4.798  11.648  16.530  0.00  0.00    +0.000 A 
ATOM     16  C   UNL     1      -3.545  11.310  17.045  0.00  0.00    +0.000 A 
BRANCH  14  17
ATOM     17  O   UNL     1      -6.957  12.525  16.831  0.00  0.00    +0.000 OA
ATOM     18  H   UNL     1      -6.814  12.943  15.964  0.00  0.00    +0.000 HD
ENDBRANCH  14  17
BRANCH  16  19
ATOM     19  O   UNL     1      -2.596  10.778  16.195  0.00  0.00    +0.000 OA
ATOM     20  H   UNL     1      -1.819  10.526  16.732  0.00  0.00    +0.000 HD
ENDBRANCH  16  19
ENDBRANCH  10  11
ENDBRANCH   8   9
ENDBRANCH   1   8
BRANCH   4  21
ATOM     21  N   UNL     1       2.338   6.212  19.715  0.00  0.00    +0.000 N 
ATOM     22  H   UNL     1       1.434   5.741  19.809  0.00  0.00    +0.000 HD
BRANCH  21  23
ATOM     23  C   UNL     1       3.252   5.294  19.186  0.00  0.00    +0.000 A 
ATOM     24  C   UNL     1       3.294   4.073  19.762  0.00  0.00    +0.000 A 
ATOM     25  C   UNL     1       4.347   3.134  19.368  0.00  0.00    +0.000 A 
ATOM     26  O   UNL     1       4.149   1.963  19.092  0.00  0.00    +0.000 OA
ATOM     27  O   UNL     1       5.572   3.728  19.485  0.00  0.00    +0.000 OA
ATOM     28  C   UNL     1       5.567   4.700  18.484  0.00  0.00    +0.000 A 
ATOM     29  C   UNL     1       6.714   4.685  17.683  0.00  0.00    +0.000 A 
ATOM     30  C   UNL     1       6.704   5.414  16.514  0.00  0.00    +0.000 A 
ATOM     31  C   UNL     1       5.565   6.162  16.192  0.00  0.00    +0.000 A 
ATOM     32  C   UNL     1       4.437   6.227  17.054  0.00  0.00    +0.000 A 
ATOM     33  C   UNL     1       4.405   5.496  18.239  0.00  0.00    +0.000 A 
ENDBRANCH  21  23
ENDBRANCH   4  21
TORSDOF 7
ENDMDL
MODEL 4
REMARK VINA RESULT:      -8.8      2.879      3.827
REMARK  Name = 
REMARK  7 active torsions:
REMARK  status: ('A' for Active; 'I' for Inactive)
REMARK    1  A    between atoms: C_2  and  C_3
REMARK    2  A    between atoms: C_2  and  C_13
REMARK    3  A    between atoms: C_4  and  C_5
REMARK    4  A    between atoms: C_8  and  O_9
REMARK    5  A    between atoms: C_11  and  O_12
REMARK    6  A    between atoms: C_16  and  N_17
REMARK    7  A    between atoms: N_17  and  C_18
REMARK                            x       y       z     vdW  Elec       q    Type
REMARK                         _______ _______ _______ _____ _____    ______ ____
ROOT
ATOM      1  C   UNL     1       0.594  10.093  19.328  0.00  0.00    +0.000 A 
ATOM      2  C   UNL     1       1.265   9.528  18.234  0.00  0.00    +0.000 A 
ATOM      3  C   UNL     1       2.053   8.346  18.359  0.00  0.00    +0.000 A 
ATOM      4  C   UNL     1       2.166   7.685  19.575  0.00  0.00    +0.000 A 
ATOM      5  C   UNL     1       1.472   8.261  20.671  0.00  0.00    +0.000 A 
ATOM      6  C   UNL     1       0.697   9.429  20.555  0.00  0.00    +0.000 A 
ENDROOT
BRANCH   1   8
ATOM      7  O   UNL     1      -0.098  12.172  18.428  0.00  0.00    +0.000 OA
ATOM      8  C   UNL     1      -0.315  11.283  19.260  0.00  0.00    +0.000 C 
BRANCH   8   9
ATOM      9  C   UNL     1      -1.507  11.468  20.158  0.00  0.00    +0.000 C 
ATOM     10  C   UNL     1      -1.800  12.571  20.869  0.00  0.00    +0.000 C 
BRANCH  10  11
ATOM     11  C   UNL     1      -2.947  12.774  21.788  0.00  0.00    +0.000 A 
ATOM     12  C   UNL     1      -4.269  12.962  21.347  0.00  0.00    +0.000 A 
ATOM     13  C   UNL     1      -5.329  13.067  22.263  0.00  0.00    +0.000 A 
ATOM     14  C   UNL     1      -5.075  12.981  23.628  0.00  0.00    +0.000 A 
ATOM     15  C   UNL     1      -3.784  12.799  24.096  0.00  0.00    +0.000 A 
ATOM     16  C   UNL     1      -2.735  12.699  23.179  0.00  0.00    +0.000 A 
BRANCH  14  17
ATOM     17  O   UNL     1      -6.074  13.051  24.555  0.00  0.00    +0.000 OA
ATOM     18  H   UNL     1      -5.798  12.588  25.365  0.00  0.00    +0.000 HD
ENDBRANCH  14  17
BRANCH  16  19
ATOM     19  O   UNL     1      -1.452  12.513  23.650  0.00  0.00    +0.000 OA
ATOM     20  H   UNL     1      -0.850  13.064  23.112  0.00  0.00    +0.000 HD
ENDBRANCH  16  19
ENDBRANCH  10  11
ENDBRANCH   8   9
ENDBRANCH   1   8
BRANCH   4  21
ATOM     21  N   UNL     1       2.794   6.439  19.823  0.00  0.00    +0.000 N 
ATOM     22  H   UNL     1       2.167   5.991  20.496  0.00  0.00    +0.000 HD
BRANCH  21  23
ATOM     23  C   UNL     1       3.558   5.440  19.211  0.00  0.00    +0.000 A 
ATOM     24  C   UNL     1       3.577   4.230  19.813  0.00  0.00    +0.000 A 
ATOM     25  C   UNL     1       4.494   3.200  19.317  0.00  0.00    +0.000 A 
ATOM     26  O   UNL     1       4.170   2.045  19.103  0.00  0.00    +0.000 OA
ATOM     27  O   UNL     1       5.766   3.695  19.262  0.00  0.00    +0.000 OA
ATOM     28  C   UNL     1       5.711   4.645  18.241  0.00  0.00    +0.000 A 
ATOM     29  C   UNL     1       6.741   4.521  17.305  0.00  0.00    +0.000 A 
ATOM     30  C   UNL     1       6.640   5.226  16.124  0.00  0.00    +0.000 A 
ATOM     31  C   UNL     1       5.532   6.058  15.926  0.00  0.00    +0.000 A 
ATOM     32  C   UNL     1       4.532   6.231  16.921  0.00  0.00    +0.000 A 
ATOM     33  C   UNL     1       4.593   5.529  18.122  0.00  0.00    +0.000 A 
ENDBRANCH  21  23
ENDBRANCH   4  21
TORSDOF 7
ENDMDL
MODEL 5
REMARK VINA RESULT:      -8.7      3.360      4.464
REMARK  Name = 
REMARK  7 active torsions:
REMARK  status: ('A' for Active; 'I' for Inactive)
REMARK    1  A    between atoms: C_2  and  C_3
REMARK    2  A    between atoms: C_2  and  C_13
REMARK    3  A    between atoms: C_4  and  C_5
REMARK    4  A    between atoms: C_8  and  O_9
REMARK    5  A    between atoms: C_11  and  O_12
REMARK    6  A    between atoms: C_16  and  N_17
REMARK    7  A    between atoms: N_17  and  C_18
REMARK                            x       y       z     vdW  Elec       q    Type
REMARK                         _______ _______ _______ _____ _____    ______ ____
ROOT
ATOM      1  C   UNL     1       0.779  10.627  20.461  0.00  0.00    +0.000 A 
ATOM      2  C   UNL     1       1.014  10.739  19.082  0.00  0.00    +0.000 A 
ATOM      3  C   UNL     1       1.558   9.664  18.318  0.00  0.00    +0.000 A 
ATOM      4  C   UNL     1       1.854   8.444  18.909  0.00  0.00    +0.000 A 
ATOM      5  C   UNL     1       1.601   8.340  20.301  0.00  0.00    +0.000 A 
ATOM      6  C   UNL     1       1.068   9.398  21.061  0.00  0.00    +0.000 A 
ENDROOT
BRANCH   1   8
ATOM      7  O   UNL     1       0.782  12.687  21.630  0.00  0.00    +0.000 OA
ATOM      8  C   UNL     1       0.138  11.680  21.313  0.00  0.00    +0.000 C 
BRANCH   8   9
ATOM      9  C   UNL     1      -1.277  11.590  21.816  0.00  0.00    +0.000 C 
ATOM     10  C   UNL     1      -2.015  12.610  22.288  0.00  0.00    +0.000 C 
BRANCH  10  11
ATOM     11  C   UNL     1      -3.399  12.551  22.821  0.00  0.00    +0.000 A 
ATOM     12  C   UNL     1      -3.697  12.339  24.178  0.00  0.00    +0.000 A 
ATOM     13  C   UNL     1      -5.024  12.375  24.642  0.00  0.00    +0.000 A 
ATOM     14  C   UNL     1      -6.061  12.628  23.750  0.00  0.00    +0.000 A 
ATOM     15  C   UNL     1      -5.802  12.838  22.406  0.00  0.00    +0.000 A 
ATOM     16  C   UNL     1      -4.481  12.797  21.953  0.00  0.00    +0.000 A 
BRANCH  14  17
ATOM     17  O   UNL     1      -7.362  12.699  24.156  0.00  0.00    +0.000 OA
ATOM     18  H   UNL     1      -7.516  13.549  24.603  0.00  0.00    +0.000 HD
ENDBRANCH  14  17
BRANCH  16  19
ATOM     19  O   UNL     1      -4.227  13.011  20.614  0.00  0.00    +0.000 OA
ATOM     20  H   UNL     1      -4.770  12.382  20.100  0.00  0.00    +0.000 HD
ENDBRANCH  16  19
ENDBRANCH  10  11
ENDBRANCH   8   9
ENDBRANCH   1   8
BRANCH   4  21
ATOM     21  N   UNL     1       2.266   7.252  18.263  0.00  0.00    +0.000 N 
ATOM     22  H   UNL     1       2.538   7.573  17.330  0.00  0.00    +0.000 HD
BRANCH  21  23
ATOM     23  C   UNL     1       2.890   6.021  18.496  0.00  0.00    +0.000 A 
ATOM     24  C   UNL     1       4.218   5.954  18.253  0.00  0.00    +0.000 A 
ATOM     25  C   UNL     1       4.888   4.652  18.312  0.00  0.00    +0.000 A 
ATOM     26  O   UNL     1       5.937   4.451  18.900  0.00  0.00    +0.000 OA
ATOM     27  O   UNL     1       4.239   3.756  17.511  0.00  0.00    +0.000 OA
ATOM     28  C   UNL     1       3.018   3.557  18.156  0.00  0.00    +0.000 A 
ATOM     29  C   UNL     1       2.680   2.209  18.313  0.00  0.00    +0.000 A 
ATOM     30  C   UNL     1       1.640   1.890  19.158  0.00  0.00    +0.000 A 
ATOM     31  C   UNL     1       0.945   2.924  19.797  0.00  0.00    +0.000 A 
ATOM     32  C   UNL     1       1.252   4.293  19.567  0.00  0.00    +0.000 A 
ATOM     33  C   UNL     1       2.302   4.655  18.728  0.00  0.00    +0.000 A 
ENDBRANCH  21  23
ENDBRANCH   4  21
TORSDOF 7
ENDMDL
MODEL 6
REMARK VINA RESULT:      -8.7      1.989      2.831
REMARK  Name = 
REMARK  7 active torsions:
REMARK  status: ('A' for Active; 'I' for Inactive)
REMARK    1  A    between atoms: C_2  and  C_3
REMARK    2  A    between atoms: C_2  and  C_13
REMARK    3  A    between atoms: C_4  and  C_5
REMARK    4  A    between atoms: C_8  and  O_9
REMARK    5  A    between atoms: C_11  and  O_12
REMARK    6  A    between atoms: C_16  and  N_17
REMARK    7  A    between atoms: N_17  and  C_18
REMARK                            x       y       z     vdW  Elec       q    Type
REMARK                         _______ _______ _______ _____ _____    ______ ____
ROOT
ATOM      1  C   UNL     1       0.970  10.181  19.664  0.00  0.00    +0.000 A 
ATOM      2  C   UNL     1       0.926   9.577  20.930  0.00  0.00    +0.000 A 
ATOM      3  C   UNL     1       1.393   8.247  21.149  0.00  0.00    +0.000 A 
ATOM      4  C   UNL     1       1.942   7.500  20.115  0.00  0.00    +0.000 A 
ATOM      5  C   UNL     1       1.991   8.127  18.843  0.00  0.00    +0.000 A 
ATOM      6  C   UNL     1       1.528   9.437  18.619  0.00  0.00    +0.000 A 
ENDROOT
BRANCH   1   8
ATOM      7  O   UNL     1       1.380  12.512  19.573  0.00  0.00    +0.000 OA
ATOM      8  C   UNL     1       0.574  11.596  19.371  0.00  0.00    +0.000 C 
BRANCH   8   9
ATOM      9  C   UNL     1      -0.774  11.983  18.826  0.00  0.00    +0.000 C 
ATOM     10  C   UNL     1      -1.905  11.264  18.929  0.00  0.00    +0.000 C 
BRANCH  10  11
ATOM     11  C   UNL     1      -3.241  11.599  18.377  0.00  0.00    +0.000 A 
ATOM     12  C   UNL     1      -3.637  11.286  17.065  0.00  0.00    +0.000 A 
ATOM     13  C   UNL     1      -4.943  11.553  16.620  0.00  0.00    +0.000 A 
ATOM     14  C   UNL     1      -5.864  12.132  17.487  0.00  0.00    +0.000 A 
ATOM     15  C   UNL     1      -5.505  12.456  18.785  0.00  0.00    +0.000 A 
ATOM     16  C   UNL     1      -4.204  12.191  19.218  0.00  0.00    +0.000 A 
BRANCH  14  17
ATOM     17  O   UNL     1      -7.151  12.386  17.110  0.00  0.00    +0.000 OA
ATOM     18  H   UNL     1      -7.165  12.679  16.183  0.00  0.00    +0.000 HD
ENDBRANCH  14  17
BRANCH  16  19
ATOM     19  O   UNL     1      -3.853  12.511  20.513  0.00  0.00    +0.000 OA
ATOM     20  H   UNL     1      -2.967  12.137  20.687  0.00  0.00    +0.000 HD
ENDBRANCH  16  19
ENDBRANCH  10  11
ENDBRANCH   8   9
ENDBRANCH   1   8
BRANCH   4  21
ATOM     21  N   UNL     1       2.566   6.232  20.207  0.00  0.00    +0.000 N 
ATOM     22  H   UNL     1       1.901   5.682  20.757  0.00  0.00    +0.000 HD
BRANCH  21  23
ATOM     23  C   UNL     1       3.382   5.342  19.499  0.00  0.00    +0.000 A 
ATOM     24  C   UNL     1       3.286   4.034  19.824  0.00  0.00    +0.000 A 
ATOM     25  C   UNL     1       4.236   3.082  19.242  0.00  0.00    +0.000 A 
ATOM     26  O   UNL     1       3.916   2.017  18.745  0.00  0.00    +0.000 OA
ATOM     27  O   UNL     1       5.516   3.508  19.461  0.00  0.00    +0.000 OA
ATOM     28  C   UNL     1       5.627   4.651  18.669  0.00  0.00    +0.000 A 
ATOM     29  C   UNL     1       6.774   4.670  17.869  0.00  0.00    +0.000 A 
ATOM     30  C   UNL     1       6.855   5.611  16.865  0.00  0.00    +0.000 A 
ATOM     31  C   UNL     1       5.807   6.525  16.708  0.00  0.00    +0.000 A 
ATOM     32  C   UNL     1       4.683   6.541  17.578  0.00  0.00    +0.000 A 
ATOM     33  C   UNL     1       4.560   5.601  18.598  0.00  0.00    +0.000 A 
ENDBRANCH  21  23
ENDBRANCH   4  21
TORSDOF 7
ENDMDL
MODEL 7
REMARK VINA RESULT:      -8.7      3.586      4.416
REMARK  Name = 
REMARK  7 active torsions:
REMARK  status: ('A' for Active; 'I' for Inactive)
REMARK    1  A    between atoms: C_2  and  C_3
REMARK    2  A    between atoms: C_2  and  C_13
REMARK    3  A    between atoms: C_4  and  C_5
REMARK    4  A    between atoms: C_8  and  O_9
REMARK    5  A    between atoms: C_11  and  O_12
REMARK    6  A    between atoms: C_16  and  N_17
REMARK    7  A    between atoms: N_17  and  C_18
REMARK                            x       y       z     vdW  Elec       q    Type
REMARK                         _______ _______ _______ _____ _____    ______ ____
ROOT
ATOM      1  C   UNL     1       0.515   9.797  21.354  0.00  0.00    +0.000 A 
ATOM      2  C   UNL     1       0.498  10.343  20.062  0.00  0.00    +0.000 A 
ATOM      3  C   UNL     1       1.126   9.693  18.958  0.00  0.00    +0.000 A 
ATOM      4  C   UNL     1       1.760   8.468  19.115  0.00  0.00    +0.000 A 
ATOM      5  C   UNL     1       1.759   7.921  20.424  0.00  0.00    +0.000 A 
ATOM      6  C   UNL     1       1.146   8.560  21.517  0.00  0.00    +0.000 A 
ENDROOT
BRANCH   1   8
ATOM      7  O   UNL     1       0.021   9.908  23.668  0.00  0.00    +0.000 OA
ATOM      8  C   UNL     1      -0.187  10.379  22.544  0.00  0.00    +0.000 C 
BRANCH   8   9
ATOM      9  C   UNL     1      -1.149  11.532  22.456  0.00  0.00    +0.000 C 
ATOM     10  C   UNL     1      -2.231  11.721  23.230  0.00  0.00    +0.000 C 
BRANCH  10  11
ATOM     11  C   UNL     1      -3.217  12.827  23.149  0.00  0.00    +0.000 A 
ATOM     12  C   UNL     1      -3.091  13.913  22.265  0.00  0.00    +0.000 A 
ATOM     13  C   UNL     1      -4.097  14.890  22.172  0.00  0.00    +0.000 A 
ATOM     14  C   UNL     1      -5.238  14.785  22.961  0.00  0.00    +0.000 A 
ATOM     15  C   UNL     1      -5.392  13.730  23.845  0.00  0.00    +0.000 A 
ATOM     16  C   UNL     1      -4.386  12.765  23.933  0.00  0.00    +0.000 A 
BRANCH  14  17
ATOM     17  O   UNL     1      -6.254  15.694  22.888  0.00  0.00    +0.000 OA
ATOM     18  H   UNL     1      -6.849  15.577  23.647  0.00  0.00    +0.000 HD
ENDBRANCH  14  17
BRANCH  16  19
ATOM     19  O   UNL     1      -4.546  11.713  24.812  0.00  0.00    +0.000 OA
ATOM     20  H   UNL     1      -4.952  12.061  25.629  0.00  0.00    +0.000 HD
ENDBRANCH  16  19
ENDBRANCH  10  11
ENDBRANCH   8   9
ENDBRANCH   1   8
BRANCH   4  21
ATOM     21  N   UNL     1       2.303   7.644  18.098  0.00  0.00    +0.000 N 
ATOM     22  H   UNL     1       2.585   8.315  17.378  0.00  0.00    +0.000 HD
BRANCH  21  23
ATOM     23  C   UNL     1       3.023   6.462  17.894  0.00  0.00    +0.000 A 
ATOM     24  C   UNL     1       2.333   5.303  17.986  0.00  0.00    +0.000 A 
ATOM     25  C   UNL     1       3.063   4.033  17.955  0.00  0.00    +0.000 A 
ATOM     26  O   UNL     1       2.744   3.079  17.268  0.00  0.00    +0.000 OA
ATOM     27  O   UNL     1       4.055   4.042  18.895  0.00  0.00    +0.000 OA
ATOM     28  C   UNL     1       4.962   4.987  18.413  0.00  0.00    +0.000 A 
ATOM     29  C   UNL     1       6.287   4.538  18.405  0.00  0.00    +0.000 A 
ATOM     30  C   UNL     1       7.223   5.277  17.713  0.00  0.00    +0.000 A 
ATOM     31  C   UNL     1       6.818   6.458  17.079  0.00  0.00    +0.000 A 
ATOM     32  C   UNL     1       5.483   6.939  17.161  0.00  0.00    +0.000 A 
ATOM     33  C   UNL     1       4.507   6.216  17.842  0.00  0.00    +0.000 A 
ENDBRANCH  21  23
ENDBRANCH   4  21
TORSDOF 7
ENDMDL
MODEL 8
REMARK VINA RESULT:      -8.7      3.235      4.643
REMARK  Name = 
REMARK  7 active torsions:
REMARK  status: ('A' for Active; 'I' for Inactive)
REMARK    1  A    between atoms: C_2  and  C_3
REMARK    2  A    between atoms: C_2  and  C_13
REMARK    3  A    between atoms: C_4  and  C_5
REMARK    4  A    between atoms: C_8  and  O_9
REMARK    5  A    between atoms: C_11  and  O_12
REMARK    6  A    between atoms: C_16  and  N_17
REMARK    7  A    between atoms: N_17  and  C_18
REMARK                            x       y       z     vdW  Elec       q    Type
REMARK                         _______ _______ _______ _____ _____    ______ ____
ROOT
ATOM      1  C   UNL     1      -0.024  10.439  19.074  0.00  0.00    +0.000 A 
ATOM      2  C   UNL     1       0.754   9.821  18.084  0.00  0.00    +0.000 A 
ATOM      3  C   UNL     1       1.666   8.767  18.388  0.00  0.00    +0.000 A 
ATOM      4  C   UNL     1       1.799   8.286  19.684  0.00  0.00    +0.000 A 
ATOM      5  C   UNL     1       0.998   8.912  20.673  0.00  0.00    +0.000 A 
ATOM      6  C   UNL     1       0.100   9.955  20.381  0.00  0.00    +0.000 A 
ENDROOT
BRANCH   1   8
ATOM      7  O   UNL     1      -0.962  12.220  17.826  0.00  0.00    +0.000 OA
ATOM      8  C   UNL     1      -1.058  11.495  18.823  0.00  0.00    +0.000 C 
BRANCH   8   9
ATOM      9  C   UNL     1      -2.238  11.729  19.725  0.00  0.00    +0.000 C 
ATOM     10  C   UNL     1      -2.275  12.562  20.780  0.00  0.00    +0.000 C 
BRANCH  10  11
ATOM     11  C   UNL     1      -3.409  12.792  21.709  0.00  0.00    +0.000 A 
ATOM     12  C   UNL     1      -4.716  13.078  21.279  0.00  0.00    +0.000 A 
ATOM     13  C   UNL     1      -5.770  13.206  22.200  0.00  0.00    +0.000 A 
ATOM     14  C   UNL     1      -5.523  13.044  23.560  0.00  0.00    +0.000 A 
ATOM     15  C   UNL     1      -4.246  12.764  24.018  0.00  0.00    +0.000 A 
ATOM     16  C   UNL     1      -3.204  12.643  23.095  0.00  0.00    +0.000 A 
BRANCH  14  17
ATOM     17  O   UNL     1      -6.517  13.132  24.491  0.00  0.00    +0.000 OA
ATOM     18  H   UNL     1      -6.478  14.001  24.924  0.00  0.00    +0.000 HD
ENDBRANCH  14  17
BRANCH  16  19
ATOM     19  O   UNL     1      -1.934  12.359  23.556  0.00  0.00    +0.000 OA
ATOM     20  H   UNL     1      -1.299  12.883  23.030  0.00  0.00    +0.000 HD
ENDBRANCH  16  19
ENDBRANCH  10  11
ENDBRANCH   8   9
ENDBRANCH   1   8
BRANCH   4  21
ATOM     21  N   UNL     1       2.553   7.166  20.113  0.00  0.00    +0.000 N 
ATOM     22  H   UNL     1       2.380   7.139  21.121  0.00  0.00    +0.000 HD
BRANCH  21  23
ATOM     23  C   UNL     1       2.978   5.894  19.712  0.00  0.00    +0.000 A 
ATOM     24  C   UNL     1       4.265   5.777  19.315  0.00  0.00    +0.000 A 
ATOM     25  C   UNL     1       4.716   4.515  18.722  0.00  0.00    +0.000 A 
ATOM     26  O   UNL     1       5.744   3.942  19.040  0.00  0.00    +0.000 OA
ATOM     27  O   UNL     1       3.893   4.163  17.690  0.00  0.00    +0.000 OA
ATOM     28  C   UNL     1       2.687   3.850  18.318  0.00  0.00    +0.000 A 
ATOM     29  C   UNL     1       2.142   2.630  17.908  0.00  0.00    +0.000 A 
ATOM     30  C   UNL     1       1.103   2.098  18.642  0.00  0.00    +0.000 A 
ATOM     31  C   UNL     1       0.617   2.814  19.742  0.00  0.00    +0.000 A 
ATOM     32  C   UNL     1       1.131   4.089  20.100  0.00  0.00    +0.000 A 
ATOM     33  C   UNL     1       2.187   4.655  19.390  0.00  0.00    +0.000 A 
ENDBRANCH  21  23
ENDBRANCH   4  21
TORSDOF 7
ENDMDL
MODEL 9
REMARK VINA RESULT:      -8.7      3.291      4.316
REMARK  Name = 
REMARK  7 active torsions:
REMARK  status: ('A' for Active; 'I' for Inactive)
REMARK    1  A    between atoms: C_2  and  C_3
REMARK    2  A    between atoms: C_2  and  C_13
REMARK    3  A    between atoms: C_4  and  C_5
REMARK    4  A    between atoms: C_8  and  O_9
REMARK    5  A    between atoms: C_11  and  O_12
REMARK    6  A    between atoms: C_16  and  N_17
REMARK    7  A    between atoms: N_17  and  C_18
REMARK                            x       y       z     vdW  Elec       q    Type
REMARK                         _______ _______ _______ _____ _____    ______ ____
ROOT
ATOM      1  C   UNL     1       0.454  10.137  19.364  0.00  0.00    +0.000 A 
ATOM      2  C   UNL     1       1.133   9.574  18.272  0.00  0.00    +0.000 A 
ATOM      3  C   UNL     1       1.935   8.402  18.403  0.00  0.00    +0.000 A 
ATOM      4  C   UNL     1       2.055   7.748  19.622  0.00  0.00    +0.000 A 
ATOM      5  C   UNL     1       1.354   8.320  20.715  0.00  0.00    +0.000 A 
ATOM      6  C   UNL     1       0.565   9.479  20.594  0.00  0.00    +0.000 A 
ENDROOT
BRANCH   1   8
ATOM      7  O   UNL     1      -1.012  11.601  18.218  0.00  0.00    +0.000 OA
ATOM      8  C   UNL     1      -0.468  11.315  19.291  0.00  0.00    +0.000 C 
BRANCH   8   9
ATOM      9  C   UNL     1      -0.787  12.192  20.471  0.00  0.00    +0.000 C 
ATOM     10  C   UNL     1      -1.785  12.002  21.351  0.00  0.00    +0.000 C 
BRANCH  10  11
ATOM     11  C   UNL     1      -2.147  12.863  22.504  0.00  0.00    +0.000 A 
ATOM     12  C   UNL     1      -1.210  13.616  23.233  0.00  0.00    +0.000 A 
ATOM     13  C   UNL     1      -1.620  14.479  24.264  0.00  0.00    +0.000 A 
ATOM     14  C   UNL     1      -2.972  14.597  24.570  0.00  0.00    +0.000 A 
ATOM     15  C   UNL     1      -3.921  13.867  23.874  0.00  0.00    +0.000 A 
ATOM     16  C   UNL     1      -3.504  13.009  22.853  0.00  0.00    +0.000 A 
BRANCH  14  17
ATOM     17  O   UNL     1      -3.421  15.441  25.545  0.00  0.00    +0.000 OA
ATOM     18  H   UNL     1      -2.750  16.124  25.716  0.00  0.00    +0.000 HD
ENDBRANCH  14  17
BRANCH  16  19
ATOM     19  O   UNL     1      -4.454  12.288  22.159  0.00  0.00    +0.000 OA
ATOM     20  H   UNL     1      -4.118  11.378  22.045  0.00  0.00    +0.000 HD
ENDBRANCH  16  19
ENDBRANCH  10  11
ENDBRANCH   8   9
ENDBRANCH   1   8
BRANCH   4  21
ATOM     21  N   UNL     1       2.698   6.511  19.875  0.00  0.00    +0.000 N 
ATOM     22  H   UNL     1       2.076   6.058  20.550  0.00  0.00    +0.000 HD
BRANCH  21  23
ATOM     23  C   UNL     1       3.474   5.518  19.268  0.00  0.00    +0.000 A 
ATOM     24  C   UNL     1       3.448   4.291  19.832  0.00  0.00    +0.000 A 
ATOM     25  C   UNL     1       4.371   3.262  19.347  0.00  0.00    +0.000 A 
ATOM     26  O   UNL     1       4.041   2.119  19.083  0.00  0.00    +0.000 OA
ATOM     27  O   UNL     1       5.652   3.738  19.365  0.00  0.00    +0.000 OA
ATOM     28  C   UNL     1       5.657   4.718  18.372  0.00  0.00    +0.000 A 
ATOM     29  C   UNL     1       6.727   4.606  17.479  0.00  0.00    +0.000 A 
ATOM     30  C   UNL     1       6.690   5.348  16.318  0.00  0.00    +0.000 A 
ATOM     31  C   UNL     1       5.604   6.203  16.096  0.00  0.00    +0.000 A 
ATOM     32  C   UNL     1       4.562   6.362  17.049  0.00  0.00    +0.000 A 
ATOM     33  C   UNL     1       4.559   5.623  18.229  0.00  0.00    +0.000 A 
ENDBRANCH  21  23
ENDBRANCH   4  21
TORSDOF 7
ENDMDL
