MODEL 1
REMARK VINA RESULT:      -7.2      0.000      0.000
REMARK  Name = 
REMARK  9 active torsions:
REMARK  status: ('A' for Active; 'I' for Inactive)
REMARK    1  A    between atoms: C_1  and  C_2
REMARK    2  A    between atoms: C_2  and  N_3
REMARK    3  A    between atoms: N_3  and  C_4
REMARK    4  A    between atoms: C_4  and  C_5
REMARK    5  A    between atoms: C_5  and  C_6
REMARK    6  A    between atoms: C_6  and  N_7
REMARK    7  A    between atoms: C_15  and  C_16
REMARK    8  A    between atoms: N_19  and  C_20
REMARK    9  A    between atoms: C_23  and  C_24
REMARK                            x       y       z     vdW  Elec       q    Type
REMARK                         _______ _______ _______ _____ _____    ______ ____
ROOT
ATOM      1  N   UNL     1       0.906   9.734  20.617  0.00  0.00    +0.000 N 
ATOM      2  C   UNL     1       0.598  10.985  20.025  0.00  0.00    +0.000 A 
ATOM      3  C   UNL     1       1.619  11.729  19.478  0.00  0.00    +0.000 A 
ATOM      4  C   UNL     1       1.296  12.952  18.931  0.00  0.00    +0.000 A 
ATOM      5  C   UNL     1       2.343  13.808  18.294  0.00  0.00    +0.000 C 
ATOM      6  N   UNL     1       0.028  13.425  18.928  0.00  0.00    +0.000 NA
ATOM      7  C   UNL     1      -0.910  12.642  19.473  0.00  0.00    +0.000 A 
ATOM      8  N   UNL     1      -2.215  13.142  19.466  0.00  0.00    +0.000 N 
ATOM      9  N   UNL     1      -0.662  11.444  20.023  0.00  0.00    +0.000 NA
ATOM     10  H   UNL     1      -2.215  14.054  19.035  0.00  0.00    +0.000 HD
ENDROOT
BRANCH   8  11
ATOM     11  C   UNL     1      -3.420  12.430  19.308  0.00  0.00    +0.000 A 
ATOM     12  C   UNL     1      -3.618  11.555  18.231  0.00  0.00    +0.000 A 
ATOM     13  C   UNL     1      -4.824  10.870  18.059  0.00  0.00    +0.000 A 
ATOM     14  C   UNL     1      -5.868  11.032  18.970  0.00  0.00    +0.000 A 
ATOM     15  C   UNL     1      -7.166  10.306  18.785  0.00  0.00    +0.000 C 
ATOM     16  C   UNL     1      -5.685  11.890  20.060  0.00  0.00    +0.000 A 
ATOM     17  C   UNL     1      -4.479  12.586  20.223  0.00  0.00    +0.000 A 
ATOM     18 BR   UNL     1      -4.317  13.729  21.735  0.00  0.00    +0.000 Br
ENDBRANCH   8  11
BRANCH   1  20
ATOM     19  C   UNL     1       0.350   9.481  23.019  0.00  0.00    +0.000 C 
ATOM     20  C   UNL     1      -0.122   9.288  21.578  0.00  0.00    +0.000 C 
ENDBRANCH   1  20
BRANCH   1  21
ATOM     21  C   UNL     1       1.317   8.739  19.593  0.00  0.00    +0.000 C 
BRANCH  21  22
ATOM     22  C   UNL     1       1.814   7.462  20.284  0.00  0.00    +0.000 C 
BRANCH  22  23
ATOM     23  C   UNL     1       2.720   6.575  19.403  0.00  0.00    +0.000 C 
BRANCH  23  24
ATOM     24  N   UNL     1       2.420   5.131  19.456  0.00  0.00    +0.000 NA
ATOM     25  C   UNL     1       1.442   4.815  20.511  0.00  0.00    +0.000 C 
ATOM     26  C   UNL     1       1.220   3.311  20.620  0.00  0.00    +0.000 C 
ATOM     27  C   UNL     1       0.732   2.734  19.299  0.00  0.00    +0.000 C 
ATOM     28  C   UNL     1       1.688   3.128  18.176  0.00  0.00    +0.000 C 
ATOM     29  C   UNL     1       1.936   4.639  18.149  0.00  0.00    +0.000 C 
ENDBRANCH  23  24
ENDBRANCH  22  23
ENDBRANCH  21  22
ENDBRANCH   1  21
TORSDOF 6
ENDMDL
MODEL 2
REMARK VINA RESULT:      -7.0      1.108      1.433
REMARK  Name = 
REMARK  9 active torsions:
REMARK  status: ('A' for Active; 'I' for Inactive)
REMARK    1  A    between atoms: C_1  and  C_2
REMARK    2  A    between atoms: C_2  and  N_3
REMARK    3  A    between atoms: N_3  and  C_4
REMARK    4  A    between atoms: C_4  and  C_5
REMARK    5  A    between atoms: C_5  and  C_6
REMARK    6  A    between atoms: C_6  and  N_7
REMARK    7  A    between atoms: C_15  and  C_16
REMARK    8  A    between atoms: N_19  and  C_20
REMARK    9  A    between atoms: C_23  and  C_24
REMARK                            x       y       z     vdW  Elec       q    Type
REMARK                         _______ _______ _______ _____ _____    ______ ____
ROOT
ATOM      1  N   UNL     1       0.814   9.700  20.638  0.00  0.00    +0.000 N 
ATOM      2  C   UNL     1       0.515  10.926  19.992  0.00  0.00    +0.000 A 
ATOM      3  C   UNL     1       1.539  11.630  19.399  0.00  0.00    +0.000 A 
ATOM      4  C   UNL     1       1.224  12.831  18.799  0.00  0.00    +0.000 A 
ATOM      5  C   UNL     1       2.274  13.643  18.110  0.00  0.00    +0.000 C 
ATOM      6  N   UNL     1      -0.037  13.319  18.788  0.00  0.00    +0.000 NA
ATOM      7  C   UNL     1      -0.979  12.575  19.380  0.00  0.00    +0.000 A 
ATOM      8  N   UNL     1      -2.277  13.091  19.364  0.00  0.00    +0.000 N 
ATOM      9  N   UNL     1      -0.738  11.401  19.983  0.00  0.00    +0.000 NA
ATOM     10  H   UNL     1      -2.271  13.981  18.891  0.00  0.00    +0.000 HD
ENDROOT
BRANCH   8  11
ATOM     11  C   UNL     1      -3.493  12.388  19.253  0.00  0.00    +0.000 A 
ATOM     12  C   UNL     1      -4.510  12.529  20.207  0.00  0.00    +0.000 A 
ATOM     13  C   UNL     1      -5.706  11.812  20.110  0.00  0.00    +0.000 A 
ATOM     14  C   UNL     1      -5.925  10.938  19.044  0.00  0.00    +0.000 A 
ATOM     15  C   UNL     1      -7.203  10.161  18.941  0.00  0.00    +0.000 C 
ATOM     16  C   UNL     1      -4.928  10.795  18.074  0.00  0.00    +0.000 A 
ATOM     17  C   UNL     1      -3.724  11.505  18.181  0.00  0.00    +0.000 A 
ATOM     18 BR   UNL     1      -2.425  11.251  16.814  0.00  0.00    +0.000 Br
ENDBRANCH   8  11
BRANCH   1  20
ATOM     19  C   UNL     1       0.316   9.484  23.056  0.00  0.00    +0.000 C 
ATOM     20  C   UNL     1      -0.208   9.312  21.630  0.00  0.00    +0.000 C 
ENDBRANCH   1  20
BRANCH   1  21
ATOM     21  C   UNL     1       1.201   8.653  19.657  0.00  0.00    +0.000 C 
BRANCH  21  22
ATOM     22  C   UNL     1       1.772   7.437  20.399  0.00  0.00    +0.000 C 
BRANCH  22  23
ATOM     23  C   UNL     1       2.724   6.565  19.551  0.00  0.00    +0.000 C 
BRANCH  23  24
ATOM     24  N   UNL     1       2.416   5.122  19.552  0.00  0.00    +0.000 NA
ATOM     25  C   UNL     1       1.396   4.783  20.559  0.00  0.00    +0.000 C 
ATOM     26  C   UNL     1       1.164   3.277  20.617  0.00  0.00    +0.000 C 
ATOM     27  C   UNL     1       0.725   2.740  19.262  0.00  0.00    +0.000 C 
ATOM     28  C   UNL     1       1.725   3.160  18.189  0.00  0.00    +0.000 C 
ATOM     29  C   UNL     1       1.981   4.670  18.214  0.00  0.00    +0.000 C 
ENDBRANCH  23  24
ENDBRANCH  22  23
ENDBRANCH  21  22
ENDBRANCH   1  21
TORSDOF 6
ENDMDL
MODEL 3
REMARK VINA RESULT:      -7.0      2.159      3.529
REMARK  Name = 
REMARK  9 active torsions:
REMARK  status: ('A' for Active; 'I' for Inactive)
REMARK    1  A    between atoms: C_1  and  C_2
REMARK    2  A    between atoms: C_2  and  N_3
REMARK    3  A    between atoms: N_3  and  C_4
REMARK    4  A    between atoms: C_4  and  C_5
REMARK    5  A    between atoms: C_5  and  C_6
REMARK    6  A    between atoms: C_6  and  N_7
REMARK    7  A    between atoms: C_15  and  C_16
REMARK    8  A    between atoms: N_19  and  C_20
REMARK    9  A    between atoms: C_23  and  C_24
REMARK                            x       y       z     vdW  Elec       q    Type
REMARK                         _______ _______ _______ _____ _____    ______ ____
ROOT
ATOM      1  N   UNL     1      -0.445  11.065  19.590  0.00  0.00    +0.000 N 
ATOM      2  C   UNL     1      -1.590  11.095  18.755  0.00  0.00    +0.000 A 
ATOM      3  C   UNL     1      -1.557  10.416  17.558  0.00  0.00    +0.000 A 
ATOM      4  C   UNL     1      -2.675  10.484  16.754  0.00  0.00    +0.000 A 
ATOM      5  C   UNL     1      -2.728   9.752  15.451  0.00  0.00    +0.000 C 
ATOM      6  N   UNL     1      -3.773  11.190  17.109  0.00  0.00    +0.000 NA
ATOM      7  C   UNL     1      -3.731  11.819  18.290  0.00  0.00    +0.000 A 
ATOM      8  N   UNL     1      -4.870  12.547  18.643  0.00  0.00    +0.000 N 
ATOM      9  N   UNL     1      -2.675  11.796  19.116  0.00  0.00    +0.000 NA
ATOM     10  H   UNL     1      -5.552  12.470  17.904  0.00  0.00    +0.000 HD
ENDROOT
BRANCH   8  11
ATOM     11  C   UNL     1      -5.428  12.725  19.925  0.00  0.00    +0.000 A 
ATOM     12  C   UNL     1      -5.030  13.781  20.756  0.00  0.00    +0.000 A 
ATOM     13  C   UNL     1      -5.565  13.942  22.038  0.00  0.00    +0.000 A 
ATOM     14  C   UNL     1      -6.526  13.054  22.522  0.00  0.00    +0.000 A 
ATOM     15  C   UNL     1      -7.096  13.218  23.899  0.00  0.00    +0.000 C 
ATOM     16  C   UNL     1      -6.947  12.002  21.702  0.00  0.00    +0.000 A 
ATOM     17  C   UNL     1      -6.399  11.835  20.422  0.00  0.00    +0.000 A 
ATOM     18 BR   UNL     1      -7.031  10.379  19.374  0.00  0.00    +0.000 Br
ENDBRANCH   8  11
BRANCH   1  20
ATOM     19  C   UNL     1      -0.534  11.689  21.987  0.00  0.00    +0.000 C 
ATOM     20  C   UNL     1      -0.405  12.188  20.548  0.00  0.00    +0.000 C 
ENDBRANCH   1  20
BRANCH   1  21
ATOM     21  C   UNL     1      -0.232   9.711  20.163  0.00  0.00    +0.000 C 
BRANCH  21  22
ATOM     22  C   UNL     1       1.185   9.225  19.827  0.00  0.00    +0.000 C 
BRANCH  22  23
ATOM     23  C   UNL     1       1.631   7.973  20.612  0.00  0.00    +0.000 C 
BRANCH  23  24
ATOM     24  N   UNL     1       1.658   6.722  19.830  0.00  0.00    +0.000 NA
ATOM     25  C   UNL     1       2.793   6.690  18.892  0.00  0.00    +0.000 C 
ATOM     26  C   UNL     1       2.748   5.439  18.021  0.00  0.00    +0.000 C 
ATOM     27  C   UNL     1       2.770   4.179  18.874  0.00  0.00    +0.000 C 
ATOM     28  C   UNL     1       1.654   4.236  19.913  0.00  0.00    +0.000 C 
ATOM     29  C   UNL     1       1.696   5.541  20.716  0.00  0.00    +0.000 C 
ENDBRANCH  23  24
ENDBRANCH  22  23
ENDBRANCH  21  22
ENDBRANCH   1  21
TORSDOF 6
ENDMDL
MODEL 4
REMARK VINA RESULT:      -7.0      2.297      3.856
REMARK  Name = 
REMARK  9 active torsions:
REMARK  status: ('A' for Active; 'I' for Inactive)
REMARK    1  A    between atoms: C_1  and  C_2
REMARK    2  A    between atoms: C_2  and  N_3
REMARK    3  A    between atoms: N_3  and  C_4
REMARK    4  A    between atoms: C_4  and  C_5
REMARK    5  A    between atoms: C_5  and  C_6
REMARK    6  A    between atoms: C_6  and  N_7
REMARK    7  A    between atoms: C_15  and  C_16
REMARK    8  A    between atoms: N_19  and  C_20
REMARK    9  A    between atoms: C_23  and  C_24
REMARK                            x       y       z     vdW  Elec       q    Type
REMARK                         _______ _______ _______ _____ _____    ______ ____
ROOT
ATOM      1  N   UNL     1       0.810  10.681  19.014  0.00  0.00    +0.000 N 
ATOM      2  C   UNL     1      -0.554  10.919  18.711  0.00  0.00    +0.000 A 
ATOM      3  C   UNL     1      -1.148  10.186  17.708  0.00  0.00    +0.000 A 
ATOM      4  C   UNL     1      -2.468  10.455  17.417  0.00  0.00    +0.000 A 
ATOM      5  C   UNL     1      -3.193   9.683  16.360  0.00  0.00    +0.000 C 
ATOM      6  N   UNL     1      -3.171  11.405  18.076  0.00  0.00    +0.000 NA
ATOM      7  C   UNL     1      -2.525  12.072  19.041  0.00  0.00    +0.000 A 
ATOM      8  N   UNL     1      -3.260  13.052  19.713  0.00  0.00    +0.000 N 
ATOM      9  N   UNL     1      -1.243  11.860  19.371  0.00  0.00    +0.000 NA
ATOM     10  H   UNL     1      -4.191  13.088  19.326  0.00  0.00    +0.000 HD
ENDROOT
BRANCH   8  11
ATOM     11  C   UNL     1      -3.187  13.418  21.071  0.00  0.00    +0.000 A 
ATOM     12  C   UNL     1      -3.925  12.743  22.052  0.00  0.00    +0.000 A 
ATOM     13  C   UNL     1      -3.873  13.123  23.397  0.00  0.00    +0.000 A 
ATOM     14  C   UNL     1      -3.068  14.189  23.802  0.00  0.00    +0.000 A 
ATOM     15  C   UNL     1      -3.016  14.606  25.240  0.00  0.00    +0.000 C 
ATOM     16  C   UNL     1      -2.312  14.867  22.839  0.00  0.00    +0.000 A 
ATOM     17  C   UNL     1      -2.376  14.491  21.490  0.00  0.00    +0.000 A 
ATOM     18 BR   UNL     1      -1.313  15.466  20.250  0.00  0.00    +0.000 Br
ENDBRANCH   8  11
BRANCH   1  20
ATOM     19  C   UNL     1       2.182  12.723  18.719  0.00  0.00    +0.000 C 
ATOM     20  C   UNL     1       1.448  11.817  19.707  0.00  0.00    +0.000 C 
ENDBRANCH   1  20
BRANCH   1  21
ATOM     21  C   UNL     1       0.998   9.346  19.639  0.00  0.00    +0.000 C 
BRANCH  21  22
ATOM     22  C   UNL     1       1.959   8.507  18.785  0.00  0.00    +0.000 C 
BRANCH  22  23
ATOM     23  C   UNL     1       2.549   7.280  19.513  0.00  0.00    +0.000 C 
BRANCH  23  24
ATOM     24  N   UNL     1       1.806   6.021  19.317  0.00  0.00    +0.000 NA
ATOM     25  C   UNL     1       2.307   5.268  18.153  0.00  0.00    +0.000 C 
ATOM     26  C   UNL     1       1.464   4.022  17.903  0.00  0.00    +0.000 C 
ATOM     27  C   UNL     1       1.461   3.112  19.123  0.00  0.00    +0.000 C 
ATOM     28  C   UNL     1       1.031   3.899  20.357  0.00  0.00    +0.000 C 
ATOM     29  C   UNL     1       1.858   5.178  20.529  0.00  0.00    +0.000 C 
ENDBRANCH  23  24
ENDBRANCH  22  23
ENDBRANCH  21  22
ENDBRANCH   1  21
TORSDOF 6
ENDMDL
MODEL 5
REMARK VINA RESULT:      -7.0      2.123      3.648
REMARK  Name = 
REMARK  9 active torsions:
REMARK  status: ('A' for Active; 'I' for Inactive)
REMARK    1  A    between atoms: C_1  and  C_2
REMARK    2  A    between atoms: C_2  and  N_3
REMARK    3  A    between atoms: N_3  and  C_4
REMARK    4  A    between atoms: C_4  and  C_5
REMARK    5  A    between atoms: C_5  and  C_6
REMARK    6  A    between atoms: C_6  and  N_7
REMARK    7  A    between atoms: C_15  and  C_16
REMARK    8  A    between atoms: N_19  and  C_20
REMARK    9  A    between atoms: C_23  and  C_24
REMARK                            x       y       z     vdW  Elec       q    Type
REMARK                         _______ _______ _______ _____ _____    ______ ____
ROOT
ATOM      1  N   UNL     1       0.776  10.585  18.834  0.00  0.00    +0.000 N 
ATOM      2  C   UNL     1      -0.576  10.775  18.453  0.00  0.00    +0.000 A 
ATOM      3  C   UNL     1      -1.074  10.054  17.391  0.00  0.00    +0.000 A 
ATOM      4  C   UNL     1      -2.384  10.276  17.026  0.00  0.00    +0.000 A 
ATOM      5  C   UNL     1      -3.007   9.513  15.901  0.00  0.00    +0.000 C 
ATOM      6  N   UNL     1      -3.168  11.170  17.672  0.00  0.00    +0.000 NA
ATOM      7  C   UNL     1      -2.614  11.828  18.697  0.00  0.00    +0.000 A 
ATOM      8  N   UNL     1      -3.432  12.751  19.354  0.00  0.00    +0.000 N 
ATOM      9  N   UNL     1      -1.346  11.661  19.100  0.00  0.00    +0.000 NA
ATOM     10  H   UNL     1      -4.339  12.761  18.911  0.00  0.00    +0.000 HD
ENDROOT
BRANCH   8  11
ATOM     11  C   UNL     1      -3.460  13.070  20.726  0.00  0.00    +0.000 A 
ATOM     12  C   UNL     1      -2.337  13.599  21.378  0.00  0.00    +0.000 A 
ATOM     13  C   UNL     1      -2.356  13.891  22.745  0.00  0.00    +0.000 A 
ATOM     14  C   UNL     1      -3.509  13.671  23.501  0.00  0.00    +0.000 A 
ATOM     15  C   UNL     1      -3.531  13.975  24.968  0.00  0.00    +0.000 C 
ATOM     16  C   UNL     1      -4.645  13.157  22.866  0.00  0.00    +0.000 A 
ATOM     17  C   UNL     1      -4.618  12.854  21.497  0.00  0.00    +0.000 A 
ATOM     18 BR   UNL     1      -6.209  12.161  20.716  0.00  0.00    +0.000 Br
ENDBRANCH   8  11
BRANCH   1  20
ATOM     19  C   UNL     1       2.110  12.670  18.703  0.00  0.00    +0.000 C 
ATOM     20  C   UNL     1       1.318  11.722  19.604  0.00  0.00    +0.000 C 
ENDBRANCH   1  20
BRANCH   1  21
ATOM     21  C   UNL     1       0.986   9.238  19.424  0.00  0.00    +0.000 C 
BRANCH  21  22
ATOM     22  C   UNL     1       1.981   8.447  18.563  0.00  0.00    +0.000 C 
BRANCH  22  23
ATOM     23  C   UNL     1       2.627   7.243  19.284  0.00  0.00    +0.000 C 
BRANCH  23  24
ATOM     24  N   UNL     1       1.884   5.974  19.167  0.00  0.00    +0.000 NA
ATOM     25  C   UNL     1       2.430   5.119  18.098  0.00  0.00    +0.000 C 
ATOM     26  C   UNL     1       1.591   3.859  17.922  0.00  0.00    +0.000 C 
ATOM     27  C   UNL     1       1.528   3.060  19.217  0.00  0.00    +0.000 C 
ATOM     28  C   UNL     1       1.050   3.955  20.356  0.00  0.00    +0.000 C 
ATOM     29  C   UNL     1       1.877   5.241  20.450  0.00  0.00    +0.000 C 
ENDBRANCH  23  24
ENDBRANCH  22  23
ENDBRANCH  21  22
ENDBRANCH   1  21
TORSDOF 6
ENDMDL
MODEL 6
REMARK VINA RESULT:      -6.9      2.505      4.109
REMARK  Name = 
REMARK  9 active torsions:
REMARK  status: ('A' for Active; 'I' for Inactive)
REMARK    1  A    between atoms: C_1  and  C_2
REMARK    2  A    between atoms: C_2  and  N_3
REMARK    3  A    between atoms: N_3  and  C_4
REMARK    4  A    between atoms: C_4  and  C_5
REMARK    5  A    between atoms: C_5  and  C_6
REMARK    6  A    between atoms: C_6  and  N_7
REMARK    7  A    between atoms: C_15  and  C_16
REMARK    8  A    between atoms: N_19  and  C_20
REMARK    9  A    between atoms: C_23  and  C_24
REMARK                            x       y       z     vdW  Elec       q    Type
REMARK                         _______ _______ _______ _____ _____    ______ ____
ROOT
ATOM      1  N   UNL     1       0.845  10.810  18.946  0.00  0.00    +0.000 N 
ATOM      2  C   UNL     1      -0.537  11.014  18.705  0.00  0.00    +0.000 A 
ATOM      3  C   UNL     1      -1.157  10.270  17.728  0.00  0.00    +0.000 A 
ATOM      4  C   UNL     1      -2.495  10.506  17.498  0.00  0.00    +0.000 A 
ATOM      5  C   UNL     1      -3.248   9.720  16.472  0.00  0.00    +0.000 C 
ATOM      6  N   UNL     1      -3.191  11.436  18.193  0.00  0.00    +0.000 NA
ATOM      7  C   UNL     1      -2.519  12.116  19.130  0.00  0.00    +0.000 A 
ATOM      8  N   UNL     1      -3.247  13.075  19.839  0.00  0.00    +0.000 N 
ATOM      9  N   UNL     1      -1.218  11.936  19.401  0.00  0.00    +0.000 NA
ATOM     10  H   UNL     1      -4.196  13.089  19.495  0.00  0.00    +0.000 HD
ENDROOT
BRANCH   8  11
ATOM     11  C   UNL     1      -3.122  13.439  21.194  0.00  0.00    +0.000 A 
ATOM     12  C   UNL     1      -3.766  12.717  22.209  0.00  0.00    +0.000 A 
ATOM     13  C   UNL     1      -3.663  13.094  23.551  0.00  0.00    +0.000 A 
ATOM     14  C   UNL     1      -2.899  14.202  23.920  0.00  0.00    +0.000 A 
ATOM     15  C   UNL     1      -2.793  14.614  25.357  0.00  0.00    +0.000 C 
ATOM     16  C   UNL     1      -2.236  14.927  22.924  0.00  0.00    +0.000 A 
ATOM     17  C   UNL     1      -2.352  14.554  21.577  0.00  0.00    +0.000 A 
ATOM     18 BR   UNL     1      -1.415  15.595  20.289  0.00  0.00    +0.000 Br
ENDBRANCH   8  11
BRANCH   1  20
ATOM     19  C   UNL     1       2.249  12.825  18.611  0.00  0.00    +0.000 C 
ATOM     20  C   UNL     1       1.486  11.960  19.615  0.00  0.00    +0.000 C 
ENDBRANCH   1  20
BRANCH   1  21
ATOM     21  C   UNL     1       1.095   9.479  19.556  0.00  0.00    +0.000 C 
BRANCH  21  22
ATOM     22  C   UNL     1       1.958   8.632  18.610  0.00  0.00    +0.000 C 
BRANCH  22  23
ATOM     23  C   UNL     1       2.335   7.242  19.167  0.00  0.00    +0.000 C 
BRANCH  23  24
ATOM     24  N   UNL     1       2.723   6.246  18.150  0.00  0.00    +0.000 NA
ATOM     25  C   UNL     1       4.169   6.288  17.871  0.00  0.00    +0.000 C 
ATOM     26  C   UNL     1       4.538   5.326  16.747  0.00  0.00    +0.000 C 
ATOM     27  C   UNL     1       4.138   3.899  17.097  0.00  0.00    +0.000 C 
ATOM     28  C   UNL     1       2.661   3.852  17.477  0.00  0.00    +0.000 C 
ATOM     29  C   UNL     1       2.323   4.884  18.559  0.00  0.00    +0.000 C 
ENDBRANCH  23  24
ENDBRANCH  22  23
ENDBRANCH  21  22
ENDBRANCH   1  21
TORSDOF 6
ENDMDL
MODEL 7
REMARK VINA RESULT:      -6.8      0.933      1.403
REMARK  Name = 
REMARK  9 active torsions:
REMARK  status: ('A' for Active; 'I' for Inactive)
REMARK    1  A    between atoms: C_1  and  C_2
REMARK    2  A    between atoms: C_2  and  N_3
REMARK    3  A    between atoms: N_3  and  C_4
REMARK    4  A    between atoms: C_4  and  C_5
REMARK    5  A    between atoms: C_5  and  C_6
REMARK    6  A    between atoms: C_6  and  N_7
REMARK    7  A    between atoms: C_15  and  C_16
REMARK    8  A    between atoms: N_19  and  C_20
REMARK    9  A    between atoms: C_23  and  C_24
REMARK                            x       y       z     vdW  Elec       q    Type
REMARK                         _______ _______ _______ _____ _____    ______ ____
ROOT
ATOM      1  N   UNL     1       1.314   9.497  19.326  0.00  0.00    +0.000 N 
ATOM      2  C   UNL     1       0.988  10.859  19.102  0.00  0.00    +0.000 A 
ATOM      3  C   UNL     1       1.967  11.707  18.637  0.00  0.00    +0.000 A 
ATOM      4  C   UNL     1       1.630  13.031  18.452  0.00  0.00    +0.000 A 
ATOM      5  C   UNL     1       2.629  14.010  17.924  0.00  0.00    +0.000 C 
ATOM      6  N   UNL     1       0.388  13.500  18.717  0.00  0.00    +0.000 NA
ATOM      7  C   UNL     1      -0.510  12.613  19.161  0.00  0.00    +0.000 A 
ATOM      8  N   UNL     1      -1.787  13.109  19.434  0.00  0.00    +0.000 N 
ATOM      9  N   UNL     1      -0.246  11.314  19.365  0.00  0.00    +0.000 NA
ATOM     10  H   UNL     1      -1.802  14.100  19.244  0.00  0.00    +0.000 HD
ENDROOT
BRANCH   8  11
ATOM     11  C   UNL     1      -3.029  12.470  19.251  0.00  0.00    +0.000 A 
ATOM     12  C   UNL     1      -3.254  11.602  18.173  0.00  0.00    +0.000 A 
ATOM     13  C   UNL     1      -4.494  10.988  17.976  0.00  0.00    +0.000 A 
ATOM     14  C   UNL     1      -5.547  11.217  18.863  0.00  0.00    +0.000 A 
ATOM     15  C   UNL     1      -6.882  10.568  18.651  0.00  0.00    +0.000 C 
ATOM     16  C   UNL     1      -5.338  12.069  19.954  0.00  0.00    +0.000 A 
ATOM     17  C   UNL     1      -4.097  12.693  20.141  0.00  0.00    +0.000 A 
ATOM     18 BR   UNL     1      -3.901  13.833  21.651  0.00  0.00    +0.000 Br
ENDBRANCH   8  11
BRANCH   1  20
ATOM     19  C   UNL     1       0.987   8.751  21.667  0.00  0.00    +0.000 C 
ATOM     20  C   UNL     1       0.386   8.834  20.264  0.00  0.00    +0.000 C 
ENDBRANCH   1  20
BRANCH   1  21
ATOM     21  C   UNL     1       1.567   8.786  18.047  0.00  0.00    +0.000 C 
BRANCH  21  22
ATOM     22  C   UNL     1       3.029   8.319  17.997  0.00  0.00    +0.000 C 
BRANCH  22  23
ATOM     23  C   UNL     1       3.205   6.813  17.703  0.00  0.00    +0.000 C 
BRANCH  23  24
ATOM     24  N   UNL     1       2.267   5.924  18.415  0.00  0.00    +0.000 NA
ATOM     25  C   UNL     1       2.259   4.568  17.841  0.00  0.00    +0.000 C 
ATOM     26  C   UNL     1       1.213   3.691  18.521  0.00  0.00    +0.000 C 
ATOM     27  C   UNL     1       1.470   3.598  20.018  0.00  0.00    +0.000 C 
ATOM     28  C   UNL     1       1.571   4.998  20.616  0.00  0.00    +0.000 C 
ATOM     29  C   UNL     1       2.582   5.865  19.858  0.00  0.00    +0.000 C 
ENDBRANCH  23  24
ENDBRANCH  22  23
ENDBRANCH  21  22
ENDBRANCH   1  21
TORSDOF 6
ENDMDL
MODEL 8
REMARK VINA RESULT:      -6.8      2.290      3.887
REMARK  Name = 
REMARK  9 active torsions:
REMARK  status: ('A' for Active; 'I' for Inactive)
REMARK    1  A    between atoms: C_1  and  C_2
REMARK    2  A    between atoms: C_2  and  N_3
REMARK    3  A    between atoms: N_3  and  C_4
REMARK    4  A    between atoms: C_4  and  C_5
REMARK    5  A    between atoms: C_5  and  C_6
REMARK    6  A    between atoms: C_6  and  N_7
REMARK    7  A    between atoms: C_15  and  C_16
REMARK    8  A    between atoms: N_19  and  C_20
REMARK    9  A    between atoms: C_23  and  C_24
REMARK                            x       y       z     vdW  Elec       q    Type
REMARK                         _______ _______ _______ _____ _____    ______ ____
ROOT
ATOM      1  N   UNL     1       0.633  10.709  18.669  0.00  0.00    +0.000 N 
ATOM      2  C   UNL     1      -0.739  10.868  18.351  0.00  0.00    +0.000 A 
ATOM      3  C   UNL     1      -1.269  10.134  17.314  0.00  0.00    +0.000 A 
ATOM      4  C   UNL     1      -2.599  10.327  17.010  0.00  0.00    +0.000 A 
ATOM      5  C   UNL     1      -3.257   9.549  15.915  0.00  0.00    +0.000 C 
ATOM      6  N   UNL     1      -3.372  11.205  17.690  0.00  0.00    +0.000 NA
ATOM      7  C   UNL     1      -2.786  11.878  18.688  0.00  0.00    +0.000 A 
ATOM      8  N   UNL     1      -3.593  12.783  19.381  0.00  0.00    +0.000 N 
ATOM      9  N   UNL     1      -1.498  11.739  19.032  0.00  0.00    +0.000 NA
ATOM     10  H   UNL     1      -4.519  12.773  18.981  0.00  0.00    +0.000 HD
ENDROOT
BRANCH   8  11
ATOM     11  C   UNL     1      -3.564  13.105  20.753  0.00  0.00    +0.000 A 
ATOM     12  C   UNL     1      -2.418  13.640  21.356  0.00  0.00    +0.000 A 
ATOM     13  C   UNL     1      -2.380  13.934  22.722  0.00  0.00    +0.000 A 
ATOM     14  C   UNL     1      -3.498  13.711  23.526  0.00  0.00    +0.000 A 
ATOM     15  C   UNL     1      -3.460  14.016  24.993  0.00  0.00    +0.000 C 
ATOM     16  C   UNL     1      -4.658  13.190  22.941  0.00  0.00    +0.000 A 
ATOM     17  C   UNL     1      -4.687  12.884  21.573  0.00  0.00    +0.000 A 
ATOM     18 BR   UNL     1      -6.306  12.182  20.860  0.00  0.00    +0.000 Br
ENDBRANCH   8  11
BRANCH   1  20
ATOM     19  C   UNL     1       2.050  12.736  18.506  0.00  0.00    +0.000 C 
ATOM     20  C   UNL     1       1.186  11.859  19.412  0.00  0.00    +0.000 C 
ENDBRANCH   1  20
BRANCH   1  21
ATOM     21  C   UNL     1       0.900   9.368  19.250  0.00  0.00    +0.000 C 
BRANCH  21  22
ATOM     22  C   UNL     1       1.767   8.550  18.283  0.00  0.00    +0.000 C 
BRANCH  22  23
ATOM     23  C   UNL     1       2.485   7.349  18.936  0.00  0.00    +0.000 C 
BRANCH  23  24
ATOM     24  N   UNL     1       2.776   6.225  18.024  0.00  0.00    +0.000 NA
ATOM     25  C   UNL     1       4.223   5.966  17.924  0.00  0.00    +0.000 C 
ATOM     26  C   UNL     1       4.513   4.872  16.902  0.00  0.00    +0.000 C 
ATOM     27  C   UNL     1       3.799   3.579  17.269  0.00  0.00    +0.000 C 
ATOM     28  C   UNL     1       2.309   3.847  17.466  0.00  0.00    +0.000 C 
ATOM     29  C   UNL     1       2.067   5.000  18.446  0.00  0.00    +0.000 C 
ENDBRANCH  23  24
ENDBRANCH  22  23
ENDBRANCH  21  22
ENDBRANCH   1  21
TORSDOF 6
ENDMDL
MODEL 9
REMARK VINA RESULT:      -6.7      2.426      3.981
REMARK  Name = 
REMARK  9 active torsions:
REMARK  status: ('A' for Active; 'I' for Inactive)
REMARK    1  A    between atoms: C_1  and  C_2
REMARK    2  A    between atoms: C_2  and  N_3
REMARK    3  A    between atoms: N_3  and  C_4
REMARK    4  A    between atoms: C_4  and  C_5
REMARK    5  A    between atoms: C_5  and  C_6
REMARK    6  A    between atoms: C_6  and  N_7
REMARK    7  A    between atoms: C_15  and  C_16
REMARK    8  A    between atoms: N_19  and  C_20
REMARK    9  A    between atoms: C_23  and  C_24
REMARK                            x       y       z     vdW  Elec       q    Type
REMARK                         _______ _______ _______ _____ _____    ______ ____
ROOT
ATOM      1  N   UNL     1       0.756  10.543  18.825  0.00  0.00    +0.000 N 
ATOM      2  C   UNL     1      -0.588  10.759  18.428  0.00  0.00    +0.000 A 
ATOM      3  C   UNL     1      -1.081  10.064  17.348  0.00  0.00    +0.000 A 
ATOM      4  C   UNL     1      -2.382  10.312  16.968  0.00  0.00    +0.000 A 
ATOM      5  C   UNL     1      -3.001   9.578  15.822  0.00  0.00    +0.000 C 
ATOM      6  N   UNL     1      -3.162  11.207  17.619  0.00  0.00    +0.000 NA
ATOM      7  C   UNL     1      -2.613  11.839  18.663  0.00  0.00    +0.000 A 
ATOM      8  N   UNL     1      -3.427  12.763  19.324  0.00  0.00    +0.000 N 
ATOM      9  N   UNL     1      -1.354  11.646  19.080  0.00  0.00    +0.000 NA
ATOM     10  H   UNL     1      -4.327  12.794  18.869  0.00  0.00    +0.000 HD
ENDROOT
BRANCH   8  11
ATOM     11  C   UNL     1      -3.469  13.059  20.701  0.00  0.00    +0.000 A 
ATOM     12  C   UNL     1      -2.366  13.613  21.365  0.00  0.00    +0.000 A 
ATOM     13  C   UNL     1      -2.399  13.883  22.736  0.00  0.00    +0.000 A 
ATOM     14  C   UNL     1      -3.545  13.614  23.485  0.00  0.00    +0.000 A 
ATOM     15  C   UNL     1      -3.582  13.892  24.957  0.00  0.00    +0.000 C 
ATOM     16  C   UNL     1      -4.662  13.073  22.838  0.00  0.00    +0.000 A 
ATOM     17  C   UNL     1      -4.621  12.792  21.465  0.00  0.00    +0.000 A 
ATOM     18 BR   UNL     1      -6.186  12.060  20.667  0.00  0.00    +0.000 Br
ENDBRANCH   8  11
BRANCH   1  20
ATOM     19  C   UNL     1       2.073  12.641  18.738  0.00  0.00    +0.000 C 
ATOM     20  C   UNL     1       1.305  11.658  19.622  0.00  0.00    +0.000 C 
ENDBRANCH   1  20
BRANCH   1  21
ATOM     21  C   UNL     1       0.938   9.183  19.394  0.00  0.00    +0.000 C 
BRANCH  21  22
ATOM     22  C   UNL     1       2.044   8.446  18.627  0.00  0.00    +0.000 C 
BRANCH  22  23
ATOM     23  C   UNL     1       2.406   7.062  19.208  0.00  0.00    +0.000 C 
BRANCH  23  24
ATOM     24  N   UNL     1       3.507   6.363  18.516  0.00  0.00    +0.000 NA
ATOM     25  C   UNL     1       3.083   5.047  18.007  0.00  0.00    +0.000 C 
ATOM     26  C   UNL     1       4.256   4.296  17.387  0.00  0.00    +0.000 C 
ATOM     27  C   UNL     1       4.875   5.096  16.249  0.00  0.00    +0.000 C 
ATOM     28  C   UNL     1       5.239   6.496  16.736  0.00  0.00    +0.000 C 
ATOM     29  C   UNL     1       4.050   7.184  17.415  0.00  0.00    +0.000 C 
ENDBRANCH  23  24
ENDBRANCH  22  23
ENDBRANCH  21  22
ENDBRANCH   1  21
TORSDOF 6
ENDMDL
