MODEL 1
REMARK VINA RESULT:      -8.3      0.000      0.000
REMARK  Name = 
REMARK  3 active torsions:
REMARK  status: ('A' for Active; 'I' for Inactive)
REMARK    1  A    between atoms: C_4  and  C_5
REMARK    2  A    between atoms: N_16  and  C_17
REMARK    3  A    between atoms: C_17  and  C_18
REMARK                            x       y       z     vdW  Elec       q    Type
REMARK                         _______ _______ _______ _____ _____    ______ ____
ROOT
ATOM      1  O   UNL     1       6.286   7.282  16.364  0.00  0.00    +0.000 OA
ATOM      2  C   UNL     1       6.952   6.982  17.337  0.00  0.00    +0.000 C 
ATOM      3  C   UNL     1       7.877   7.895  18.067  0.00  0.00    +0.000 C 
ATOM      4  C   UNL     1       8.028   9.179  17.716  0.00  0.00    +0.000 C 
ATOM      5  C   UNL     1       8.551   7.127  19.162  0.00  0.00    +0.000 C 
ATOM      6  C   UNL     1       7.789   5.809  19.197  0.00  0.00    +0.000 C 
ATOM      7  N   UNL     1       7.021   5.764  17.973  0.00  0.00    +0.000 N 
ENDROOT
BRANCH   4   8
ATOM      8  C   UNL     1       8.988  10.065  18.379  0.00  0.00    +0.000 A 
ATOM      9  C   UNL     1       8.967  10.179  19.786  0.00  0.00    +0.000 A 
ATOM     10  C   UNL     1       9.838  11.051  20.447  0.00  0.00    +0.000 A 
ATOM     11  C   UNL     1      10.710  11.788  19.676  0.00  0.00    +0.000 A 
ATOM     12  C   UNL     1      10.738  11.676  18.307  0.00  0.00    +0.000 A 
ATOM     13  C   UNL     1       9.893  10.820  17.626  0.00  0.00    +0.000 A 
ATOM     14  O   UNL     1      11.668  12.494  17.741  0.00  0.00    +0.000 OA
ATOM     15  C   UNL     1      12.195  13.155  18.910  0.00  0.00    +0.000 C 
ATOM     16  O   UNL     1      11.612  12.693  20.144  0.00  0.00    +0.000 OA
ENDBRANCH   4   8
BRANCH   7  17
ATOM     17  C   UNL     1       6.193   4.623  17.616  0.00  0.00    +0.000 C 
BRANCH  17  18
ATOM     18  C   UNL     1       4.777   4.752  18.108  0.00  0.00    +0.000 A 
ATOM     19  C   UNL     1       4.496   5.309  19.364  0.00  0.00    +0.000 A 
ATOM     20  C   UNL     1       3.173   5.459  19.796  0.00  0.00    +0.000 A 
ATOM     21  C   UNL     1       2.117   5.067  18.974  0.00  0.00    +0.000 A 
ATOM     22  C   UNL     1       2.386   4.498  17.731  0.00  0.00    +0.000 A 
ATOM     23  C   UNL     1       3.705   4.339  17.313  0.00  0.00    +0.000 A 
ATOM     24  F   UNL     1       3.938   3.777  16.117  0.00  0.00    +0.000 F 
ENDBRANCH  17  18
ENDBRANCH   7  17
TORSDOF 3
ENDMDL
MODEL 2
REMARK VINA RESULT:      -8.3      6.371      9.156
REMARK  Name = 
REMARK  3 active torsions:
REMARK  status: ('A' for Active; 'I' for Inactive)
REMARK    1  A    between atoms: C_4  and  C_5
REMARK    2  A    between atoms: N_16  and  C_17
REMARK    3  A    between atoms: C_17  and  C_18
REMARK                            x       y       z     vdW  Elec       q    Type
REMARK                         _______ _______ _______ _____ _____    ______ ____
ROOT
ATOM      1  O   UNL     1       2.018   9.863  17.356  0.00  0.00    +0.000 OA
ATOM      2  C   UNL     1       1.759   9.309  18.409  0.00  0.00    +0.000 C 
ATOM      3  C   UNL     1       2.219   7.950  18.807  0.00  0.00    +0.000 C 
ATOM      4  C   UNL     1       3.016   7.212  18.021  0.00  0.00    +0.000 C 
ATOM      5  C   UNL     1       1.634   7.612  20.145  0.00  0.00    +0.000 C 
ATOM      6  C   UNL     1       1.032   8.930  20.614  0.00  0.00    +0.000 C 
ATOM      7  N   UNL     1       0.993   9.784  19.448  0.00  0.00    +0.000 N 
ENDROOT
BRANCH   4   8
ATOM      8  C   UNL     1       3.414   5.846  18.369  0.00  0.00    +0.000 A 
ATOM      9  C   UNL     1       4.602   5.638  19.104  0.00  0.00    +0.000 A 
ATOM     10  C   UNL     1       5.036   4.345  19.412  0.00  0.00    +0.000 A 
ATOM     11  C   UNL     1       4.264   3.292  18.974  0.00  0.00    +0.000 A 
ATOM     12  C   UNL     1       3.104   3.489  18.264  0.00  0.00    +0.000 A 
ATOM     13  C   UNL     1       2.647   4.755  17.948  0.00  0.00    +0.000 A 
ATOM     14  O   UNL     1       2.499   2.318  17.925  0.00  0.00    +0.000 OA
ATOM     15  C   UNL     1       3.431   1.363  18.476  0.00  0.00    +0.000 C 
ATOM     16  O   UNL     1       4.539   1.973  19.167  0.00  0.00    +0.000 OA
ENDBRANCH   4   8
BRANCH   7  17
ATOM     17  C   UNL     1       0.429  11.124  19.485  0.00  0.00    +0.000 C 
BRANCH  17  18
ATOM     18  C   UNL     1      -0.997  11.171  19.009  0.00  0.00    +0.000 A 
ATOM     19  C   UNL     1      -1.458  10.289  18.020  0.00  0.00    +0.000 A 
ATOM     20  C   UNL     1      -2.796  10.315  17.610  0.00  0.00    +0.000 A 
ATOM     21  C   UNL     1      -3.691  11.213  18.193  0.00  0.00    +0.000 A 
ATOM     22  C   UNL     1      -3.240  12.103  19.164  0.00  0.00    +0.000 A 
ATOM     23  C   UNL     1      -1.903  12.081  19.557  0.00  0.00    +0.000 A 
ATOM     24  F   UNL     1      -1.491  12.957  20.486  0.00  0.00    +0.000 F 
ENDBRANCH  17  18
ENDBRANCH   7  17
TORSDOF 3
ENDMDL
MODEL 3
REMARK VINA RESULT:      -8.1      5.307      8.327
REMARK  Name = 
REMARK  3 active torsions:
REMARK  status: ('A' for Active; 'I' for Inactive)
REMARK    1  A    between atoms: C_4  and  C_5
REMARK    2  A    between atoms: N_16  and  C_17
REMARK    3  A    between atoms: C_17  and  C_18
REMARK                            x       y       z     vdW  Elec       q    Type
REMARK                         _______ _______ _______ _____ _____    ______ ____
ROOT
ATOM      1  O   UNL     1       2.592   5.608  20.195  0.00  0.00    +0.000 OA
ATOM      2  C   UNL     1       2.502   6.607  19.505  0.00  0.00    +0.000 C 
ATOM      3  C   UNL     1       1.759   7.846  19.869  0.00  0.00    +0.000 C 
ATOM      4  C   UNL     1       1.135   7.978  21.048  0.00  0.00    +0.000 C 
ATOM      5  C   UNL     1       1.839   8.812  18.727  0.00  0.00    +0.000 C 
ATOM      6  C   UNL     1       2.870   8.184  17.798  0.00  0.00    +0.000 C 
ATOM      7  N   UNL     1       3.036   6.822  18.256  0.00  0.00    +0.000 N 
ENDROOT
BRANCH   4   8
ATOM      8  C   UNL     1       0.341   9.162  21.386  0.00  0.00    +0.000 A 
ATOM      9  C   UNL     1       0.059   9.440  22.741  0.00  0.00    +0.000 A 
ATOM     10  C   UNL     1      -0.736  10.535  23.096  0.00  0.00    +0.000 A 
ATOM     11  C   UNL     1      -1.227  11.323  22.079  0.00  0.00    +0.000 A 
ATOM     12  C   UNL     1      -0.950  11.060  20.759  0.00  0.00    +0.000 A 
ATOM     13  C   UNL     1      -0.165   9.988  20.378  0.00  0.00    +0.000 A 
ATOM     14  O   UNL     1      -1.536  11.956  19.919  0.00  0.00    +0.000 OA
ATOM     15  C   UNL     1      -2.239  12.792  20.862  0.00  0.00    +0.000 C 
ATOM     16  O   UNL     1      -2.026  12.414  22.236  0.00  0.00    +0.000 OA
ENDBRANCH   4   8
BRANCH   7  17
ATOM     17  C   UNL     1       3.912   5.878  17.582  0.00  0.00    +0.000 C 
BRANCH  17  18
ATOM     18  C   UNL     1       5.366   6.101  17.898  0.00  0.00    +0.000 A 
ATOM     19  C   UNL     1       6.121   7.051  17.193  0.00  0.00    +0.000 A 
ATOM     20  C   UNL     1       7.463   7.278  17.520  0.00  0.00    +0.000 A 
ATOM     21  C   UNL     1       8.062   6.569  18.562  0.00  0.00    +0.000 A 
ATOM     22  C   UNL     1       7.325   5.612  19.257  0.00  0.00    +0.000 A 
ATOM     23  C   UNL     1       5.994   5.382  18.917  0.00  0.00    +0.000 A 
ATOM     24  F   UNL     1       5.310   4.447  19.593  0.00  0.00    +0.000 F 
ENDBRANCH  17  18
ENDBRANCH   7  17
TORSDOF 3
ENDMDL
MODEL 4
REMARK VINA RESULT:      -8.1      6.731      9.242
REMARK  Name = 
REMARK  3 active torsions:
REMARK  status: ('A' for Active; 'I' for Inactive)
REMARK    1  A    between atoms: C_4  and  C_5
REMARK    2  A    between atoms: N_16  and  C_17
REMARK    3  A    between atoms: C_17  and  C_18
REMARK                            x       y       z     vdW  Elec       q    Type
REMARK                         _______ _______ _______ _____ _____    ______ ____
ROOT
ATOM      1  O   UNL     1       2.035   9.570  17.380  0.00  0.00    +0.000 OA
ATOM      2  C   UNL     1       1.799   9.017  18.439  0.00  0.00    +0.000 C 
ATOM      3  C   UNL     1       2.093   7.591  18.754  0.00  0.00    +0.000 C 
ATOM      4  C   UNL     1       2.696   6.780  17.874  0.00  0.00    +0.000 C 
ATOM      5  C   UNL     1       1.594   7.287  20.134  0.00  0.00    +0.000 C 
ATOM      6  C   UNL     1       1.236   8.656  20.695  0.00  0.00    +0.000 C 
ATOM      7  N   UNL     1       1.212   9.554  19.561  0.00  0.00    +0.000 N 
ENDROOT
BRANCH   4   8
ATOM      8  C   UNL     1       2.923   5.358  18.145  0.00  0.00    +0.000 A 
ATOM      9  C   UNL     1       2.006   4.405  17.650  0.00  0.00    +0.000 A 
ATOM     10  C   UNL     1       2.167   3.044  17.930  0.00  0.00    +0.000 A 
ATOM     11  C   UNL     1       3.247   2.676  18.702  0.00  0.00    +0.000 A 
ATOM     12  C   UNL     1       4.144   3.599  19.181  0.00  0.00    +0.000 A 
ATOM     13  C   UNL     1       4.014   4.950  18.917  0.00  0.00    +0.000 A 
ATOM     14  O   UNL     1       5.130   3.025  19.924  0.00  0.00    +0.000 OA
ATOM     15  C   UNL     1       4.728   1.640  19.882  0.00  0.00    +0.000 C 
ATOM     16  O   UNL     1       3.550   1.406  19.086  0.00  0.00    +0.000 OA
ENDBRANCH   4   8
BRANCH   7  17
ATOM     17  C   UNL     1       0.855  10.958  19.689  0.00  0.00    +0.000 C 
BRANCH  17  18
ATOM     18  C   UNL     1      -0.577  11.232  19.318  0.00  0.00    +0.000 A 
ATOM     19  C   UNL     1      -1.180  10.578  18.233  0.00  0.00    +0.000 A 
ATOM     20  C   UNL     1      -2.524  10.812  17.919  0.00  0.00    +0.000 A 
ATOM     21  C   UNL     1      -3.283  11.691  18.692  0.00  0.00    +0.000 A 
ATOM     22  C   UNL     1      -2.690  12.357  19.762  0.00  0.00    +0.000 A 
ATOM     23  C   UNL     1      -1.348  12.130  20.061  0.00  0.00    +0.000 A 
ATOM     24  F   UNL     1      -0.796  12.793  21.088  0.00  0.00    +0.000 F 
ENDBRANCH  17  18
ENDBRANCH   7  17
TORSDOF 3
ENDMDL
MODEL 5
REMARK VINA RESULT:      -8.1      5.758      8.473
REMARK  Name = 
REMARK  3 active torsions:
REMARK  status: ('A' for Active; 'I' for Inactive)
REMARK    1  A    between atoms: C_4  and  C_5
REMARK    2  A    between atoms: N_16  and  C_17
REMARK    3  A    between atoms: C_17  and  C_18
REMARK                            x       y       z     vdW  Elec       q    Type
REMARK                         _______ _______ _______ _____ _____    ______ ____
ROOT
ATOM      1  O   UNL     1       1.469   8.147  21.226  0.00  0.00    +0.000 OA
ATOM      2  C   UNL     1       1.519   8.461  20.051  0.00  0.00    +0.000 C 
ATOM      3  C   UNL     1       2.231   7.704  18.984  0.00  0.00    +0.000 C 
ATOM      4  C   UNL     1       2.869   6.553  19.236  0.00  0.00    +0.000 C 
ATOM      5  C   UNL     1       2.107   8.454  17.692  0.00  0.00    +0.000 C 
ATOM      6  C   UNL     1       1.080   9.535  18.004  0.00  0.00    +0.000 C 
ATOM      7  N   UNL     1       0.960   9.562  19.444  0.00  0.00    +0.000 N 
ENDROOT
BRANCH   4   8
ATOM      8  C   UNL     1       3.633   5.839  18.210  0.00  0.00    +0.000 A 
ATOM      9  C   UNL     1       3.223   4.546  17.817  0.00  0.00    +0.000 A 
ATOM     10  C   UNL     1       3.958   3.818  16.875  0.00  0.00    +0.000 A 
ATOM     11  C   UNL     1       5.087   4.408  16.352  0.00  0.00    +0.000 A 
ATOM     12  C   UNL     1       5.486   5.668  16.727  0.00  0.00    +0.000 A 
ATOM     13  C   UNL     1       4.779   6.414  17.652  0.00  0.00    +0.000 A 
ATOM     14  O   UNL     1       6.628   6.058  16.096  0.00  0.00    +0.000 OA
ATOM     15  C   UNL     1       6.915   4.885  15.306  0.00  0.00    +0.000 C 
ATOM     16  O   UNL     1       5.927   3.844  15.442  0.00  0.00    +0.000 OA
ENDBRANCH   4   8
BRANCH   7  17
ATOM     17  C   UNL     1       0.102  10.512  20.134  0.00  0.00    +0.000 C 
BRANCH  17  18
ATOM     18  C   UNL     1       0.398  11.941  19.768  0.00  0.00    +0.000 A 
ATOM     19  C   UNL     1       1.601  12.551  20.154  0.00  0.00    +0.000 A 
ATOM     20  C   UNL     1       1.884  13.869  19.775  0.00  0.00    +0.000 A 
ATOM     21  C   UNL     1       0.976  14.586  18.996  0.00  0.00    +0.000 A 
ATOM     22  C   UNL     1      -0.228  13.994  18.621  0.00  0.00    +0.000 A 
ATOM     23  C   UNL     1      -0.509  12.687  19.013  0.00  0.00    +0.000 A 
ATOM     24  F   UNL     1      -1.681  12.144  18.649  0.00  0.00    +0.000 F 
ENDBRANCH  17  18
ENDBRANCH   7  17
TORSDOF 3
ENDMDL
MODEL 6
REMARK VINA RESULT:      -8.0      5.364      7.846
REMARK  Name = 
REMARK  3 active torsions:
REMARK  status: ('A' for Active; 'I' for Inactive)
REMARK    1  A    between atoms: C_4  and  C_5
REMARK    2  A    between atoms: N_16  and  C_17
REMARK    3  A    between atoms: C_17  and  C_18
REMARK                            x       y       z     vdW  Elec       q    Type
REMARK                         _______ _______ _______ _____ _____    ______ ____
ROOT
ATOM      1  O   UNL     1       1.696   6.830  20.817  0.00  0.00    +0.000 OA
ATOM      2  C   UNL     1       1.967   7.481  19.825  0.00  0.00    +0.000 C 
ATOM      3  C   UNL     1       2.975   7.106  18.795  0.00  0.00    +0.000 C 
ATOM      4  C   UNL     1       3.666   5.960  18.862  0.00  0.00    +0.000 C 
ATOM      5  C   UNL     1       3.054   8.200  17.773  0.00  0.00    +0.000 C 
ATOM      6  C   UNL     1       1.871   9.095  18.116  0.00  0.00    +0.000 C 
ATOM      7  N   UNL     1       1.435   8.687  19.433  0.00  0.00    +0.000 N 
ENDROOT
BRANCH   4   8
ATOM      8  C   UNL     1       4.712   5.616  17.895  0.00  0.00    +0.000 A 
ATOM      9  C   UNL     1       6.057   5.929  18.190  0.00  0.00    +0.000 A 
ATOM     10  C   UNL     1       7.074   5.657  17.269  0.00  0.00    +0.000 A 
ATOM     11  C   UNL     1       6.712   5.077  16.073  0.00  0.00    +0.000 A 
ATOM     12  C   UNL     1       5.406   4.765  15.784  0.00  0.00    +0.000 A 
ATOM     13  C   UNL     1       4.380   5.018  16.675  0.00  0.00    +0.000 A 
ATOM     14  O   UNL     1       5.268   4.206  14.551  0.00  0.00    +0.000 OA
ATOM     15  C   UNL     1       6.634   4.233  14.087  0.00  0.00    +0.000 C 
ATOM     16  O   UNL     1       7.561   4.759  15.057  0.00  0.00    +0.000 OA
ENDBRANCH   4   8
BRANCH   7  17
ATOM     17  C   UNL     1       0.347   9.352  20.132  0.00  0.00    +0.000 C 
BRANCH  17  18
ATOM     18  C   UNL     1       0.021  10.703  19.556  0.00  0.00    +0.000 A 
ATOM     19  C   UNL     1       0.804  11.827  19.862  0.00  0.00    +0.000 A 
ATOM     20  C   UNL     1       0.516  13.072  19.292  0.00  0.00    +0.000 A 
ATOM     21  C   UNL     1      -0.547  13.206  18.398  0.00  0.00    +0.000 A 
ATOM     22  C   UNL     1      -1.340  12.100  18.099  0.00  0.00    +0.000 A 
ATOM     23  C   UNL     1      -1.056  10.866  18.682  0.00  0.00    +0.000 A 
ATOM     24  F   UNL     1      -1.841   9.819  18.387  0.00  0.00    +0.000 F 
ENDBRANCH  17  18
ENDBRANCH   7  17
TORSDOF 3
ENDMDL
MODEL 7
REMARK VINA RESULT:      -8.0      5.356      8.278
REMARK  Name = 
REMARK  3 active torsions:
REMARK  status: ('A' for Active; 'I' for Inactive)
REMARK    1  A    between atoms: C_4  and  C_5
REMARK    2  A    between atoms: N_16  and  C_17
REMARK    3  A    between atoms: C_17  and  C_18
REMARK                            x       y       z     vdW  Elec       q    Type
REMARK                         _______ _______ _______ _____ _____    ______ ____
ROOT
ATOM      1  O   UNL     1       2.391   5.560  20.450  0.00  0.00    +0.000 OA
ATOM      2  C   UNL     1       2.324   6.527  19.713  0.00  0.00    +0.000 C 
ATOM      3  C   UNL     1       1.629   7.806  20.027  0.00  0.00    +0.000 C 
ATOM      4  C   UNL     1       1.028   8.016  21.205  0.00  0.00    +0.000 C 
ATOM      5  C   UNL     1       1.724   8.713  18.838  0.00  0.00    +0.000 C 
ATOM      6  C   UNL     1       2.720   8.007  17.927  0.00  0.00    +0.000 C 
ATOM      7  N   UNL     1       2.847   6.664  18.448  0.00  0.00    +0.000 N 
ENDROOT
BRANCH   4   8
ATOM      8  C   UNL     1       0.279   9.241  21.497  0.00  0.00    +0.000 A 
ATOM      9  C   UNL     1      -0.109   9.515  22.826  0.00  0.00    +0.000 A 
ATOM     10  C   UNL     1      -0.865  10.651  23.132  0.00  0.00    +0.000 A 
ATOM     11  C   UNL     1      -1.213  11.484  22.092  0.00  0.00    +0.000 A 
ATOM     12  C   UNL     1      -0.833  11.225  20.797  0.00  0.00    +0.000 A 
ATOM     13  C   UNL     1      -0.082  10.113  20.465  0.00  0.00    +0.000 A 
ATOM     14  O   UNL     1      -1.285  12.169  19.927  0.00  0.00    +0.000 OA
ATOM     15  C   UNL     1      -2.019  13.032  20.821  0.00  0.00    +0.000 C 
ATOM     16  O   UNL     1      -1.956  12.620  22.200  0.00  0.00    +0.000 OA
ENDBRANCH   4   8
BRANCH   7  17
ATOM     17  C   UNL     1       3.681   5.658  17.809  0.00  0.00    +0.000 C 
BRANCH  17  18
ATOM     18  C   UNL     1       5.150   5.876  18.053  0.00  0.00    +0.000 A 
ATOM     19  C   UNL     1       5.771   5.377  19.208  0.00  0.00    +0.000 A 
ATOM     20  C   UNL     1       7.145   5.552  19.408  0.00  0.00    +0.000 A 
ATOM     21  C   UNL     1       7.916   6.214  18.452  0.00  0.00    +0.000 A 
ATOM     22  C   UNL     1       7.306   6.726  17.309  0.00  0.00    +0.000 A 
ATOM     23  C   UNL     1       5.935   6.560  17.123  0.00  0.00    +0.000 A 
ATOM     24  F   UNL     1       5.368   7.073  16.020  0.00  0.00    +0.000 F 
ENDBRANCH  17  18
ENDBRANCH   7  17
TORSDOF 3
ENDMDL
MODEL 8
REMARK VINA RESULT:      -8.0      5.416      8.284
REMARK  Name = 
REMARK  3 active torsions:
REMARK  status: ('A' for Active; 'I' for Inactive)
REMARK    1  A    between atoms: C_4  and  C_5
REMARK    2  A    between atoms: N_16  and  C_17
REMARK    3  A    between atoms: C_17  and  C_18
REMARK                            x       y       z     vdW  Elec       q    Type
REMARK                         _______ _______ _______ _____ _____    ______ ____
ROOT
ATOM      1  O   UNL     1       2.592   5.780  20.158  0.00  0.00    +0.000 OA
ATOM      2  C   UNL     1       2.521   6.697  19.360  0.00  0.00    +0.000 C 
ATOM      3  C   UNL     1       1.761   7.961  19.563  0.00  0.00    +0.000 C 
ATOM      4  C   UNL     1       1.096   8.215  20.698  0.00  0.00    +0.000 C 
ATOM      5  C   UNL     1       1.875   8.799  18.325  0.00  0.00    +0.000 C 
ATOM      6  C   UNL     1       2.940   8.083  17.506  0.00  0.00    +0.000 C 
ATOM      7  N   UNL     1       3.097   6.780  18.114  0.00  0.00    +0.000 N 
ENDROOT
BRANCH   4   8
ATOM      8  C   UNL     1       0.285   9.422  20.879  0.00  0.00    +0.000 A 
ATOM      9  C   UNL     1      -0.391   9.974  19.769  0.00  0.00    +0.000 A 
ATOM     10  C   UNL     1      -1.135  11.152  19.897  0.00  0.00    +0.000 A 
ATOM     11  C   UNL     1      -1.181  11.745  21.139  0.00  0.00    +0.000 A 
ATOM     12  C   UNL     1      -0.530  11.208  22.224  0.00  0.00    +0.000 A 
ATOM     13  C   UNL     1       0.209  10.044  22.130  0.00  0.00    +0.000 A 
ATOM     14  O   UNL     1      -0.701  11.953  23.350  0.00  0.00    +0.000 OA
ATOM     15  C   UNL     1      -1.507  13.035  22.839  0.00  0.00    +0.000 C 
ATOM     16  O   UNL     1      -1.839  12.897  21.444  0.00  0.00    +0.000 OA
ENDBRANCH   4   8
BRANCH   7  17
ATOM     17  C   UNL     1       4.000   5.775  17.576  0.00  0.00    +0.000 C 
BRANCH  17  18
ATOM     18  C   UNL     1       5.440   6.038  17.923  0.00  0.00    +0.000 A 
ATOM     19  C   UNL     1       6.194   6.983  17.211  0.00  0.00    +0.000 A 
ATOM     20  C   UNL     1       7.522   7.248  17.566  0.00  0.00    +0.000 A 
ATOM     21  C   UNL     1       8.107   6.582  18.644  0.00  0.00    +0.000 A 
ATOM     22  C   UNL     1       7.372   5.631  19.347  0.00  0.00    +0.000 A 
ATOM     23  C   UNL     1       6.055   5.362  18.980  0.00  0.00    +0.000 A 
ATOM     24  F   UNL     1       5.372   4.433  19.665  0.00  0.00    +0.000 F 
ENDBRANCH  17  18
ENDBRANCH   7  17
TORSDOF 3
ENDMDL
MODEL 9
REMARK VINA RESULT:      -7.9      5.882      8.440
REMARK  Name = 
REMARK  3 active torsions:
REMARK  status: ('A' for Active; 'I' for Inactive)
REMARK    1  A    between atoms: C_4  and  C_5
REMARK    2  A    between atoms: N_16  and  C_17
REMARK    3  A    between atoms: C_17  and  C_18
REMARK                            x       y       z     vdW  Elec       q    Type
REMARK                         _______ _______ _______ _____ _____    ______ ____
ROOT
ATOM      1  O   UNL     1       1.217   8.108  21.043  0.00  0.00    +0.000 OA
ATOM      2  C   UNL     1       1.480   8.476  19.913  0.00  0.00    +0.000 C 
ATOM      3  C   UNL     1       2.252   7.694  18.907  0.00  0.00    +0.000 C 
ATOM      4  C   UNL     1       2.707   6.460  19.165  0.00  0.00    +0.000 C 
ATOM      5  C   UNL     1       2.411   8.521  17.668  0.00  0.00    +0.000 C 
ATOM      6  C   UNL     1       1.481   9.704  17.906  0.00  0.00    +0.000 C 
ATOM      7  N   UNL     1       1.149   9.668  19.313  0.00  0.00    +0.000 N 
ENDROOT
BRANCH   4   8
ATOM      8  C   UNL     1       3.530   5.712  18.211  0.00  0.00    +0.000 A 
ATOM      9  C   UNL     1       3.078   4.460  17.742  0.00  0.00    +0.000 A 
ATOM     10  C   UNL     1       3.860   3.698  16.867  0.00  0.00    +0.000 A 
ATOM     11  C   UNL     1       5.078   4.215  16.487  0.00  0.00    +0.000 A 
ATOM     12  C   UNL     1       5.520   5.436  16.937  0.00  0.00    +0.000 A 
ATOM     13  C   UNL     1       4.768   6.213  17.797  0.00  0.00    +0.000 A 
ATOM     14  O   UNL     1       6.749   5.755  16.444  0.00  0.00    +0.000 OA
ATOM     15  C   UNL     1       7.040   4.579  15.661  0.00  0.00    +0.000 C 
ATOM     16  O   UNL     1       5.974   3.609  15.660  0.00  0.00    +0.000 OA
ENDBRANCH   4   8
BRANCH   7  17
ATOM     17  C   UNL     1       0.312  10.680  19.939  0.00  0.00    +0.000 C 
BRANCH  17  18
ATOM     18  C   UNL     1      -1.021  10.837  19.259  0.00  0.00    +0.000 A 
ATOM     19  C   UNL     1      -1.454   9.914  18.296  0.00  0.00    +0.000 A 
ATOM     20  C   UNL     1      -2.712  10.048  17.697  0.00  0.00    +0.000 A 
ATOM     21  C   UNL     1      -3.556  11.097  18.063  0.00  0.00    +0.000 A 
ATOM     22  C   UNL     1      -3.129  12.028  19.007  0.00  0.00    +0.000 A 
ATOM     23  C   UNL     1      -1.870  11.896  19.589  0.00  0.00    +0.000 A 
ATOM     24  F   UNL     1      -1.476  12.812  20.486  0.00  0.00    +0.000 F 
ENDBRANCH  17  18
ENDBRANCH   7  17
TORSDOF 3
ENDMDL
