MODEL 1
REMARK VINA RESULT:      -8.5      0.000      0.000
REMARK  Name = 
REMARK  6 active torsions:
REMARK  status: ('A' for Active; 'I' for Inactive)
REMARK    1  A    between atoms: C_1  and  C_2
REMARK    2  A    between atoms: C_2  and  C_3
REMARK    3  A    between atoms: C_8  and  C_10
REMARK    4  A    between atoms: N_19  and  S_20
REMARK    5  A    between atoms: S_20  and  C_23
REMARK    6  A    between atoms: C_26  and  C_27
REMARK                            x       y       z     vdW  Elec       q    Type
REMARK                         _______ _______ _______ _____ _____    ______ ____
ROOT
ATOM      1  C   UNL     1       4.409   6.321  18.244  0.00  0.00    +0.000 C 
ATOM      2  C   UNL     1       4.191   5.510  19.530  0.00  0.00    +0.000 C 
ATOM      3  C   UNL     1       2.959   4.661  19.374  0.00  0.00    +0.000 A 
ATOM      4  C   UNL     1       2.022   4.517  20.401  0.00  0.00    +0.000 A 
ATOM      5  C   UNL     1       0.861   3.780  20.179  0.00  0.00    +0.000 A 
ATOM      6  C   UNL     1       0.643   3.177  18.941  0.00  0.00    +0.000 A 
ATOM      7  C   UNL     1       1.593   3.291  17.925  0.00  0.00    +0.000 A 
ATOM      8  C   UNL     1       2.756   4.040  18.133  0.00  0.00    +0.000 A 
ATOM      9  C   UNL     1       3.851   4.120  17.098  0.00  0.00    +0.000 C 
ATOM     10  N   UNL     1       4.559   5.439  17.005  0.00  0.00    +0.000 NA
ENDROOT
BRANCH   1  16
ATOM     11  C   UNL     1      -0.297   9.972  19.176  0.00  0.00    +0.000 A 
ATOM     12  N   UNL     1       0.043   9.774  20.435  0.00  0.00    +0.000 NA
ATOM     13  N   UNL     1       1.123   8.915  20.548  0.00  0.00    +0.000 NA
ATOM     14  C   UNL     1       1.580   8.530  19.377  0.00  0.00    +0.000 A 
ATOM     15  N   UNL     1       2.645   7.675  19.234  0.00  0.00    +0.000 N 
ATOM     16  C   UNL     1       3.322   7.394  18.068  0.00  0.00    +0.000 C 
ATOM     17  O   UNL     1       3.082   7.874  16.961  0.00  0.00    +0.000 OA
ATOM     18  S   UNL     1       0.688   9.131  18.053  0.00  0.00    +0.000 S 
ATOM     19  H   UNL     1       3.035   7.314  20.095  0.00  0.00    +0.000 HD
BRANCH  11  21
ATOM     20  C   UNL     1      -2.203  10.183  17.571  0.00  0.00    +0.000 C 
ATOM     21  C   UNL     1      -1.438  10.824  18.719  0.00  0.00    +0.000 C 
ENDBRANCH  11  21
ENDBRANCH   1  16
BRANCH  10  22
ATOM     22  S   UNL     1       6.214   5.322  16.556  0.00  0.00    +0.000 S 
ATOM     23  O   UNL     1       6.704   4.082  17.121  0.00  0.00    +0.000 OA
ATOM     24  O   UNL     1       6.286   5.567  15.133  0.00  0.00    +0.000 OA
BRANCH  22  25
ATOM     25  C   UNL     1       7.027   6.658  17.396  0.00  0.00    +0.000 A 
ATOM     26  C   UNL     1       7.819   6.389  18.514  0.00  0.00    +0.000 A 
ATOM     27  C   UNL     1       8.534   7.428  19.118  0.00  0.00    +0.000 A 
ATOM     28  C   UNL     1       8.464   8.732  18.608  0.00  0.00    +0.000 A 
ATOM     29  C   UNL     1       9.241   9.849  19.244  0.00  0.00    +0.000 C 
ATOM     30  C   UNL     1       7.688   8.982  17.469  0.00  0.00    +0.000 A 
ATOM     31  C   UNL     1       6.975   7.947  16.858  0.00  0.00    +0.000 A 
ENDBRANCH  22  25
ENDBRANCH  10  22
TORSDOF 4
ENDMDL
MODEL 2
REMARK VINA RESULT:      -8.2      0.527      1.048
REMARK  Name = 
REMARK  6 active torsions:
REMARK  status: ('A' for Active; 'I' for Inactive)
REMARK    1  A    between atoms: C_1  and  C_2
REMARK    2  A    between atoms: C_2  and  C_3
REMARK    3  A    between atoms: C_8  and  C_10
REMARK    4  A    between atoms: N_19  and  S_20
REMARK    5  A    between atoms: S_20  and  C_23
REMARK    6  A    between atoms: C_26  and  C_27
REMARK                            x       y       z     vdW  Elec       q    Type
REMARK                         _______ _______ _______ _____ _____    ______ ____
ROOT
ATOM      1  C   UNL     1       4.469   6.055  18.379  0.00  0.00    +0.000 C 
ATOM      2  C   UNL     1       4.329   5.131  19.598  0.00  0.00    +0.000 C 
ATOM      3  C   UNL     1       3.030   4.380  19.499  0.00  0.00    +0.000 A 
ATOM      4  C   UNL     1       2.198   4.189  20.606  0.00  0.00    +0.000 A 
ATOM      5  C   UNL     1       0.970   3.551  20.446  0.00  0.00    +0.000 A 
ATOM      6  C   UNL     1       0.580   3.092  19.188  0.00  0.00    +0.000 A 
ATOM      7  C   UNL     1       1.424   3.252  18.088  0.00  0.00    +0.000 A 
ATOM      8  C   UNL     1       2.654   3.902  18.236  0.00  0.00    +0.000 A 
ATOM      9  C   UNL     1       3.637   4.021  17.097  0.00  0.00    +0.000 C 
ATOM     10  N   UNL     1       4.424   5.297  17.052  0.00  0.00    +0.000 NA
ENDROOT
BRANCH   1  16
ATOM     11  C   UNL     1       0.031   9.759  20.088  0.00  0.00    +0.000 A 
ATOM     12  N   UNL     1       0.386   9.324  21.281  0.00  0.00    +0.000 NA
ATOM     13  N   UNL     1       1.411   8.396  21.208  0.00  0.00    +0.000 NA
ATOM     14  C   UNL     1       1.815   8.196  19.972  0.00  0.00    +0.000 A 
ATOM     15  N   UNL     1       2.819   7.317  19.648  0.00  0.00    +0.000 N 
ATOM     16  C   UNL     1       3.450   7.205  18.429  0.00  0.00    +0.000 C 
ATOM     17  O   UNL     1       3.216   7.884  17.431  0.00  0.00    +0.000 OA
ATOM     18  S   UNL     1       0.934   9.071  18.803  0.00  0.00    +0.000 S 
ATOM     19  H   UNL     1       3.204   6.787  20.420  0.00  0.00    +0.000 HD
BRANCH  11  21
ATOM     20  C   UNL     1      -1.571  10.661  18.394  0.00  0.00    +0.000 C 
ATOM     21  C   UNL     1      -1.063  10.744  19.824  0.00  0.00    +0.000 C 
ENDBRANCH  11  21
ENDBRANCH   1  16
BRANCH  10  22
ATOM     22  S   UNL     1       6.011   5.125  16.413  0.00  0.00    +0.000 S 
ATOM     23  O   UNL     1       6.509   3.853  16.891  0.00  0.00    +0.000 OA
ATOM     24  O   UNL     1       5.930   5.404  14.996  0.00  0.00    +0.000 OA
BRANCH  22  25
ATOM     25  C   UNL     1       6.971   6.405  17.181  0.00  0.00    +0.000 A 
ATOM     26  C   UNL     1       6.854   7.721  16.729  0.00  0.00    +0.000 A 
ATOM     27  C   UNL     1       7.538   8.742  17.394  0.00  0.00    +0.000 A 
ATOM     28  C   UNL     1       8.335   8.456  18.512  0.00  0.00    +0.000 A 
ATOM     29  C   UNL     1       9.060   9.551  19.240  0.00  0.00    +0.000 C 
ATOM     30  C   UNL     1       8.419   7.137  18.973  0.00  0.00    +0.000 A 
ATOM     31  C   UNL     1       7.735   6.112  18.314  0.00  0.00    +0.000 A 
ENDBRANCH  22  25
ENDBRANCH  10  22
TORSDOF 4
ENDMDL
MODEL 3
REMARK VINA RESULT:      -8.1      1.545      1.659
REMARK  Name = 
REMARK  6 active torsions:
REMARK  status: ('A' for Active; 'I' for Inactive)
REMARK    1  A    between atoms: C_1  and  C_2
REMARK    2  A    between atoms: C_2  and  C_3
REMARK    3  A    between atoms: C_8  and  C_10
REMARK    4  A    between atoms: N_19  and  S_20
REMARK    5  A    between atoms: S_20  and  C_23
REMARK    6  A    between atoms: C_26  and  C_27
REMARK                            x       y       z     vdW  Elec       q    Type
REMARK                         _______ _______ _______ _____ _____    ______ ____
ROOT
ATOM      1  C   UNL     1       4.349   5.504  18.671  0.00  0.00    +0.000 C 
ATOM      2  C   UNL     1       4.526   4.351  19.670  0.00  0.00    +0.000 C 
ATOM      3  C   UNL     1       3.312   3.464  19.618  0.00  0.00    +0.000 A 
ATOM      4  C   UNL     1       2.718   2.951  20.776  0.00  0.00    +0.000 A 
ATOM      5  C   UNL     1       1.552   2.196  20.678  0.00  0.00    +0.000 A 
ATOM      6  C   UNL     1       0.987   1.942  19.428  0.00  0.00    +0.000 A 
ATOM      7  C   UNL     1       1.597   2.425  18.269  0.00  0.00    +0.000 A 
ATOM      8  C   UNL     1       2.762   3.195  18.357  0.00  0.00    +0.000 A 
ATOM      9  C   UNL     1       3.505   3.664  17.130  0.00  0.00    +0.000 C 
ATOM     10  N   UNL     1       4.139   5.019  17.237  0.00  0.00    +0.000 NA
ENDROOT
BRANCH   1  16
ATOM     11  C   UNL     1       0.686  10.270  19.127  0.00  0.00    +0.000 A 
ATOM     12  N   UNL     1       0.980  10.377  17.846  0.00  0.00    +0.000 NA
ATOM     13  N   UNL     1       1.864   9.394  17.436  0.00  0.00    +0.000 NA
ATOM     14  C   UNL     1       2.173   8.564  18.407  0.00  0.00    +0.000 A 
ATOM     15  N   UNL     1       3.036   7.509  18.242  0.00  0.00    +0.000 N 
ATOM     16  C   UNL     1       3.246   6.473  19.126  0.00  0.00    +0.000 C 
ATOM     17  O   UNL     1       2.683   6.325  20.210  0.00  0.00    +0.000 OA
ATOM     18  S   UNL     1       1.462   8.956  19.908  0.00  0.00    +0.000 S 
ATOM     19  H   UNL     1       3.466   7.432  17.329  0.00  0.00    +0.000 HD
BRANCH  11  21
ATOM     20  C   UNL     1      -0.144  10.962  21.382  0.00  0.00    +0.000 C 
ATOM     21  C   UNL     1      -0.218  11.193  19.880  0.00  0.00    +0.000 C 
ENDBRANCH  11  21
ENDBRANCH   1  16
BRANCH  10  22
ATOM     22  S   UNL     1       5.592   5.191  16.334  0.00  0.00    +0.000 S 
ATOM     23  O   UNL     1       6.298   3.932  16.451  0.00  0.00    +0.000 OA
ATOM     24  O   UNL     1       5.226   5.718  15.038  0.00  0.00    +0.000 OA
BRANCH  22  25
ATOM     25  C   UNL     1       6.538   6.423  17.192  0.00  0.00    +0.000 A 
ATOM     26  C   UNL     1       7.518   6.029  18.105  0.00  0.00    +0.000 A 
ATOM     27  C   UNL     1       8.326   6.995  18.710  0.00  0.00    +0.000 A 
ATOM     28  C   UNL     1       8.164   8.354  18.404  0.00  0.00    +0.000 A 
ATOM     29  C   UNL     1       9.039   9.396  19.040  0.00  0.00    +0.000 C 
ATOM     30  C   UNL     1       7.197   8.733  17.464  0.00  0.00    +0.000 A 
ATOM     31  C   UNL     1       6.388   7.771  16.854  0.00  0.00    +0.000 A 
ENDBRANCH  22  25
ENDBRANCH  10  22
TORSDOF 4
ENDMDL
MODEL 4
REMARK VINA RESULT:      -8.1      2.255      3.378
REMARK  Name = 
REMARK  6 active torsions:
REMARK  status: ('A' for Active; 'I' for Inactive)
REMARK    1  A    between atoms: C_1  and  C_2
REMARK    2  A    between atoms: C_2  and  C_3
REMARK    3  A    between atoms: C_8  and  C_10
REMARK    4  A    between atoms: N_19  and  S_20
REMARK    5  A    between atoms: S_20  and  C_23
REMARK    6  A    between atoms: C_26  and  C_27
REMARK                            x       y       z     vdW  Elec       q    Type
REMARK                         _______ _______ _______ _____ _____    ______ ____
ROOT
ATOM      1  C   UNL     1       4.369   6.427  18.304  0.00  0.00    +0.000 C 
ATOM      2  C   UNL     1       4.109   5.621  19.586  0.00  0.00    +0.000 C 
ATOM      3  C   UNL     1       2.927   4.718  19.367  0.00  0.00    +0.000 A 
ATOM      4  C   UNL     1       1.936   4.544  20.339  0.00  0.00    +0.000 A 
ATOM      5  C   UNL     1       0.824   3.755  20.059  0.00  0.00    +0.000 A 
ATOM      6  C   UNL     1       0.706   3.129  18.818  0.00  0.00    +0.000 A 
ATOM      7  C   UNL     1       1.709   3.274  17.859  0.00  0.00    +0.000 A 
ATOM      8  C   UNL     1       2.825   4.075  18.125  0.00  0.00    +0.000 A 
ATOM      9  C   UNL     1       3.975   4.191  17.156  0.00  0.00    +0.000 C 
ATOM     10  N   UNL     1       4.630   5.540  17.088  0.00  0.00    +0.000 NA
ENDROOT
BRANCH   1  16
ATOM     11  C   UNL     1      -0.417  10.029  18.984  0.00  0.00    +0.000 A 
ATOM     12  N   UNL     1      -0.047   9.963  20.248  0.00  0.00    +0.000 NA
ATOM     13  N   UNL     1       1.058   9.147  20.420  0.00  0.00    +0.000 NA
ATOM     14  C   UNL     1       1.503   8.663  19.281  0.00  0.00    +0.000 A 
ATOM     15  N   UNL     1       2.588   7.825  19.198  0.00  0.00    +0.000 N 
ATOM     16  C   UNL     1       3.249   7.450  18.050  0.00  0.00    +0.000 C 
ATOM     17  O   UNL     1       2.975   7.814  16.907  0.00  0.00    +0.000 OA
ATOM     18  S   UNL     1       0.569   9.109  17.925  0.00  0.00    +0.000 S 
ATOM     19  H   UNL     1       3.004   7.559  20.081  0.00  0.00    +0.000 HD
BRANCH  11  21
ATOM     20  C   UNL     1      -2.184  10.176  17.220  0.00  0.00    +0.000 C 
ATOM     21  C   UNL     1      -1.590  10.803  18.472  0.00  0.00    +0.000 C 
ENDBRANCH  11  21
ENDBRANCH   1  16
BRANCH  10  22
ATOM     22  S   UNL     1       6.313   5.490  16.740  0.00  0.00    +0.000 S 
ATOM     23  O   UNL     1       6.781   6.859  16.787  0.00  0.00    +0.000 OA
ATOM     24  O   UNL     1       6.893   4.478  17.595  0.00  0.00    +0.000 OA
BRANCH  22  25
ATOM     25  C   UNL     1       6.431   4.935  15.058  0.00  0.00    +0.000 A 
ATOM     26  C   UNL     1       7.532   5.308  14.284  0.00  0.00    +0.000 A 
ATOM     27  C   UNL     1       7.671   4.796  12.991  0.00  0.00    +0.000 A 
ATOM     28  C   UNL     1       6.719   3.909  12.469  0.00  0.00    +0.000 A 
ATOM     29  C   UNL     1       6.872   3.343  11.086  0.00  0.00    +0.000 C 
ATOM     30  C   UNL     1       5.636   3.519  13.267  0.00  0.00    +0.000 A 
ATOM     31  C   UNL     1       5.493   4.026  14.562  0.00  0.00    +0.000 A 
ENDBRANCH  22  25
ENDBRANCH  10  22
TORSDOF 4
ENDMDL
MODEL 5
REMARK VINA RESULT:      -7.6      7.106     10.664
REMARK  Name = 
REMARK  6 active torsions:
REMARK  status: ('A' for Active; 'I' for Inactive)
REMARK    1  A    between atoms: C_1  and  C_2
REMARK    2  A    between atoms: C_2  and  C_3
REMARK    3  A    between atoms: C_8  and  C_10
REMARK    4  A    between atoms: N_19  and  S_20
REMARK    5  A    between atoms: S_20  and  C_23
REMARK    6  A    between atoms: C_26  and  C_27
REMARK                            x       y       z     vdW  Elec       q    Type
REMARK                         _______ _______ _______ _____ _____    ______ ____
ROOT
ATOM      1  C   UNL     1      -0.233  11.798  20.682  0.00  0.00    +0.000 C 
ATOM      2  C   UNL     1       1.278  12.076  20.680  0.00  0.00    +0.000 C 
ATOM      3  C   UNL     1       1.543  13.350  19.925  0.00  0.00    +0.000 A 
ATOM      4  C   UNL     1       2.606  13.472  19.026  0.00  0.00    +0.000 A 
ATOM      5  C   UNL     1       2.764  14.648  18.296  0.00  0.00    +0.000 A 
ATOM      6  C   UNL     1       1.870  15.704  18.473  0.00  0.00    +0.000 A 
ATOM      7  C   UNL     1       0.827  15.597  19.394  0.00  0.00    +0.000 A 
ATOM      8  C   UNL     1       0.653  14.415  20.123  0.00  0.00    +0.000 A 
ATOM      9  C   UNL     1      -0.404  14.284  21.192  0.00  0.00    +0.000 C 
ATOM     10  N   UNL     1      -1.044  12.932  21.306  0.00  0.00    +0.000 NA
ENDROOT
BRANCH   1  16
ATOM     11  C   UNL     1      -3.768  10.627  15.941  0.00  0.00    +0.000 A 
ATOM     12  N   UNL     1      -4.579  11.443  16.586  0.00  0.00    +0.000 NA
ATOM     13  N   UNL     1      -4.030  11.875  17.782  0.00  0.00    +0.000 NA
ATOM     14  C   UNL     1      -2.818  11.403  17.975  0.00  0.00    +0.000 A 
ATOM     15  N   UNL     1      -2.074  11.691  19.092  0.00  0.00    +0.000 N 
ATOM     16  C   UNL     1      -0.734  11.426  19.276  0.00  0.00    +0.000 C 
ATOM     17  O   UNL     1       0.015  10.892  18.460  0.00  0.00    +0.000 OA
ATOM     18  S   UNL     1      -2.282  10.346  16.748  0.00  0.00    +0.000 S 
ATOM     19  H   UNL     1      -2.535  12.257  19.793  0.00  0.00    +0.000 HD
BRANCH  11  21
ATOM     20  C   UNL     1      -2.838   9.821  13.764  0.00  0.00    +0.000 C 
ATOM     21  C   UNL     1      -4.076   9.966  14.635  0.00  0.00    +0.000 C 
ENDBRANCH  11  21
ENDBRANCH   1  16
BRANCH  10  22
ATOM     22  S   UNL     1      -1.523  12.511  22.902  0.00  0.00    +0.000 S 
ATOM     23  O   UNL     1      -1.241  11.098  23.055  0.00  0.00    +0.000 OA
ATOM     24  O   UNL     1      -0.932  13.484  23.793  0.00  0.00    +0.000 OA
BRANCH  22  25
ATOM     25  C   UNL     1      -3.286  12.717  22.937  0.00  0.00    +0.000 A 
ATOM     26  C   UNL     1      -3.993  12.808  21.736  0.00  0.00    +0.000 A 
ATOM     27  C   UNL     1      -5.389  12.876  21.762  0.00  0.00    +0.000 A 
ATOM     28  C   UNL     1      -6.082  12.850  22.980  0.00  0.00    +0.000 A 
ATOM     29  C   UNL     1      -7.582  12.907  23.014  0.00  0.00    +0.000 C 
ATOM     30  C   UNL     1      -5.361  12.728  24.175  0.00  0.00    +0.000 A 
ATOM     31  C   UNL     1      -3.966  12.656  24.156  0.00  0.00    +0.000 A 
ENDBRANCH  22  25
ENDBRANCH  10  22
TORSDOF 4
ENDMDL
MODEL 6
REMARK VINA RESULT:      -7.5      2.568      3.673
REMARK  Name = 
REMARK  6 active torsions:
REMARK  status: ('A' for Active; 'I' for Inactive)
REMARK    1  A    between atoms: C_1  and  C_2
REMARK    2  A    between atoms: C_2  and  C_3
REMARK    3  A    between atoms: C_8  and  C_10
REMARK    4  A    between atoms: N_19  and  S_20
REMARK    5  A    between atoms: S_20  and  C_23
REMARK    6  A    between atoms: C_26  and  C_27
REMARK                            x       y       z     vdW  Elec       q    Type
REMARK                         _______ _______ _______ _____ _____    ______ ____
ROOT
ATOM      1  C   UNL     1       4.620   5.670  18.857  0.00  0.00    +0.000 C 
ATOM      2  C   UNL     1       4.737   4.408  19.726  0.00  0.00    +0.000 C 
ATOM      3  C   UNL     1       3.632   3.455  19.360  0.00  0.00    +0.000 A 
ATOM      4  C   UNL     1       2.908   2.752  20.328  0.00  0.00    +0.000 A 
ATOM      5  C   UNL     1       1.846   1.939  19.942  0.00  0.00    +0.000 A 
ATOM      6  C   UNL     1       1.514   1.817  18.592  0.00  0.00    +0.000 A 
ATOM      7  C   UNL     1       2.257   2.492  17.622  0.00  0.00    +0.000 A 
ATOM      8  C   UNL     1       3.318   3.320  18.000  0.00  0.00    +0.000 A 
ATOM      9  C   UNL     1       4.204   4.000  16.984  0.00  0.00    +0.000 C 
ATOM     10  N   UNL     1       4.688   5.369  17.361  0.00  0.00    +0.000 NA
ENDROOT
BRANCH   1  16
ATOM     11  C   UNL     1       0.397   9.967  19.077  0.00  0.00    +0.000 A 
ATOM     12  N   UNL     1       0.787  10.146  17.830  0.00  0.00    +0.000 NA
ATOM     13  N   UNL     1       1.813   9.284  17.482  0.00  0.00    +0.000 NA
ATOM     14  C   UNL     1       2.131   8.466  18.460  0.00  0.00    +0.000 A 
ATOM     15  N   UNL     1       3.123   7.522  18.352  0.00  0.00    +0.000 N 
ATOM     16  C   UNL     1       3.375   6.492  19.231  0.00  0.00    +0.000 C 
ATOM     17  O   UNL     1       2.742   6.247  20.257  0.00  0.00    +0.000 OA
ATOM     18  S   UNL     1       1.252   8.728  19.898  0.00  0.00    +0.000 S 
ATOM     19  H   UNL     1       3.637   7.524  17.480  0.00  0.00    +0.000 HD
BRANCH  11  21
ATOM     20  C   UNL     1      -1.644  11.380  18.777  0.00  0.00    +0.000 C 
ATOM     21  C   UNL     1      -0.671  10.757  19.765  0.00  0.00    +0.000 C 
ENDBRANCH  11  21
ENDBRANCH   1  16
BRANCH  10  22
ATOM     22  S   UNL     1       6.246   5.759  16.747  0.00  0.00    +0.000 S 
ATOM     23  O   UNL     1       6.279   7.200  16.603  0.00  0.00    +0.000 OA
ATOM     24  O   UNL     1       7.212   5.075  17.577  0.00  0.00    +0.000 OA
BRANCH  22  25
ATOM     25  C   UNL     1       6.303   5.052  15.120  0.00  0.00    +0.000 A 
ATOM     26  C   UNL     1       7.459   5.187  14.350  0.00  0.00    +0.000 A 
ATOM     27  C   UNL     1       7.539   4.551  13.108  0.00  0.00    +0.000 A 
ATOM     28  C   UNL     1       6.471   3.776  12.634  0.00  0.00    +0.000 A 
ATOM     29  C   UNL     1       6.556   3.077  11.307  0.00  0.00    +0.000 C 
ATOM     30  C   UNL     1       5.329   3.624  13.431  0.00  0.00    +0.000 A 
ATOM     31  C   UNL     1       5.245   4.255  14.675  0.00  0.00    +0.000 A 
ENDBRANCH  22  25
ENDBRANCH  10  22
TORSDOF 4
ENDMDL
MODEL 7
REMARK VINA RESULT:      -7.5      1.143      1.151
REMARK  Name = 
REMARK  6 active torsions:
REMARK  status: ('A' for Active; 'I' for Inactive)
REMARK    1  A    between atoms: C_1  and  C_2
REMARK    2  A    between atoms: C_2  and  C_3
REMARK    3  A    between atoms: C_8  and  C_10
REMARK    4  A    between atoms: N_19  and  S_20
REMARK    5  A    between atoms: S_20  and  C_23
REMARK    6  A    between atoms: C_26  and  C_27
REMARK                            x       y       z     vdW  Elec       q    Type
REMARK                         _______ _______ _______ _____ _____    ______ ____
ROOT
ATOM      1  C   UNL     1       4.067   6.147  18.082  0.00  0.00    +0.000 C 
ATOM      2  C   UNL     1       4.177   5.500  19.471  0.00  0.00    +0.000 C 
ATOM      3  C   UNL     1       3.079   4.483  19.629  0.00  0.00    +0.000 A 
ATOM      4  C   UNL     1       2.346   4.361  20.813  0.00  0.00    +0.000 A 
ATOM      5  C   UNL     1       1.291   3.455  20.882  0.00  0.00    +0.000 A 
ATOM      6  C   UNL     1       0.976   2.663  19.777  0.00  0.00    +0.000 A 
ATOM      7  C   UNL     1       1.728   2.760  18.605  0.00  0.00    +0.000 A 
ATOM      8  C   UNL     1       2.782   3.676  18.521  0.00  0.00    +0.000 A 
ATOM      9  C   UNL     1       3.678   3.755  17.309  0.00  0.00    +0.000 C 
ATOM     10  N   UNL     1       4.154   5.130  16.945  0.00  0.00    +0.000 NA
ENDROOT
BRANCH   1  16
ATOM     11  C   UNL     1       0.275  10.827  18.334  0.00  0.00    +0.000 A 
ATOM     12  N   UNL     1       1.404  11.501  18.229  0.00  0.00    +0.000 NA
ATOM     13  N   UNL     1       2.503  10.662  18.177  0.00  0.00    +0.000 NA
ATOM     14  C   UNL     1       2.163   9.392  18.206  0.00  0.00    +0.000 A 
ATOM     15  N   UNL     1       3.081   8.371  18.170  0.00  0.00    +0.000 N 
ATOM     16  C   UNL     1       2.815   7.034  17.977  0.00  0.00    +0.000 C 
ATOM     17  O   UNL     1       1.704   6.538  17.798  0.00  0.00    +0.000 OA
ATOM     18  S   UNL     1       0.485   9.126  18.365  0.00  0.00    +0.000 S 
ATOM     19  H   UNL     1       4.053   8.656  18.168  0.00  0.00    +0.000 HD
BRANCH  11  21
ATOM     20  C   UNL     1      -2.115  10.686  17.614  0.00  0.00    +0.000 C 
ATOM     21  C   UNL     1      -1.085  11.441  18.439  0.00  0.00    +0.000 C 
ENDBRANCH  11  21
ENDBRANCH   1  16
BRANCH  10  22
ATOM     22  S   UNL     1       5.717   5.170  16.232  0.00  0.00    +0.000 S 
ATOM     23  O   UNL     1       6.327   3.885  16.510  0.00  0.00    +0.000 OA
ATOM     24  O   UNL     1       5.552   5.632  14.872  0.00  0.00    +0.000 OA
BRANCH  22  25
ATOM     25  C   UNL     1       6.618   6.403  17.137  0.00  0.00    +0.000 A 
ATOM     26  C   UNL     1       7.527   6.009  18.121  0.00  0.00    +0.000 A 
ATOM     27  C   UNL     1       8.304   6.975  18.767  0.00  0.00    +0.000 A 
ATOM     28  C   UNL     1       8.180   8.331  18.432  0.00  0.00    +0.000 A 
ATOM     29  C   UNL     1       9.023   9.371  19.113  0.00  0.00    +0.000 C 
ATOM     30  C   UNL     1       7.286   8.708  17.422  0.00  0.00    +0.000 A 
ATOM     31  C   UNL     1       6.509   7.747  16.770  0.00  0.00    +0.000 A 
ENDBRANCH  22  25
ENDBRANCH  10  22
TORSDOF 4
ENDMDL
MODEL 8
REMARK VINA RESULT:      -7.5      2.412      3.353
REMARK  Name = 
REMARK  6 active torsions:
REMARK  status: ('A' for Active; 'I' for Inactive)
REMARK    1  A    between atoms: C_1  and  C_2
REMARK    2  A    between atoms: C_2  and  C_3
REMARK    3  A    between atoms: C_8  and  C_10
REMARK    4  A    between atoms: N_19  and  S_20
REMARK    5  A    between atoms: S_20  and  C_23
REMARK    6  A    between atoms: C_26  and  C_27
REMARK                            x       y       z     vdW  Elec       q    Type
REMARK                         _______ _______ _______ _____ _____    ______ ____
ROOT
ATOM      1  C   UNL     1       3.783   6.598  18.438  0.00  0.00    +0.000 C 
ATOM      2  C   UNL     1       3.595   5.893  19.790  0.00  0.00    +0.000 C 
ATOM      3  C   UNL     1       2.584   4.790  19.632  0.00  0.00    +0.000 A 
ATOM      4  C   UNL     1       1.589   4.554  20.586  0.00  0.00    +0.000 A 
ATOM      5  C   UNL     1       0.632   3.568  20.356  0.00  0.00    +0.000 A 
ATOM      6  C   UNL     1       0.676   2.811  19.186  0.00  0.00    +0.000 A 
ATOM      7  C   UNL     1       1.688   3.023  18.248  0.00  0.00    +0.000 A 
ATOM      8  C   UNL     1       2.647   4.018  18.463  0.00  0.00    +0.000 A 
ATOM      9  C   UNL     1       3.809   4.225  17.523  0.00  0.00    +0.000 C 
ATOM     10  N   UNL     1       4.242   5.649  17.332  0.00  0.00    +0.000 NA
ENDROOT
BRANCH   1  16
ATOM     11  C   UNL     1      -0.611  10.721  18.239  0.00  0.00    +0.000 A 
ATOM     12  N   UNL     1       0.325  11.466  18.794  0.00  0.00    +0.000 NA
ATOM     13  N   UNL     1       1.494  10.755  19.002  0.00  0.00    +0.000 NA
ATOM     14  C   UNL     1       1.412   9.519  18.562  0.00  0.00    +0.000 A 
ATOM     15  N   UNL     1       2.446   8.620  18.661  0.00  0.00    +0.000 N 
ATOM     16  C   UNL     1       2.528   7.392  18.042  0.00  0.00    +0.000 C 
ATOM     17  O   UNL     1       1.684   6.905  17.292  0.00  0.00    +0.000 OA
ATOM     18  S   UNL     1      -0.117   9.109  17.924  0.00  0.00    +0.000 S 
ATOM     19  H   UNL     1       3.272   8.953  19.141  0.00  0.00    +0.000 HD
BRANCH  11  21
ATOM     20  C   UNL     1      -2.937  10.019  17.648  0.00  0.00    +0.000 C 
ATOM     21  C   UNL     1      -1.995  11.183  17.911  0.00  0.00    +0.000 C 
ENDBRANCH  11  21
ENDBRANCH   1  16
BRANCH  10  22
ATOM     22  S   UNL     1       5.926   5.842  17.044  0.00  0.00    +0.000 S 
ATOM     23  O   UNL     1       6.154   7.263  16.890  0.00  0.00    +0.000 OA
ATOM     24  O   UNL     1       6.620   5.086  18.063  0.00  0.00    +0.000 OA
BRANCH  22  25
ATOM     25  C   UNL     1       6.227   5.072  15.474  0.00  0.00    +0.000 A 
ATOM     26  C   UNL     1       5.245   4.260  14.904  0.00  0.00    +0.000 A 
ATOM     27  C   UNL     1       5.444   3.730  13.626  0.00  0.00    +0.000 A 
ATOM     28  C   UNL     1       6.618   4.012  12.912  0.00  0.00    +0.000 A 
ATOM     29  C   UNL     1       6.831   3.458  11.532  0.00  0.00    +0.000 C 
ATOM     30  C   UNL     1       7.581   4.853  13.484  0.00  0.00    +0.000 A 
ATOM     31  C   UNL     1       7.386   5.388  14.759  0.00  0.00    +0.000 A 
ENDBRANCH  22  25
ENDBRANCH  10  22
TORSDOF 4
ENDMDL
MODEL 9
REMARK VINA RESULT:      -7.5      2.591      3.458
REMARK  Name = 
REMARK  6 active torsions:
REMARK  status: ('A' for Active; 'I' for Inactive)
REMARK    1  A    between atoms: C_1  and  C_2
REMARK    2  A    between atoms: C_2  and  C_3
REMARK    3  A    between atoms: C_8  and  C_10
REMARK    4  A    between atoms: N_19  and  S_20
REMARK    5  A    between atoms: S_20  and  C_23
REMARK    6  A    between atoms: C_26  and  C_27
REMARK                            x       y       z     vdW  Elec       q    Type
REMARK                         _______ _______ _______ _____ _____    ______ ____
ROOT
ATOM      1  C   UNL     1       4.180   5.598  19.408  0.00  0.00    +0.000 C 
ATOM      2  C   UNL     1       4.027   4.346  20.284  0.00  0.00    +0.000 C 
ATOM      3  C   UNL     1       2.889   3.514  19.759  0.00  0.00    +0.000 A 
ATOM      4  C   UNL     1       1.958   2.911  20.608  0.00  0.00    +0.000 A 
ATOM      5  C   UNL     1       0.880   2.213  20.068  0.00  0.00    +0.000 A 
ATOM      6  C   UNL     1       0.740   2.106  18.685  0.00  0.00    +0.000 A 
ATOM      7  C   UNL     1       1.687   2.680  17.835  0.00  0.00    +0.000 A 
ATOM      8  C   UNL     1       2.766   3.393  18.367  0.00  0.00    +0.000 A 
ATOM      9  C   UNL     1       3.862   3.954  17.494  0.00  0.00    +0.000 C 
ATOM     10  N   UNL     1       4.434   5.268  17.938  0.00  0.00    +0.000 NA
ENDROOT
BRANCH   1  16
ATOM     11  C   UNL     1       0.418  10.283  18.914  0.00  0.00    +0.000 A 
ATOM     12  N   UNL     1       0.955  10.342  17.711  0.00  0.00    +0.000 NA
ATOM     13  N   UNL     1       1.919   9.365  17.528  0.00  0.00    +0.000 NA
ATOM     14  C   UNL     1       2.046   8.586  18.580  0.00  0.00    +0.000 A 
ATOM     15  N   UNL     1       2.943   7.548  18.636  0.00  0.00    +0.000 N 
ATOM     16  C   UNL     1       2.993   6.558  19.593  0.00  0.00    +0.000 C 
ATOM     17  O   UNL     1       2.233   6.443  20.553  0.00  0.00    +0.000 OA
ATOM     18  S   UNL     1       1.050   9.026  19.893  0.00  0.00    +0.000 S 
ATOM     19  H   UNL     1       3.543   7.443  17.829  0.00  0.00    +0.000 HD
BRANCH  11  21
ATOM     20  C   UNL     1      -1.313  11.984  18.312  0.00  0.00    +0.000 C 
ATOM     21  C   UNL     1      -0.631  11.215  19.432  0.00  0.00    +0.000 C 
ENDBRANCH  11  21
ENDBRANCH   1  16
BRANCH  10  22
ATOM     22  S   UNL     1       6.099   5.475  17.562  0.00  0.00    +0.000 S 
ATOM     23  O   UNL     1       6.337   6.903  17.530  0.00  0.00    +0.000 OA
ATOM     24  O   UNL     1       6.846   4.619  18.458  0.00  0.00    +0.000 OA
BRANCH  22  25
ATOM     25  C   UNL     1       6.290   4.857  15.909  0.00  0.00    +0.000 A 
ATOM     26  C   UNL     1       5.260   4.115  15.327  0.00  0.00    +0.000 A 
ATOM     27  C   UNL     1       5.371   3.710  13.994  0.00  0.00    +0.000 A 
ATOM     28  C   UNL     1       6.504   4.045  13.239  0.00  0.00    +0.000 A 
ATOM     29  C   UNL     1       6.623   3.625  11.801  0.00  0.00    +0.000 C 
ATOM     30  C   UNL     1       7.516   4.815  13.826  0.00  0.00    +0.000 A 
ATOM     31  C   UNL     1       7.409   5.227  15.157  0.00  0.00    +0.000 A 
ENDBRANCH  22  25
ENDBRANCH  10  22
TORSDOF 4
ENDMDL
