MODEL 1
REMARK VINA RESULT:      -8.6      0.000      0.000
REMARK  Name = 
REMARK  10 active torsions:
REMARK  status: ('A' for Active; 'I' for Inactive)
REMARK    1  A    between atoms: C_2  and  O_3
REMARK    2  A    between atoms: C_2  and  C_4
REMARK    3  A    between atoms: C_4  and  C_5
REMARK    4  A    between atoms: C_5  and  C_6
REMARK    5  A    between atoms: C_9  and  C_10
REMARK    6  A    between atoms: C_11  and  C_12
REMARK    7  A    between atoms: C_12  and  C_13
REMARK    8  A    between atoms: C_13  and  C_14
REMARK    9  A    between atoms: C_14  and  C_15
REMARK   10  A    between atoms: N_23  and  C_24
REMARK                            x       y       z     vdW  Elec       q    Type
REMARK                         _______ _______ _______ _____ _____    ______ ____
ROOT
ATOM      1  C   UNL     1       6.437   6.326  17.619  0.00  0.00    +0.000 C 
ATOM      2  C   UNL     1       7.847   6.429  18.298  0.00  0.00    +0.000 C 
ATOM      3  C   UNL     1       7.220   5.616  19.438  0.00  0.00    +0.000 C 
ATOM      4  O   UNL     1       7.626   5.167  20.488  0.00  0.00    +0.000 OA
ATOM      5  N   UNL     1       6.024   5.565  18.803  0.00  0.00    +0.000 N 
ENDROOT
BRANCH   5   6
ATOM      6  C   UNL     1       4.833   4.935  19.156  0.00  0.00    +0.000 A 
ATOM      7  C   UNL     1       4.734   3.538  19.086  0.00  0.00    +0.000 A 
ATOM      8  C   UNL     1       3.533   2.888  19.371  0.00  0.00    +0.000 A 
ATOM      9  C   UNL     1       2.418   3.639  19.711  0.00  0.00    +0.000 A 
ATOM     10  F   UNL     1       1.254   3.022  19.948  0.00  0.00    +0.000 F 
ATOM     11  C   UNL     1       2.496   5.023  19.806  0.00  0.00    +0.000 A 
ATOM     12  C   UNL     1       3.709   5.672  19.553  0.00  0.00    +0.000 A 
ENDBRANCH   5   6
BRANCH   1  16
ATOM     13  C   UNL     1       6.332   4.283  13.673  0.00  0.00    +0.000 A 
ATOM     14  C   UNL     1       5.205   4.300  14.500  0.00  0.00    +0.000 A 
ATOM     15  C   UNL     1       5.240   4.956  15.731  0.00  0.00    +0.000 A 
ATOM     16  C   UNL     1       6.394   5.606  16.204  0.00  0.00    +0.000 A 
ATOM     17  C   UNL     1       7.521   5.569  15.356  0.00  0.00    +0.000 A 
ATOM     18  C   UNL     1       7.494   4.921  14.116  0.00  0.00    +0.000 A 
BRANCH  13  19
ATOM     19  C   UNL     1       6.297   3.566  12.346  0.00  0.00    +0.000 C 
BRANCH  19  20
ATOM     20  C   UNL     1       5.065   2.672  12.201  0.00  0.00    +0.000 C 
BRANCH  20  22
ATOM     21  O   UNL     1       4.073   4.415  10.835  0.00  0.00    +0.000 OA
ATOM     22  C   UNL     1       4.073   3.262  11.229  0.00  0.00    +0.000 C 
BRANCH  22  23
ATOM     23  O   UNL     1       3.152   2.357  10.820  0.00  0.00    +0.000 OA
ATOM     24  H   UNL     1       3.226   2.110   9.879  0.00  0.00    +0.000 HD
ENDBRANCH  22  23
ENDBRANCH  20  22
ENDBRANCH  19  20
ENDBRANCH  13  19
ENDBRANCH   1  16
BRANCH   2  25
ATOM     25  C   UNL     1       8.358   7.805  18.704  0.00  0.00    +0.000 C 
BRANCH  25  26
ATOM     26  C   UNL     1       8.170   8.775  17.537  0.00  0.00    +0.000 C 
BRANCH  26  27
ATOM     27  C   UNL     1       7.979  10.215  18.011  0.00  0.00    +0.000 C 
BRANCH  27  28
ATOM     28  C   UNL     1       9.269  10.730  18.597  0.00  0.00    +0.000 A 
ATOM     29  C   UNL     1       9.399  10.906  19.981  0.00  0.00    +0.000 A 
ATOM     30  C   UNL     1      10.546  11.496  20.512  0.00  0.00    +0.000 A 
ATOM     31  C   UNL     1      11.573  11.911  19.665  0.00  0.00    +0.000 A 
ATOM     32  C   UNL     1      11.460  11.725  18.288  0.00  0.00    +0.000 A 
ATOM     33  C   UNL     1      10.314  11.136  17.756  0.00  0.00    +0.000 A 
ENDBRANCH  27  28
ENDBRANCH  26  27
ENDBRANCH  25  26
ENDBRANCH   2  25
TORSDOF 10
ENDMDL
MODEL 2
REMARK VINA RESULT:      -8.5      1.588      2.001
REMARK  Name = 
REMARK  10 active torsions:
REMARK  status: ('A' for Active; 'I' for Inactive)
REMARK    1  A    between atoms: C_2  and  O_3
REMARK    2  A    between atoms: C_2  and  C_4
REMARK    3  A    between atoms: C_4  and  C_5
REMARK    4  A    between atoms: C_5  and  C_6
REMARK    5  A    between atoms: C_9  and  C_10
REMARK    6  A    between atoms: C_11  and  C_12
REMARK    7  A    between atoms: C_12  and  C_13
REMARK    8  A    between atoms: C_13  and  C_14
REMARK    9  A    between atoms: C_14  and  C_15
REMARK   10  A    between atoms: N_23  and  C_24
REMARK                            x       y       z     vdW  Elec       q    Type
REMARK                         _______ _______ _______ _____ _____    ______ ____
ROOT
ATOM      1  C   UNL     1       5.357   6.021  16.687  0.00  0.00    +0.000 C 
ATOM      2  C   UNL     1       6.576   6.469  17.564  0.00  0.00    +0.000 C 
ATOM      3  C   UNL     1       5.978   5.556  18.643  0.00  0.00    +0.000 C 
ATOM      4  O   UNL     1       6.302   5.239  19.767  0.00  0.00    +0.000 OA
ATOM      5  N   UNL     1       4.945   5.209  17.837  0.00  0.00    +0.000 N 
ENDROOT
BRANCH   5   6
ATOM      6  C   UNL     1       3.890   4.324  18.043  0.00  0.00    +0.000 A 
ATOM      7  C   UNL     1       2.579   4.811  18.149  0.00  0.00    +0.000 A 
ATOM      8  C   UNL     1       1.514   3.952  18.420  0.00  0.00    +0.000 A 
ATOM      9  C   UNL     1       1.761   2.601  18.605  0.00  0.00    +0.000 A 
ATOM     10  F   UNL     1       0.747   1.779  18.903  0.00  0.00    +0.000 F 
ATOM     11  C   UNL     1       3.048   2.090  18.486  0.00  0.00    +0.000 A 
ATOM     12  C   UNL     1       4.111   2.946  18.180  0.00  0.00    +0.000 A 
ENDBRANCH   5   6
BRANCH   1  16
ATOM     13  C   UNL     1       6.363   3.926  12.899  0.00  0.00    +0.000 A 
ATOM     14  C   UNL     1       5.150   3.683  13.549  0.00  0.00    +0.000 A 
ATOM     15  C   UNL     1       4.834   4.355  14.731  0.00  0.00    +0.000 A 
ATOM     16  C   UNL     1       5.710   5.280  15.327  0.00  0.00    +0.000 A 
ATOM     17  C   UNL     1       6.931   5.504  14.657  0.00  0.00    +0.000 A 
ATOM     18  C   UNL     1       7.254   4.841  13.467  0.00  0.00    +0.000 A 
BRANCH  13  19
ATOM     19  C   UNL     1       6.710   3.193  11.626  0.00  0.00    +0.000 C 
BRANCH  19  20
ATOM     20  C   UNL     1       5.728   2.061  11.323  0.00  0.00    +0.000 C 
BRANCH  20  22
ATOM     21  O   UNL     1       5.905  -0.333  10.970  0.00  0.00    +0.000 OA
ATOM     22  C   UNL     1       6.440   0.735  11.208  0.00  0.00    +0.000 C 
BRANCH  22  23
ATOM     23  O   UNL     1       7.777   0.851  11.396  0.00  0.00    +0.000 OA
ATOM     24  H   UNL     1       8.278   0.036  11.208  0.00  0.00    +0.000 HD
ENDBRANCH  22  23
ENDBRANCH  20  22
ENDBRANCH  19  20
ENDBRANCH  13  19
ENDBRANCH   1  16
BRANCH   2  25
ATOM     25  C   UNL     1       6.685   7.936  17.962  0.00  0.00    +0.000 C 
BRANCH  25  26
ATOM     26  C   UNL     1       8.151   8.365  17.900  0.00  0.00    +0.000 C 
BRANCH  26  27
ATOM     27  C   UNL     1       8.304   9.843  17.542  0.00  0.00    +0.000 C 
BRANCH  27  28
ATOM     28  C   UNL     1       9.359  10.469  18.417  0.00  0.00    +0.000 A 
ATOM     29  C   UNL     1       9.182  10.533  19.806  0.00  0.00    +0.000 A 
ATOM     30  C   UNL     1      10.099  11.219  20.602  0.00  0.00    +0.000 A 
ATOM     31  C   UNL     1      11.200  11.844  20.019  0.00  0.00    +0.000 A 
ATOM     32  C   UNL     1      11.393  11.773  18.640  0.00  0.00    +0.000 A 
ATOM     33  C   UNL     1      10.478  11.087  17.843  0.00  0.00    +0.000 A 
ENDBRANCH  27  28
ENDBRANCH  26  27
ENDBRANCH  25  26
ENDBRANCH   2  25
TORSDOF 10
ENDMDL
MODEL 3
REMARK VINA RESULT:      -8.5      0.506      1.107
REMARK  Name = 
REMARK  10 active torsions:
REMARK  status: ('A' for Active; 'I' for Inactive)
REMARK    1  A    between atoms: C_2  and  O_3
REMARK    2  A    between atoms: C_2  and  C_4
REMARK    3  A    between atoms: C_4  and  C_5
REMARK    4  A    between atoms: C_5  and  C_6
REMARK    5  A    between atoms: C_9  and  C_10
REMARK    6  A    between atoms: C_11  and  C_12
REMARK    7  A    between atoms: C_12  and  C_13
REMARK    8  A    between atoms: C_13  and  C_14
REMARK    9  A    between atoms: C_14  and  C_15
REMARK   10  A    between atoms: N_23  and  C_24
REMARK                            x       y       z     vdW  Elec       q    Type
REMARK                         _______ _______ _______ _____ _____    ______ ____
ROOT
ATOM      1  C   UNL     1       6.287   6.237  17.642  0.00  0.00    +0.000 C 
ATOM      2  C   UNL     1       7.720   6.277  18.278  0.00  0.00    +0.000 C 
ATOM      3  C   UNL     1       7.076   5.557  19.470  0.00  0.00    +0.000 C 
ATOM      4  O   UNL     1       7.483   5.128  20.529  0.00  0.00    +0.000 OA
ATOM      5  N   UNL     1       5.861   5.556  18.869  0.00  0.00    +0.000 N 
ENDROOT
BRANCH   5   6
ATOM      6  C   UNL     1       4.644   5.020  19.281  0.00  0.00    +0.000 A 
ATOM      7  C   UNL     1       3.574   5.874  19.591  0.00  0.00    +0.000 A 
ATOM      8  C   UNL     1       2.366   5.367  20.069  0.00  0.00    +0.000 A 
ATOM      9  C   UNL     1       2.230   4.000  20.256  0.00  0.00    +0.000 A 
ATOM     10  F   UNL     1       1.086   3.513  20.750  0.00  0.00    +0.000 F 
ATOM     11  C   UNL     1       3.267   3.132  19.939  0.00  0.00    +0.000 A 
ATOM     12  C   UNL     1       4.467   3.638  19.427  0.00  0.00    +0.000 A 
ENDBRANCH   5   6
BRANCH   1  16
ATOM     13  C   UNL     1       5.943   4.038  13.795  0.00  0.00    +0.000 A 
ATOM     14  C   UNL     1       4.884   4.053  14.707  0.00  0.00    +0.000 A 
ATOM     15  C   UNL     1       4.993   4.757  15.907  0.00  0.00    +0.000 A 
ATOM     16  C   UNL     1       6.158   5.460  16.262  0.00  0.00    +0.000 A 
ATOM     17  C   UNL     1       7.216   5.426  15.329  0.00  0.00    +0.000 A 
ATOM     18  C   UNL     1       7.113   4.729  14.119  0.00  0.00    +0.000 A 
BRANCH  13  19
ATOM     19  C   UNL     1       5.828   3.269  12.502  0.00  0.00    +0.000 C 
BRANCH  19  20
ATOM     20  C   UNL     1       5.228   4.112  11.376  0.00  0.00    +0.000 C 
BRANCH  20  22
ATOM     21  O   UNL     1       3.409   2.507  11.311  0.00  0.00    +0.000 OA
ATOM     22  C   UNL     1       3.910   3.543  10.910  0.00  0.00    +0.000 C 
BRANCH  22  23
ATOM     23  O   UNL     1       3.314   4.322   9.976  0.00  0.00    +0.000 OA
ATOM     24  H   UNL     1       2.370   4.124   9.835  0.00  0.00    +0.000 HD
ENDBRANCH  22  23
ENDBRANCH  20  22
ENDBRANCH  19  20
ENDBRANCH  13  19
ENDBRANCH   1  16
BRANCH   2  25
ATOM     25  C   UNL     1       8.330   7.633  18.609  0.00  0.00    +0.000 C 
BRANCH  25  26
ATOM     26  C   UNL     1       8.156   8.567  17.411  0.00  0.00    +0.000 C 
BRANCH  26  27
ATOM     27  C   UNL     1       7.910  10.014  17.839  0.00  0.00    +0.000 C 
BRANCH  27  28
ATOM     28  C   UNL     1       9.163  10.579  18.457  0.00  0.00    +0.000 A 
ATOM     29  C   UNL     1       9.268  10.718  19.847  0.00  0.00    +0.000 A 
ATOM     30  C   UNL     1      10.376  11.351  20.410  0.00  0.00    +0.000 A 
ATOM     31  C   UNL     1      11.388  11.848  19.591  0.00  0.00    +0.000 A 
ATOM     32  C   UNL     1      11.301  11.699  18.207  0.00  0.00    +0.000 A 
ATOM     33  C   UNL     1      10.194  11.066  17.643  0.00  0.00    +0.000 A 
ENDBRANCH  27  28
ENDBRANCH  26  27
ENDBRANCH  25  26
ENDBRANCH   2  25
TORSDOF 10
ENDMDL
MODEL 4
REMARK VINA RESULT:      -8.4      4.185      6.071
REMARK  Name = 
REMARK  10 active torsions:
REMARK  status: ('A' for Active; 'I' for Inactive)
REMARK    1  A    between atoms: C_2  and  O_3
REMARK    2  A    between atoms: C_2  and  C_4
REMARK    3  A    between atoms: C_4  and  C_5
REMARK    4  A    between atoms: C_5  and  C_6
REMARK    5  A    between atoms: C_9  and  C_10
REMARK    6  A    between atoms: C_11  and  C_12
REMARK    7  A    between atoms: C_12  and  C_13
REMARK    8  A    between atoms: C_13  and  C_14
REMARK    9  A    between atoms: C_14  and  C_15
REMARK   10  A    between atoms: N_23  and  C_24
REMARK                            x       y       z     vdW  Elec       q    Type
REMARK                         _______ _______ _______ _____ _____    ______ ____
ROOT
ATOM      1  C   UNL     1       4.445   6.447  18.210  0.00  0.00    +0.000 C 
ATOM      2  C   UNL     1       5.383   6.771  16.996  0.00  0.00    +0.000 C 
ATOM      3  C   UNL     1       4.943   5.406  16.450  0.00  0.00    +0.000 C 
ATOM      4  O   UNL     1       5.180   4.774  15.443  0.00  0.00    +0.000 OA
ATOM      5  N   UNL     1       4.151   5.182  17.527  0.00  0.00    +0.000 N 
ENDROOT
BRANCH   5   6
ATOM      6  C   UNL     1       3.304   4.119  17.826  0.00  0.00    +0.000 A 
ATOM      7  C   UNL     1       1.914   4.313  17.831  0.00  0.00    +0.000 A 
ATOM      8  C   UNL     1       1.046   3.282  18.191  0.00  0.00    +0.000 A 
ATOM      9  C   UNL     1       1.569   2.054  18.566  0.00  0.00    +0.000 A 
ATOM     10  F   UNL     1       0.742   1.074  18.949  0.00  0.00    +0.000 F 
ATOM     11  C   UNL     1       2.941   1.831  18.551  0.00  0.00    +0.000 A 
ATOM     12  C   UNL     1       3.809   2.854  18.157  0.00  0.00    +0.000 A 
ENDBRANCH   5   6
BRANCH   1  16
ATOM     13  C   UNL     1       1.127   9.313  18.935  0.00  0.00    +0.000 A 
ATOM     14  C   UNL     1       1.885   9.379  17.763  0.00  0.00    +0.000 A 
ATOM     15  C   UNL     1       2.917   8.467  17.535  0.00  0.00    +0.000 A 
ATOM     16  C   UNL     1       3.252   7.464  18.462  0.00  0.00    +0.000 A 
ATOM     17  C   UNL     1       2.478   7.421  19.641  0.00  0.00    +0.000 A 
ATOM     18  C   UNL     1       1.436   8.327  19.876  0.00  0.00    +0.000 A 
BRANCH  13  19
ATOM     19  C   UNL     1       0.018  10.305  19.187  0.00  0.00    +0.000 C 
BRANCH  19  20
ATOM     20  C   UNL     1      -1.084  10.223  18.130  0.00  0.00    +0.000 C 
BRANCH  20  22
ATOM     21  O   UNL     1      -2.122  12.305  18.822  0.00  0.00    +0.000 OA
ATOM     22  C   UNL     1      -1.750  11.563  17.930  0.00  0.00    +0.000 C 
BRANCH  22  23
ATOM     23  O   UNL     1      -1.897  11.874  16.620  0.00  0.00    +0.000 OA
ATOM     24  H   UNL     1      -2.673  12.433  16.427  0.00  0.00    +0.000 HD
ENDBRANCH  22  23
ENDBRANCH  20  22
ENDBRANCH  19  20
ENDBRANCH  13  19
ENDBRANCH   1  16
BRANCH   2  25
ATOM     25  C   UNL     1       6.879   6.902  17.250  0.00  0.00    +0.000 C 
BRANCH  25  26
ATOM     26  C   UNL     1       7.208   8.359  17.577  0.00  0.00    +0.000 C 
BRANCH  26  27
ATOM     27  C   UNL     1       8.534   8.497  18.324  0.00  0.00    +0.000 C 
BRANCH  27  28
ATOM     28  C   UNL     1       8.807   9.952  18.605  0.00  0.00    +0.000 A 
ATOM     29  C   UNL     1       8.489  10.930  17.654  0.00  0.00    +0.000 A 
ATOM     30  C   UNL     1       8.852  12.261  17.862  0.00  0.00    +0.000 A 
ATOM     31  C   UNL     1       9.534  12.625  19.022  0.00  0.00    +0.000 A 
ATOM     32  C   UNL     1       9.840  11.661  19.983  0.00  0.00    +0.000 A 
ATOM     33  C   UNL     1       9.477  10.332  19.776  0.00  0.00    +0.000 A 
ENDBRANCH  27  28
ENDBRANCH  26  27
ENDBRANCH  25  26
ENDBRANCH   2  25
TORSDOF 10
ENDMDL
MODEL 5
REMARK VINA RESULT:      -8.3      1.561      2.075
REMARK  Name = 
REMARK  10 active torsions:
REMARK  status: ('A' for Active; 'I' for Inactive)
REMARK    1  A    between atoms: C_2  and  O_3
REMARK    2  A    between atoms: C_2  and  C_4
REMARK    3  A    between atoms: C_4  and  C_5
REMARK    4  A    between atoms: C_5  and  C_6
REMARK    5  A    between atoms: C_9  and  C_10
REMARK    6  A    between atoms: C_11  and  C_12
REMARK    7  A    between atoms: C_12  and  C_13
REMARK    8  A    between atoms: C_13  and  C_14
REMARK    9  A    between atoms: C_14  and  C_15
REMARK   10  A    between atoms: N_23  and  C_24
REMARK                            x       y       z     vdW  Elec       q    Type
REMARK                         _______ _______ _______ _____ _____    ______ ____
ROOT
ATOM      1  C   UNL     1       5.753   6.191  16.756  0.00  0.00    +0.000 C 
ATOM      2  C   UNL     1       7.043   6.705  17.484  0.00  0.00    +0.000 C 
ATOM      3  C   UNL     1       6.568   5.848  18.665  0.00  0.00    +0.000 C 
ATOM      4  O   UNL     1       7.005   5.600  19.769  0.00  0.00    +0.000 OA
ATOM      5  N   UNL     1       5.469   5.442  17.984  0.00  0.00    +0.000 N 
ENDROOT
BRANCH   5   6
ATOM      6  C   UNL     1       4.456   4.555  18.341  0.00  0.00    +0.000 A 
ATOM      7  C   UNL     1       4.639   3.176  18.161  0.00  0.00    +0.000 A 
ATOM      8  C   UNL     1       3.616   2.273  18.448  0.00  0.00    +0.000 A 
ATOM      9  C   UNL     1       2.396   2.750  18.900  0.00  0.00    +0.000 A 
ATOM     10  F   UNL     1       1.399   1.890  19.140  0.00  0.00    +0.000 F 
ATOM     11  C   UNL     1       2.195   4.110  19.104  0.00  0.00    +0.000 A 
ATOM     12  C   UNL     1       3.233   5.013  18.849  0.00  0.00    +0.000 A 
ENDBRANCH   5   6
BRANCH   1  16
ATOM     13  C   UNL     1       6.394   3.940  12.978  0.00  0.00    +0.000 A 
ATOM     14  C   UNL     1       7.414   4.721  13.526  0.00  0.00    +0.000 A 
ATOM     15  C   UNL     1       7.212   5.414  14.720  0.00  0.00    +0.000 A 
ATOM     16  C   UNL     1       5.988   5.377  15.412  0.00  0.00    +0.000 A 
ATOM     17  C   UNL     1       4.970   4.588  14.836  0.00  0.00    +0.000 A 
ATOM     18  C   UNL     1       5.166   3.883  13.643  0.00  0.00    +0.000 A 
BRANCH  13  19
ATOM     19  C   UNL     1       6.609   3.198  11.681  0.00  0.00    +0.000 C 
BRANCH  19  20
ATOM     20  C   UNL     1       5.639   2.028  11.514  0.00  0.00    +0.000 C 
BRANCH  20  22
ATOM     21  O   UNL     1       5.858  -0.328  10.975  0.00  0.00    +0.000 OA
ATOM     22  C   UNL     1       6.378   0.737  11.259  0.00  0.00    +0.000 C 
BRANCH  22  23
ATOM     23  O   UNL     1       7.720   0.880  11.376  0.00  0.00    +0.000 OA
ATOM     24  H   UNL     1       8.025   1.053  12.286  0.00  0.00    +0.000 HD
ENDBRANCH  22  23
ENDBRANCH  20  22
ENDBRANCH  19  20
ENDBRANCH  13  19
ENDBRANCH   1  16
BRANCH   2  25
ATOM     25  C   UNL     1       7.162   8.193  17.786  0.00  0.00    +0.000 C 
BRANCH  25  26
ATOM     26  C   UNL     1       8.635   8.547  17.995  0.00  0.00    +0.000 C 
BRANCH  26  27
ATOM     27  C   UNL     1       8.828   9.568  19.115  0.00  0.00    +0.000 C 
BRANCH  27  28
ATOM     28  C   UNL     1       9.430  10.830  18.552  0.00  0.00    +0.000 A 
ATOM     29  C   UNL     1       8.605  11.853  18.065  0.00  0.00    +0.000 A 
ATOM     30  C   UNL     1       9.160  12.966  17.434  0.00  0.00    +0.000 A 
ATOM     31  C   UNL     1      10.543  13.068  17.287  0.00  0.00    +0.000 A 
ATOM     32  C   UNL     1      11.373  12.063  17.783  0.00  0.00    +0.000 A 
ATOM     33  C   UNL     1      10.819  10.950  18.414  0.00  0.00    +0.000 A 
ENDBRANCH  27  28
ENDBRANCH  26  27
ENDBRANCH  25  26
ENDBRANCH   2  25
TORSDOF 10
ENDMDL
MODEL 6
REMARK VINA RESULT:      -8.3      1.142      1.657
REMARK  Name = 
REMARK  10 active torsions:
REMARK  status: ('A' for Active; 'I' for Inactive)
REMARK    1  A    between atoms: C_2  and  O_3
REMARK    2  A    between atoms: C_2  and  C_4
REMARK    3  A    between atoms: C_4  and  C_5
REMARK    4  A    between atoms: C_5  and  C_6
REMARK    5  A    between atoms: C_9  and  C_10
REMARK    6  A    between atoms: C_11  and  C_12
REMARK    7  A    between atoms: C_12  and  C_13
REMARK    8  A    between atoms: C_13  and  C_14
REMARK    9  A    between atoms: C_14  and  C_15
REMARK   10  A    between atoms: N_23  and  C_24
REMARK                            x       y       z     vdW  Elec       q    Type
REMARK                         _______ _______ _______ _____ _____    ______ ____
ROOT
ATOM      1  C   UNL     1       6.414   6.303  17.636  0.00  0.00    +0.000 C 
ATOM      2  C   UNL     1       7.821   6.417  18.319  0.00  0.00    +0.000 C 
ATOM      3  C   UNL     1       7.210   5.563  19.438  0.00  0.00    +0.000 C 
ATOM      4  O   UNL     1       7.624   5.095  20.477  0.00  0.00    +0.000 OA
ATOM      5  N   UNL     1       6.015   5.503  18.800  0.00  0.00    +0.000 N 
ENDROOT
BRANCH   5   6
ATOM      6  C   UNL     1       4.838   4.841  19.135  0.00  0.00    +0.000 A 
ATOM      7  C   UNL     1       4.720   3.462  18.902  0.00  0.00    +0.000 A 
ATOM      8  C   UNL     1       3.529   2.788  19.167  0.00  0.00    +0.000 A 
ATOM      9  C   UNL     1       2.441   3.496  19.653  0.00  0.00    +0.000 A 
ATOM     10  F   UNL     1       1.284   2.860  19.874  0.00  0.00    +0.000 F 
ATOM     11  C   UNL     1       2.538   4.858  19.911  0.00  0.00    +0.000 A 
ATOM     12  C   UNL     1       3.743   5.528  19.676  0.00  0.00    +0.000 A 
ENDBRANCH   5   6
BRANCH   1  16
ATOM     13  C   UNL     1       6.330   4.416  13.613  0.00  0.00    +0.000 A 
ATOM     14  C   UNL     1       7.541   4.792  14.201  0.00  0.00    +0.000 A 
ATOM     15  C   UNL     1       7.562   5.371  15.471  0.00  0.00    +0.000 A 
ATOM     16  C   UNL     1       6.387   5.618  16.203  0.00  0.00    +0.000 A 
ATOM     17  C   UNL     1       5.176   5.237  15.587  0.00  0.00    +0.000 A 
ATOM     18  C   UNL     1       5.146   4.648  14.317  0.00  0.00    +0.000 A 
BRANCH  13  19
ATOM     19  C   UNL     1       6.307   3.799  12.236  0.00  0.00    +0.000 C 
BRANCH  19  20
ATOM     20  C   UNL     1       5.688   2.401  12.237  0.00  0.00    +0.000 C 
BRANCH  20  22
ATOM     21  O   UNL     1       7.576   1.700  10.884  0.00  0.00    +0.000 OA
ATOM     22  C   UNL     1       6.523   1.433  11.435  0.00  0.00    +0.000 C 
BRANCH  22  23
ATOM     23  O   UNL     1       5.973   0.195  11.388  0.00  0.00    +0.000 OA
ATOM     24  H   UNL     1       6.384  -0.399  10.733  0.00  0.00    +0.000 HD
ENDBRANCH  22  23
ENDBRANCH  20  22
ENDBRANCH  19  20
ENDBRANCH  13  19
ENDBRANCH   1  16
BRANCH   2  25
ATOM     25  C   UNL     1       8.303   7.792  18.761  0.00  0.00    +0.000 C 
BRANCH  25  26
ATOM     26  C   UNL     1       8.278   8.742  17.563  0.00  0.00    +0.000 C 
BRANCH  26  27
ATOM     27  C   UNL     1       7.854  10.156  17.958  0.00  0.00    +0.000 C 
BRANCH  27  28
ATOM     28  C   UNL     1       9.058  10.933  18.428  0.00  0.00    +0.000 A 
ATOM     29  C   UNL     1       9.606  11.944  17.627  0.00  0.00    +0.000 A 
ATOM     30  C   UNL     1      10.789  12.578  18.005  0.00  0.00    +0.000 A 
ATOM     31  C   UNL     1      11.433  12.210  19.186  0.00  0.00    +0.000 A 
ATOM     32  C   UNL     1      10.886  11.216  19.998  0.00  0.00    +0.000 A 
ATOM     33  C   UNL     1       9.703  10.582  19.621  0.00  0.00    +0.000 A 
ENDBRANCH  27  28
ENDBRANCH  26  27
ENDBRANCH  25  26
ENDBRANCH   2  25
TORSDOF 10
ENDMDL
MODEL 7
REMARK VINA RESULT:      -8.3      4.265      8.082
REMARK  Name = 
REMARK  10 active torsions:
REMARK  status: ('A' for Active; 'I' for Inactive)
REMARK    1  A    between atoms: C_2  and  O_3
REMARK    2  A    between atoms: C_2  and  C_4
REMARK    3  A    between atoms: C_4  and  C_5
REMARK    4  A    between atoms: C_5  and  C_6
REMARK    5  A    between atoms: C_9  and  C_10
REMARK    6  A    between atoms: C_11  and  C_12
REMARK    7  A    between atoms: C_12  and  C_13
REMARK    8  A    between atoms: C_13  and  C_14
REMARK    9  A    between atoms: C_14  and  C_15
REMARK   10  A    between atoms: N_23  and  C_24
REMARK                            x       y       z     vdW  Elec       q    Type
REMARK                         _______ _______ _______ _____ _____    ______ ____
ROOT
ATOM      1  C   UNL     1       3.907   6.141  18.432  0.00  0.00    +0.000 C 
ATOM      2  C   UNL     1       4.328   5.823  16.955  0.00  0.00    +0.000 C 
ATOM      3  C   UNL     1       3.745   4.428  17.220  0.00  0.00    +0.000 C 
ATOM      4  O   UNL     1       3.609   3.422  16.559  0.00  0.00    +0.000 OA
ATOM      5  N   UNL     1       3.408   4.763  18.490  0.00  0.00    +0.000 N 
ENDROOT
BRANCH   5   6
ATOM      6  C   UNL     1       2.751   4.034  19.477  0.00  0.00    +0.000 A 
ATOM      7  C   UNL     1       1.349   4.003  19.507  0.00  0.00    +0.000 A 
ATOM      8  C   UNL     1       0.666   3.336  20.524  0.00  0.00    +0.000 A 
ATOM      9  C   UNL     1       1.387   2.709  21.528  0.00  0.00    +0.000 A 
ATOM     10  F   UNL     1       0.736   2.099  22.526  0.00  0.00    +0.000 F 
ATOM     11  C   UNL     1       2.777   2.709  21.511  0.00  0.00    +0.000 A 
ATOM     12  C   UNL     1       3.461   3.349  20.473  0.00  0.00    +0.000 A 
ENDBRANCH   5   6
BRANCH   1  16
ATOM     13  C   UNL     1       1.026   9.481  18.982  0.00  0.00    +0.000 A 
ATOM     14  C   UNL     1       1.755   9.353  17.796  0.00  0.00    +0.000 A 
ATOM     15  C   UNL     1       2.647   8.294  17.624  0.00  0.00    +0.000 A 
ATOM     16  C   UNL     1       2.869   7.329  18.622  0.00  0.00    +0.000 A 
ATOM     17  C   UNL     1       2.128   7.482  19.813  0.00  0.00    +0.000 A 
ATOM     18  C   UNL     1       1.225   8.536  19.992  0.00  0.00    +0.000 A 
BRANCH  13  19
ATOM     19  C   UNL     1       0.068  10.631  19.172  0.00  0.00    +0.000 C 
BRANCH  19  20
ATOM     20  C   UNL     1      -1.339  10.303  18.673  0.00  0.00    +0.000 C 
BRANCH  20  22
ATOM     21  O   UNL     1      -2.259  11.373  16.698  0.00  0.00    +0.000 OA
ATOM     22  C   UNL     1      -1.911  11.442  17.864  0.00  0.00    +0.000 C 
BRANCH  22  23
ATOM     23  O   UNL     1      -2.010  12.586  18.583  0.00  0.00    +0.000 OA
ATOM     24  H   UNL     1      -1.588  13.358  18.164  0.00  0.00    +0.000 HD
ENDBRANCH  22  23
ENDBRANCH  20  22
ENDBRANCH  19  20
ENDBRANCH  13  19
ENDBRANCH   1  16
BRANCH   2  25
ATOM     25  C   UNL     1       5.809   5.837  16.604  0.00  0.00    +0.000 C 
BRANCH  25  26
ATOM     26  C   UNL     1       5.964   5.837  15.082  0.00  0.00    +0.000 C 
BRANCH  26  27
ATOM     27  C   UNL     1       6.975   4.794  14.607  0.00  0.00    +0.000 C 
BRANCH  27  28
ATOM     28  C   UNL     1       6.371   3.975  13.494  0.00  0.00    +0.000 A 
ATOM     29  C   UNL     1       7.192   3.355  12.543  0.00  0.00    +0.000 A 
ATOM     30  C   UNL     1       6.631   2.700  11.448  0.00  0.00    +0.000 A 
ATOM     31  C   UNL     1       5.246   2.656  11.294  0.00  0.00    +0.000 A 
ATOM     32  C   UNL     1       4.420   3.255  12.245  0.00  0.00    +0.000 A 
ATOM     33  C   UNL     1       4.980   3.911  13.340  0.00  0.00    +0.000 A 
ENDBRANCH  27  28
ENDBRANCH  26  27
ENDBRANCH  25  26
ENDBRANCH   2  25
TORSDOF 10
ENDMDL
MODEL 8
REMARK VINA RESULT:      -8.3      4.560      7.840
REMARK  Name = 
REMARK  10 active torsions:
REMARK  status: ('A' for Active; 'I' for Inactive)
REMARK    1  A    between atoms: C_2  and  O_3
REMARK    2  A    between atoms: C_2  and  C_4
REMARK    3  A    between atoms: C_4  and  C_5
REMARK    4  A    between atoms: C_5  and  C_6
REMARK    5  A    between atoms: C_9  and  C_10
REMARK    6  A    between atoms: C_11  and  C_12
REMARK    7  A    between atoms: C_12  and  C_13
REMARK    8  A    between atoms: C_13  and  C_14
REMARK    9  A    between atoms: C_14  and  C_15
REMARK   10  A    between atoms: N_23  and  C_24
REMARK                            x       y       z     vdW  Elec       q    Type
REMARK                         _______ _______ _______ _____ _____    ______ ____
ROOT
ATOM      1  C   UNL     1       3.646   6.563  18.544  0.00  0.00    +0.000 C 
ATOM      2  C   UNL     1       4.032   6.302  17.047  0.00  0.00    +0.000 C 
ATOM      3  C   UNL     1       3.562   4.864  17.306  0.00  0.00    +0.000 C 
ATOM      4  O   UNL     1       3.473   3.862  16.630  0.00  0.00    +0.000 OA
ATOM      5  N   UNL     1       3.250   5.152  18.593  0.00  0.00    +0.000 N 
ENDROOT
BRANCH   5   6
ATOM      6  C   UNL     1       2.685   4.360  19.590  0.00  0.00    +0.000 A 
ATOM      7  C   UNL     1       3.511   3.605  20.436  0.00  0.00    +0.000 A 
ATOM      8  C   UNL     1       2.968   2.754  21.398  0.00  0.00    +0.000 A 
ATOM      9  C   UNL     1       1.590   2.642  21.505  0.00  0.00    +0.000 A 
ATOM     10  F   UNL     1       1.065   1.799  22.402  0.00  0.00    +0.000 F 
ATOM     11  C   UNL     1       0.750   3.393  20.692  0.00  0.00    +0.000 A 
ATOM     12  C   UNL     1       1.296   4.272  19.750  0.00  0.00    +0.000 A 
ENDBRANCH   5   6
BRANCH   1  16
ATOM     13  C   UNL     1       0.511   9.636  19.235  0.00  0.00    +0.000 A 
ATOM     14  C   UNL     1       0.956   8.822  20.280  0.00  0.00    +0.000 A 
ATOM     15  C   UNL     1       1.951   7.869  20.060  0.00  0.00    +0.000 A 
ATOM     16  C   UNL     1       2.534   7.669  18.796  0.00  0.00    +0.000 A 
ATOM     17  C   UNL     1       2.063   8.497  17.755  0.00  0.00    +0.000 A 
ATOM     18  C   UNL     1       1.071   9.462  17.967  0.00  0.00    +0.000 A 
BRANCH  13  19
ATOM     19  C   UNL     1      -0.573  10.661  19.471  0.00  0.00    +0.000 C 
BRANCH  19  20
ATOM     20  C   UNL     1      -1.622  10.662  18.359  0.00  0.00    +0.000 C 
BRANCH  20  22
ATOM     21  O   UNL     1      -2.787  12.396  19.592  0.00  0.00    +0.000 OA
ATOM     22  C   UNL     1      -2.634  11.763  18.563  0.00  0.00    +0.000 C 
BRANCH  22  23
ATOM     23  O   UNL     1      -3.378  11.990  17.454  0.00  0.00    +0.000 OA
ATOM     24  H   UNL     1      -4.126  12.599  17.594  0.00  0.00    +0.000 HD
ENDBRANCH  22  23
ENDBRANCH  20  22
ENDBRANCH  19  20
ENDBRANCH  13  19
ENDBRANCH   1  16
BRANCH   2  25
ATOM     25  C   UNL     1       5.495   6.429  16.642  0.00  0.00    +0.000 C 
BRANCH  25  26
ATOM     26  C   UNL     1       6.218   5.119  16.955  0.00  0.00    +0.000 C 
BRANCH  26  27
ATOM     27  C   UNL     1       7.473   4.936  16.103  0.00  0.00    +0.000 C 
BRANCH  27  28
ATOM     28  C   UNL     1       7.080   4.677  14.671  0.00  0.00    +0.000 A 
ATOM     29  C   UNL     1       6.057   3.768  14.370  0.00  0.00    +0.000 A 
ATOM     30  C   UNL     1       5.775   3.438  13.045  0.00  0.00    +0.000 A 
ATOM     31  C   UNL     1       6.511   4.014  12.010  0.00  0.00    +0.000 A 
ATOM     32  C   UNL     1       7.521   4.932  12.299  0.00  0.00    +0.000 A 
ATOM     33  C   UNL     1       7.803   5.263  13.624  0.00  0.00    +0.000 A 
ENDBRANCH  27  28
ENDBRANCH  26  27
ENDBRANCH  25  26
ENDBRANCH   2  25
TORSDOF 10
ENDMDL
MODEL 9
REMARK VINA RESULT:      -8.3      4.257      8.036
REMARK  Name = 
REMARK  10 active torsions:
REMARK  status: ('A' for Active; 'I' for Inactive)
REMARK    1  A    between atoms: C_2  and  O_3
REMARK    2  A    between atoms: C_2  and  C_4
REMARK    3  A    between atoms: C_4  and  C_5
REMARK    4  A    between atoms: C_5  and  C_6
REMARK    5  A    between atoms: C_9  and  C_10
REMARK    6  A    between atoms: C_11  and  C_12
REMARK    7  A    between atoms: C_12  and  C_13
REMARK    8  A    between atoms: C_13  and  C_14
REMARK    9  A    between atoms: C_14  and  C_15
REMARK   10  A    between atoms: N_23  and  C_24
REMARK                            x       y       z     vdW  Elec       q    Type
REMARK                         _______ _______ _______ _____ _____    ______ ____
ROOT
ATOM      1  C   UNL     1       3.951   6.166  18.479  0.00  0.00    +0.000 C 
ATOM      2  C   UNL     1       4.378   5.886  16.997  0.00  0.00    +0.000 C 
ATOM      3  C   UNL     1       3.809   4.479  17.229  0.00  0.00    +0.000 C 
ATOM      4  O   UNL     1       3.684   3.487  16.545  0.00  0.00    +0.000 OA
ATOM      5  N   UNL     1       3.467   4.782  18.505  0.00  0.00    +0.000 N 
ENDROOT
BRANCH   5   6
ATOM      6  C   UNL     1       2.815   4.024  19.474  0.00  0.00    +0.000 A 
ATOM      7  C   UNL     1       1.413   4.026  19.537  0.00  0.00    +0.000 A 
ATOM      8  C   UNL     1       0.738   3.329  20.539  0.00  0.00    +0.000 A 
ATOM      9  C   UNL     1       1.467   2.640  21.496  0.00  0.00    +0.000 A 
ATOM     10  F   UNL     1       0.824   2.001  22.481  0.00  0.00    +0.000 F 
ATOM     11  C   UNL     1       2.855   2.607  21.444  0.00  0.00    +0.000 A 
ATOM     12  C   UNL     1       3.531   3.278  20.420  0.00  0.00    +0.000 A 
ENDBRANCH   5   6
BRANCH   1  16
ATOM     13  C   UNL     1       0.991   9.428  19.065  0.00  0.00    +0.000 A 
ATOM     14  C   UNL     1       1.289   8.540  20.101  0.00  0.00    +0.000 A 
ATOM     15  C   UNL     1       2.231   7.526  19.915  0.00  0.00    +0.000 A 
ATOM     16  C   UNL     1       2.902   7.339  18.694  0.00  0.00    +0.000 A 
ATOM     17  C   UNL     1       2.579   8.243  17.660  0.00  0.00    +0.000 A 
ATOM     18  C   UNL     1       1.642   9.267  17.839  0.00  0.00    +0.000 A 
BRANCH  13  19
ATOM     19  C   UNL     1      -0.035  10.518  19.262  0.00  0.00    +0.000 C 
BRANCH  19  20
ATOM     20  C   UNL     1      -1.176  10.432  18.248  0.00  0.00    +0.000 C 
BRANCH  20  22
ATOM     21  O   UNL     1      -1.604  12.806  18.506  0.00  0.00    +0.000 OA
ATOM     22  C   UNL     1      -1.625  11.805  17.812  0.00  0.00    +0.000 C 
BRANCH  22  23
ATOM     23  O   UNL     1      -2.064  11.820  16.531  0.00  0.00    +0.000 OA
ATOM     24  H   UNL     1      -2.835  11.246  16.366  0.00  0.00    +0.000 HD
ENDBRANCH  22  23
ENDBRANCH  20  22
ENDBRANCH  19  20
ENDBRANCH  13  19
ENDBRANCH   1  16
BRANCH   2  25
ATOM     25  C   UNL     1       5.861   5.922  16.648  0.00  0.00    +0.000 C 
BRANCH  25  26
ATOM     26  C   UNL     1       6.230   4.646  15.892  0.00  0.00    +0.000 C 
BRANCH  26  27
ATOM     27  C   UNL     1       6.965   4.943  14.586  0.00  0.00    +0.000 C 
BRANCH  27  28
ATOM     28  C   UNL     1       6.404   4.083  13.482  0.00  0.00    +0.000 A 
ATOM     29  C   UNL     1       7.253   3.517  12.522  0.00  0.00    +0.000 A 
ATOM     30  C   UNL     1       6.724   2.824  11.434  0.00  0.00    +0.000 A 
ATOM     31  C   UNL     1       5.343   2.687  11.297  0.00  0.00    +0.000 A 
ATOM     32  C   UNL     1       4.491   3.232  12.257  0.00  0.00    +0.000 A 
ATOM     33  C   UNL     1       5.018   3.926  13.345  0.00  0.00    +0.000 A 
ENDBRANCH  27  28
ENDBRANCH  26  27
ENDBRANCH  25  26
ENDBRANCH   2  25
TORSDOF 10
ENDMDL
