MODEL 1
REMARK VINA RESULT:      -8.4      0.000      0.000
REMARK  Name = 
REMARK  7 active torsions:
REMARK  status: ('A' for Active; 'I' for Inactive)
REMARK    1  A    between atoms: C_2  and  C_3
REMARK    2  A    between atoms: C_3  and  C_4
REMARK    3  A    between atoms: C_3  and  C_5
REMARK    4  A    between atoms: C_3  and  C_6
REMARK    5  A    between atoms: CA_12  and  CB_13
REMARK    6  A    between atoms: CB_13  and  CG1_14
REMARK    7  A    between atoms: CB_13  and  CG2_15
REMARK                            x       y       z     vdW  Elec       q    Type
REMARK                         _______ _______ _______ _____ _____    ______ ____
ROOT
ATOM      1  C   UNK A   2       3.744   5.214  18.902  0.00  0.00    +0.000 C 
ATOM      2  C   UNK A   2       5.191   5.850  19.310  0.00  0.00    +0.000 C 
ATOM      3  C   UNK A   2       6.000   6.089  17.961  0.00  0.00    +0.000 C 
ATOM      4  C   UNK A   2       7.345   5.242  17.798  0.00  0.00    +0.000 C 
ATOM      5  O   UNK A   2       8.194   5.138  18.686  0.00  0.00    +0.000 OA
ATOM      6  N   VAL A   1       7.618   4.728  16.488  0.00  0.00    +0.000 N 
ATOM      7  CA  VAL A   1       6.490   4.299  15.656  0.00  0.00    +0.000 C 
ATOM      8  C   VAL A   1       5.585   5.538  15.719  0.00  0.00    +0.000 C 
ATOM      9  O   VAL A   1       5.602   6.445  14.885  0.00  0.00    +0.000 OA
ATOM     10  N   UNK A   2       5.038   5.675  16.965  0.00  0.00    +0.000 N 
ATOM     11  C   UNK A   2       4.376   4.620  17.615  0.00  0.00    +0.000 C 
ATOM     12  N   UNK A   2       3.494   3.823  16.837  0.00  0.00    +0.000 N 
ATOM     13  C   UNK A   2       2.923   3.137  17.965  0.00  0.00    +0.000 A 
ATOM     14  C   UNK A   2       2.151   2.001  17.794  0.00  0.00    +0.000 A 
ATOM     15  C   UNK A   2       1.305   1.653  18.829  0.00  0.00    +0.000 A 
ATOM     16  C   UNK A   2       1.311   2.407  20.014  0.00  0.00    +0.000 A 
ATOM     17  C   UNK A   2       2.212   3.479  20.222  0.00  0.00    +0.000 A 
ATOM     18  C   UNK A   2       3.038   3.870  19.179  0.00  0.00    +0.000 A 
ATOM     19  H   VAL A   1       8.474   4.187  16.436  0.00  0.00    +0.000 HD
ATOM     20  H   UNK A   2       3.945   3.116  16.262  0.00  0.00    +0.000 HD
ENDROOT
BRANCH   1  21
ATOM     21  C   UNK A   2       2.620   6.386  18.906  0.00  0.00    +0.000 C 
ATOM     22  C   UNK A   2       2.146   6.895  20.306  0.00  0.00    +0.000 C 
ATOM     23  C   UNK A   2       1.303   5.958  18.215  0.00  0.00    +0.000 C 
BRANCH  21  25
ATOM     24  C   UNK A   2       2.440   8.749  17.769  0.00  0.00    +0.000 C 
ATOM     25  C   UNK A   2       3.134   7.683  18.217  0.00  0.00    +0.000 C 
ENDBRANCH  21  25
ENDBRANCH   1  21
BRANCH   7  26
ATOM     26  CB  VAL A   1       6.615   3.877  14.175  0.00  0.00    +0.000 C 
ATOM     27  CG1 VAL A   1       7.528   4.921  13.474  0.00  0.00    +0.000 C 
ATOM     28  CG2 VAL A   1       5.306   3.832  13.393  0.00  0.00    +0.000 C 
ENDBRANCH   7  26
TORSDOF 3
ENDMDL
MODEL 2
REMARK VINA RESULT:      -8.4      0.320      1.065
REMARK  Name = 
REMARK  7 active torsions:
REMARK  status: ('A' for Active; 'I' for Inactive)
REMARK    1  A    between atoms: C_2  and  C_3
REMARK    2  A    between atoms: C_3  and  C_4
REMARK    3  A    between atoms: C_3  and  C_5
REMARK    4  A    between atoms: C_3  and  C_6
REMARK    5  A    between atoms: CA_12  and  CB_13
REMARK    6  A    between atoms: CB_13  and  CG1_14
REMARK    7  A    between atoms: CB_13  and  CG2_15
REMARK                            x       y       z     vdW  Elec       q    Type
REMARK                         _______ _______ _______ _____ _____    ______ ____
ROOT
ATOM      1  C   UNK A   2       3.724   5.332  18.862  0.00  0.00    +0.000 C 
ATOM      2  C   UNK A   2       5.203   5.894  19.261  0.00  0.00    +0.000 C 
ATOM      3  C   UNK A   2       6.022   6.073  17.908  0.00  0.00    +0.000 C 
ATOM      4  C   UNK A   2       7.318   5.152  17.753  0.00  0.00    +0.000 C 
ATOM      5  O   UNK A   2       8.163   5.014  18.641  0.00  0.00    +0.000 OA
ATOM      6  N   VAL A   1       7.560   4.609  16.450  0.00  0.00    +0.000 N 
ATOM      7  CA  VAL A   1       6.409   4.232  15.624  0.00  0.00    +0.000 C 
ATOM      8  C   VAL A   1       5.572   5.518  15.673  0.00  0.00    +0.000 C 
ATOM      9  O   VAL A   1       5.637   6.413  14.829  0.00  0.00    +0.000 OA
ATOM     10  N   UNK A   2       5.036   5.699  16.918  0.00  0.00    +0.000 N 
ATOM     11  C   UNK A   2       4.320   4.690  17.582  0.00  0.00    +0.000 C 
ATOM     12  N   UNK A   2       3.395   3.932  16.815  0.00  0.00    +0.000 N 
ATOM     13  C   UNK A   2       2.789   3.292  17.952  0.00  0.00    +0.000 A 
ATOM     14  C   UNK A   2       1.957   2.197  17.796  0.00  0.00    +0.000 A 
ATOM     15  C   UNK A   2       1.096   1.908  18.836  0.00  0.00    +0.000 A 
ATOM     16  C   UNK A   2       1.145   2.674  20.012  0.00  0.00    +0.000 A 
ATOM     17  C   UNK A   2       2.102   3.698  20.206  0.00  0.00    +0.000 A 
ATOM     18  C   UNK A   2       2.946   4.032  19.157  0.00  0.00    +0.000 A 
ATOM     19  H   VAL A   1       8.385   4.022  16.403  0.00  0.00    +0.000 HD
ATOM     20  H   UNK A   2       3.805   3.195  16.248  0.00  0.00    +0.000 HD
ENDROOT
BRANCH   1  21
ATOM     21  C   UNK A   2       2.664   6.563  18.854  0.00  0.00    +0.000 C 
ATOM     22  C   UNK A   2       1.310   6.314  18.113  0.00  0.00    +0.000 C 
ATOM     23  C   UNK A   2       3.222   7.831  18.165  0.00  0.00    +0.000 C 
BRANCH  21  25
ATOM     24  C   UNK A   2       1.504   8.015  20.712  0.00  0.00    +0.000 C 
ATOM     25  C   UNK A   2       2.212   6.947  20.293  0.00  0.00    +0.000 C 
ENDBRANCH  21  25
ENDBRANCH   1  21
BRANCH   7  26
ATOM     26  CB  VAL A   1       6.508   3.785  14.148  0.00  0.00    +0.000 C 
ATOM     27  CG1 VAL A   1       7.442   4.795  13.424  0.00  0.00    +0.000 C 
ATOM     28  CG2 VAL A   1       5.190   3.764  13.380  0.00  0.00    +0.000 C 
ENDBRANCH   7  26
TORSDOF 3
ENDMDL
MODEL 3
REMARK VINA RESULT:      -7.6      8.283     11.051
REMARK  Name = 
REMARK  7 active torsions:
REMARK  status: ('A' for Active; 'I' for Inactive)
REMARK    1  A    between atoms: C_2  and  C_3
REMARK    2  A    between atoms: C_3  and  C_4
REMARK    3  A    between atoms: C_3  and  C_5
REMARK    4  A    between atoms: C_3  and  C_6
REMARK    5  A    between atoms: CA_12  and  CB_13
REMARK    6  A    between atoms: CB_13  and  CG1_14
REMARK    7  A    between atoms: CB_13  and  CG2_15
REMARK                            x       y       z     vdW  Elec       q    Type
REMARK                         _______ _______ _______ _____ _____    ______ ____
ROOT
ATOM      1  C   UNK A   2      -1.969  12.790  22.383  0.00  0.00    +0.000 C 
ATOM      2  C   UNK A   2      -0.658  11.825  22.266  0.00  0.00    +0.000 C 
ATOM      3  C   UNK A   2      -0.304  11.692  20.721  0.00  0.00    +0.000 C 
ATOM      4  C   UNK A   2      -0.419  10.222  20.106  0.00  0.00    +0.000 C 
ATOM      5  O   UNK A   2       0.056   9.221  20.647  0.00  0.00    +0.000 OA
ATOM      6  N   VAL A   1      -0.962  10.127  18.783  0.00  0.00    +0.000 N 
ATOM      7  CA  VAL A   1      -2.018  11.065  18.391  0.00  0.00    +0.000 C 
ATOM      8  C   VAL A   1      -1.374  12.410  18.760  0.00  0.00    +0.000 C 
ATOM      9  O   VAL A   1      -0.733  13.105  17.970  0.00  0.00    +0.000 OA
ATOM     10  N   UNK A   2      -1.297  12.553  20.118  0.00  0.00    +0.000 N 
ATOM     11  C   UNK A   2      -2.406  12.357  20.958  0.00  0.00    +0.000 C 
ATOM     12  N   UNK A   2      -3.651  12.893  20.534  0.00  0.00    +0.000 N 
ATOM     13  C   UNK A   2      -4.315  12.671  21.790  0.00  0.00    +0.000 A 
ATOM     14  C   UNK A   2      -5.691  12.765  21.898  0.00  0.00    +0.000 A 
ATOM     15  C   UNK A   2      -6.212  12.965  23.161  0.00  0.00    +0.000 A 
ATOM     16  C   UNK A   2      -5.350  12.994  24.270  0.00  0.00    +0.000 A 
ATOM     17  C   UNK A   2      -3.961  12.752  24.154  0.00  0.00    +0.000 A 
ATOM     18  C   UNK A   2      -3.414  12.593  22.889  0.00  0.00    +0.000 A 
ATOM     19  H   VAL A   1      -1.028   9.175  18.440  0.00  0.00    +0.000 HD
ATOM     20  H   UNK A   2      -4.146  12.338  19.840  0.00  0.00    +0.000 HD
ENDROOT
BRANCH   1  21
ATOM     21  C   UNK A   2      -1.498  14.295  22.772  0.00  0.00    +0.000 C 
ATOM     22  C   UNK A   2      -0.061  14.716  22.323  0.00  0.00    +0.000 C 
ATOM     23  C   UNK A   2      -1.484  14.544  24.299  0.00  0.00    +0.000 C 
BRANCH  21  25
ATOM     24  C   UNK A   2      -3.282  16.224  22.679  0.00  0.00    +0.000 C 
ATOM     25  C   UNK A   2      -2.403  15.373  22.109  0.00  0.00    +0.000 C 
ENDBRANCH  21  25
ENDBRANCH   1  21
BRANCH   7  26
ATOM     26  CB  VAL A   1      -2.584  11.187  16.959  0.00  0.00    +0.000 C 
ATOM     27  CG1 VAL A   1      -4.097  11.522  17.090  0.00  0.00    +0.000 C 
ATOM     28  CG2 VAL A   1      -2.479   9.929  16.103  0.00  0.00    +0.000 C 
ENDBRANCH   7  26
TORSDOF 3
ENDMDL
MODEL 4
REMARK VINA RESULT:      -7.5      1.664      4.218
REMARK  Name = 
REMARK  7 active torsions:
REMARK  status: ('A' for Active; 'I' for Inactive)
REMARK    1  A    between atoms: C_2  and  C_3
REMARK    2  A    between atoms: C_3  and  C_4
REMARK    3  A    between atoms: C_3  and  C_5
REMARK    4  A    between atoms: C_3  and  C_6
REMARK    5  A    between atoms: CA_12  and  CB_13
REMARK    6  A    between atoms: CB_13  and  CG1_14
REMARK    7  A    between atoms: CB_13  and  CG2_15
REMARK                            x       y       z     vdW  Elec       q    Type
REMARK                         _______ _______ _______ _____ _____    ______ ____
ROOT
ATOM      1  C   UNK A   2       3.486   3.742  18.292  0.00  0.00    +0.000 C 
ATOM      2  C   UNK A   2       3.878   3.333  16.762  0.00  0.00    +0.000 C 
ATOM      3  C   UNK A   2       5.401   3.739  16.539  0.00  0.00    +0.000 C 
ATOM      4  C   UNK A   2       5.665   4.860  15.431  0.00  0.00    +0.000 C 
ATOM      5  O   UNK A   2       5.155   4.839  14.309  0.00  0.00    +0.000 OA
ATOM      6  N   VAL A   1       6.676   5.828  15.735  0.00  0.00    +0.000 N 
ATOM      7  CA  VAL A   1       6.836   6.259  17.127  0.00  0.00    +0.000 C 
ATOM      8  C   VAL A   1       6.960   4.907  17.846  0.00  0.00    +0.000 C 
ATOM      9  O   VAL A   1       8.033   4.358  18.097  0.00  0.00    +0.000 OA
ATOM     10  N   UNK A   2       5.762   4.246  17.843  0.00  0.00    +0.000 N 
ATOM     11  C   UNK A   2       4.568   4.854  18.264  0.00  0.00    +0.000 C 
ATOM     12  N   UNK A   2       4.620   5.657  19.435  0.00  0.00    +0.000 N 
ATOM     13  C   UNK A   2       3.193   5.785  19.560  0.00  0.00    +0.000 A 
ATOM     14  C   UNK A   2       2.631   6.720  20.412  0.00  0.00    +0.000 A 
ATOM     15  C   UNK A   2       1.323   6.510  20.801  0.00  0.00    +0.000 A 
ATOM     16  C   UNK A   2       0.607   5.423  20.274  0.00  0.00    +0.000 A 
ATOM     17  C   UNK A   2       1.156   4.563  19.292  0.00  0.00    +0.000 A 
ATOM     18  C   UNK A   2       2.481   4.731  18.922  0.00  0.00    +0.000 A 
ATOM     19  H   VAL A   1       6.800   6.526  15.010  0.00  0.00    +0.000 HD
ATOM     20  H   UNK A   2       4.988   6.595  19.300  0.00  0.00    +0.000 HD
ENDROOT
BRANCH   1  21
ATOM     21  C   UNK A   2       3.559   2.425  19.238  0.00  0.00    +0.000 C 
ATOM     22  C   UNK A   2       4.805   2.306  20.177  0.00  0.00    +0.000 C 
ATOM     23  C   UNK A   2       3.592   1.106  18.431  0.00  0.00    +0.000 C 
BRANCH  21  25
ATOM     24  C   UNK A   2       2.366   2.406  21.581  0.00  0.00    +0.000 C 
ATOM     25  C   UNK A   2       2.364   2.360  20.233  0.00  0.00    +0.000 C 
ENDBRANCH  21  25
ENDBRANCH   1  21
BRANCH   7  26
ATOM     26  CB  VAL A   1       7.978   7.170  17.629  0.00  0.00    +0.000 C 
ATOM     27  CG1 VAL A   1       8.217   6.825  19.127  0.00  0.00    +0.000 C 
ATOM     28  CG2 VAL A   1       7.704   8.668  17.554  0.00  0.00    +0.000 C 
ENDBRANCH   7  26
TORSDOF 3
ENDMDL
MODEL 5
REMARK VINA RESULT:      -7.5      8.293     11.065
REMARK  Name = 
REMARK  7 active torsions:
REMARK  status: ('A' for Active; 'I' for Inactive)
REMARK    1  A    between atoms: C_2  and  C_3
REMARK    2  A    between atoms: C_3  and  C_4
REMARK    3  A    between atoms: C_3  and  C_5
REMARK    4  A    between atoms: C_3  and  C_6
REMARK    5  A    between atoms: CA_12  and  CB_13
REMARK    6  A    between atoms: CB_13  and  CG1_14
REMARK    7  A    between atoms: CB_13  and  CG2_15
REMARK                            x       y       z     vdW  Elec       q    Type
REMARK                         _______ _______ _______ _____ _____    ______ ____
ROOT
ATOM      1  C   UNK A   2      -2.038  12.779  22.384  0.00  0.00    +0.000 C 
ATOM      2  C   UNK A   2      -0.719  11.823  22.289  0.00  0.00    +0.000 C 
ATOM      3  C   UNK A   2      -0.337  11.694  20.749  0.00  0.00    +0.000 C 
ATOM      4  C   UNK A   2      -0.432  10.224  20.131  0.00  0.00    +0.000 C 
ATOM      5  O   UNK A   2       0.039   9.225  20.678  0.00  0.00    +0.000 OA
ATOM      6  N   VAL A   1      -0.951  10.128  18.799  0.00  0.00    +0.000 N 
ATOM      7  CA  VAL A   1      -2.006  11.060  18.390  0.00  0.00    +0.000 C 
ATOM      8  C   VAL A   1      -1.377  12.408  18.772  0.00  0.00    +0.000 C 
ATOM      9  O   VAL A   1      -0.727  13.108  17.994  0.00  0.00    +0.000 OA
ATOM     10  N   UNK A   2      -1.325  12.550  20.131  0.00  0.00    +0.000 N 
ATOM     11  C   UNK A   2      -2.447  12.346  20.951  0.00  0.00    +0.000 C 
ATOM     12  N   UNK A   2      -3.688  12.875  20.506  0.00  0.00    +0.000 N 
ATOM     13  C   UNK A   2      -4.372  12.647  21.750  0.00  0.00    +0.000 A 
ATOM     14  C   UNK A   2      -5.751  12.732  21.834  0.00  0.00    +0.000 A 
ATOM     15  C   UNK A   2      -6.294  12.927  23.088  0.00  0.00    +0.000 A 
ATOM     16  C   UNK A   2      -5.452  12.960  24.212  0.00  0.00    +0.000 A 
ATOM     17  C   UNK A   2      -4.059  12.727  24.120  0.00  0.00    +0.000 A 
ATOM     18  C   UNK A   2      -3.490  12.573  22.865  0.00  0.00    +0.000 A 
ATOM     19  H   VAL A   1      -1.005   9.176  18.453  0.00  0.00    +0.000 HD
ATOM     20  H   UNK A   2      -4.167  12.318  19.802  0.00  0.00    +0.000 HD
ENDROOT
BRANCH   1  21
ATOM     21  C   UNK A   2      -1.583  14.286  22.784  0.00  0.00    +0.000 C 
ATOM     22  C   UNK A   2      -2.388  15.456  22.129  0.00  0.00    +0.000 C 
ATOM     23  C   UNK A   2      -0.118  14.596  22.392  0.00  0.00    +0.000 C 
BRANCH  21  25
ATOM     24  C   UNK A   2      -1.222  15.537  25.067  0.00  0.00    +0.000 C 
ATOM     25  C   UNK A   2      -1.750  14.556  24.307  0.00  0.00    +0.000 C 
ENDBRANCH  21  25
ENDBRANCH   1  21
BRANCH   7  26
ATOM     26  CB  VAL A   1      -2.548  11.180  16.948  0.00  0.00    +0.000 C 
ATOM     27  CG1 VAL A   1      -4.057  11.540  17.052  0.00  0.00    +0.000 C 
ATOM     28  CG2 VAL A   1      -2.448   9.915  16.102  0.00  0.00    +0.000 C 
ENDBRANCH   7  26
TORSDOF 3
ENDMDL
MODEL 6
REMARK VINA RESULT:      -7.4      8.168     10.934
REMARK  Name = 
REMARK  7 active torsions:
REMARK  status: ('A' for Active; 'I' for Inactive)
REMARK    1  A    between atoms: C_2  and  C_3
REMARK    2  A    between atoms: C_3  and  C_4
REMARK    3  A    between atoms: C_3  and  C_5
REMARK    4  A    between atoms: C_3  and  C_6
REMARK    5  A    between atoms: CA_12  and  CB_13
REMARK    6  A    between atoms: CB_13  and  CG1_14
REMARK    7  A    between atoms: CB_13  and  CG2_15
REMARK                            x       y       z     vdW  Elec       q    Type
REMARK                         _______ _______ _______ _____ _____    ______ ____
ROOT
ATOM      1  C   UNK A   2      -1.956  12.769  22.382  0.00  0.00    +0.000 C 
ATOM      2  C   UNK A   2      -0.649  11.799  22.255  0.00  0.00    +0.000 C 
ATOM      3  C   UNK A   2      -0.302  11.672  20.708  0.00  0.00    +0.000 C 
ATOM      4  C   UNK A   2      -0.425  10.205  20.086  0.00  0.00    +0.000 C 
ATOM      5  O   UNK A   2       0.047   9.199  20.620  0.00  0.00    +0.000 OA
ATOM      6  N   VAL A   1      -0.974  10.118  18.765  0.00  0.00    +0.000 N 
ATOM      7  CA  VAL A   1      -2.027  11.063  18.382  0.00  0.00    +0.000 C 
ATOM      8  C   VAL A   1      -1.376  12.403  18.755  0.00  0.00    +0.000 C 
ATOM      9  O   VAL A   1      -0.735  13.099  17.966  0.00  0.00    +0.000 OA
ATOM     10  N   UNK A   2      -1.294  12.540  20.113  0.00  0.00    +0.000 N 
ATOM     11  C   UNK A   2      -2.400  12.344  20.956  0.00  0.00    +0.000 C 
ATOM     12  N   UNK A   2      -3.644  12.888  20.539  0.00  0.00    +0.000 N 
ATOM     13  C   UNK A   2      -4.304  12.663  21.798  0.00  0.00    +0.000 A 
ATOM     14  C   UNK A   2      -5.680  12.762  21.911  0.00  0.00    +0.000 A 
ATOM     15  C   UNK A   2      -6.194  12.959  23.177  0.00  0.00    +0.000 A 
ATOM     16  C   UNK A   2      -5.328  12.979  24.283  0.00  0.00    +0.000 A 
ATOM     17  C   UNK A   2      -3.940  12.731  24.160  0.00  0.00    +0.000 A 
ATOM     18  C   UNK A   2      -3.400  12.576  22.893  0.00  0.00    +0.000 A 
ATOM     19  H   VAL A   1      -1.045   9.168  18.418  0.00  0.00    +0.000 HD
ATOM     20  H   UNK A   2      -4.144  12.339  19.845  0.00  0.00    +0.000 HD
ENDROOT
BRANCH   1  21
ATOM     21  C   UNK A   2      -1.477  14.270  22.776  0.00  0.00    +0.000 C 
ATOM     22  C   UNK A   2      -1.477  14.626  24.299  0.00  0.00    +0.000 C 
ATOM     23  C   UNK A   2      -2.368  15.369  22.150  0.00  0.00    +0.000 C 
BRANCH  21  25
ATOM     24  C   UNK A   2       0.498  15.486  21.538  0.00  0.00    +0.000 C 
ATOM     25  C   UNK A   2      -0.002  14.536  22.354  0.00  0.00    +0.000 C 
ENDBRANCH  21  25
ENDBRANCH   1  21
BRANCH   7  26
ATOM     26  CB  VAL A   1      -2.599  11.194  16.953  0.00  0.00    +0.000 C 
ATOM     27  CG1 VAL A   1      -4.109  11.534  17.090  0.00  0.00    +0.000 C 
ATOM     28  CG2 VAL A   1      -2.500   9.940  16.090  0.00  0.00    +0.000 C 
ENDBRANCH   7  26
TORSDOF 3
ENDMDL
MODEL 7
REMARK VINA RESULT:      -7.2      9.222     11.779
REMARK  Name = 
REMARK  7 active torsions:
REMARK  status: ('A' for Active; 'I' for Inactive)
REMARK    1  A    between atoms: C_2  and  C_3
REMARK    2  A    between atoms: C_3  and  C_4
REMARK    3  A    between atoms: C_3  and  C_5
REMARK    4  A    between atoms: C_3  and  C_6
REMARK    5  A    between atoms: CA_12  and  CB_13
REMARK    6  A    between atoms: CB_13  and  CG1_14
REMARK    7  A    between atoms: CB_13  and  CG2_15
REMARK                            x       y       z     vdW  Elec       q    Type
REMARK                         _______ _______ _______ _____ _____    ______ ____
ROOT
ATOM      1  C   UNK A   2      -3.643  13.464  22.699  0.00  0.00    +0.000 C 
ATOM      2  C   UNK A   2      -2.329  12.991  23.544  0.00  0.00    +0.000 C 
ATOM      3  C   UNK A   2      -1.159  12.735  22.496  0.00  0.00    +0.000 C 
ATOM      4  C   UNK A   2      -0.623  11.233  22.407  0.00  0.00    +0.000 C 
ATOM      5  O   UNK A   2      -0.342  10.552  23.397  0.00  0.00    +0.000 OA
ATOM      6  N   VAL A   1      -0.309  10.747  21.097  0.00  0.00    +0.000 N 
ATOM      7  CA  VAL A   1      -1.129  11.198  19.969  0.00  0.00    +0.000 C 
ATOM      8  C   VAL A   1      -1.077  12.722  20.152  0.00  0.00    +0.000 C 
ATOM      9  O   VAL A   1      -0.256  13.453  19.596  0.00  0.00    +0.000 OA
ATOM     10  N   UNK A   2      -1.796  13.101  21.252  0.00  0.00    +0.000 N 
ATOM     11  C   UNK A   2      -3.120  12.683  21.464  0.00  0.00    +0.000 C 
ATOM     12  N   UNK A   2      -3.996  12.692  20.346  0.00  0.00    +0.000 N 
ATOM     13  C   UNK A   2      -5.187  12.468  21.121  0.00  0.00    +0.000 A 
ATOM     14  C   UNK A   2      -6.378  12.109  20.515  0.00  0.00    +0.000 A 
ATOM     15  C   UNK A   2      -7.539  12.325  21.230  0.00  0.00    +0.000 A 
ATOM     16  C   UNK A   2      -7.464  12.823  22.542  0.00  0.00    +0.000 A 
ATOM     17  C   UNK A   2      -6.228  13.047  23.195  0.00  0.00    +0.000 A 
ATOM     18  C   UNK A   2      -5.053  12.877  22.477  0.00  0.00    +0.000 A 
ATOM     19  H   VAL A   1       0.015   9.786  21.088  0.00  0.00    +0.000 HD
ATOM     20  H   UNK A   2      -3.902  11.898  19.717  0.00  0.00    +0.000 HD
ENDROOT
BRANCH   1  21
ATOM     21  C   UNK A   2      -3.773  15.081  22.765  0.00  0.00    +0.000 C 
ATOM     22  C   UNK A   2      -4.875  15.731  21.866  0.00  0.00    +0.000 C 
ATOM     23  C   UNK A   2      -2.478  15.807  22.327  0.00  0.00    +0.000 C 
BRANCH  21  25
ATOM     24  C   UNK A   2      -4.906  16.626  24.565  0.00  0.00    +0.000 C 
ATOM     25  C   UNK A   2      -4.150  15.573  24.193  0.00  0.00    +0.000 C 
ENDBRANCH  21  25
ENDBRANCH   1  21
BRANCH   7  26
ATOM     26  CB  VAL A   1      -0.816  10.887  18.488  0.00  0.00    +0.000 C 
ATOM     27  CG1 VAL A   1      -2.077  10.208  17.884  0.00  0.00    +0.000 C 
ATOM     28  CG2 VAL A   1       0.357   9.941  18.250  0.00  0.00    +0.000 C 
ENDBRANCH   7  26
TORSDOF 3
ENDMDL
MODEL 8
REMARK VINA RESULT:      -7.2      8.359     11.701
REMARK  Name = 
REMARK  7 active torsions:
REMARK  status: ('A' for Active; 'I' for Inactive)
REMARK    1  A    between atoms: C_2  and  C_3
REMARK    2  A    between atoms: C_3  and  C_4
REMARK    3  A    between atoms: C_3  and  C_5
REMARK    4  A    between atoms: C_3  and  C_6
REMARK    5  A    between atoms: CA_12  and  CB_13
REMARK    6  A    between atoms: CB_13  and  CG1_14
REMARK    7  A    between atoms: CB_13  and  CG2_15
REMARK                            x       y       z     vdW  Elec       q    Type
REMARK                         _______ _______ _______ _____ _____    ______ ____
ROOT
ATOM      1  C   UNK A   2      -1.028  11.799  20.053  0.00  0.00    +0.000 C 
ATOM      2  C   UNK A   2      -2.234  12.027  18.978  0.00  0.00    +0.000 C 
ATOM      3  C   UNK A   2      -3.324  12.951  19.679  0.00  0.00    +0.000 C 
ATOM      4  C   UNK A   2      -4.759  12.285  19.903  0.00  0.00    +0.000 C 
ATOM      5  O   UNK A   2      -5.362  11.660  19.027  0.00  0.00    +0.000 OA
ATOM      6  N   VAL A   1      -5.417  12.591  21.138  0.00  0.00    +0.000 N 
ATOM      7  CA  VAL A   1      -4.598  12.759  22.343  0.00  0.00    +0.000 C 
ATOM      8  C   VAL A   1      -3.562  13.784  21.859  0.00  0.00    +0.000 C 
ATOM      9  O   VAL A   1      -3.679  15.002  22.005  0.00  0.00    +0.000 OA
ATOM     10  N   UNK A   2      -2.704  13.216  20.958  0.00  0.00    +0.000 N 
ATOM     11  C   UNK A   2      -2.034  12.009  21.216  0.00  0.00    +0.000 C 
ATOM     12  N   UNK A   2      -1.482  11.832  22.513  0.00  0.00    +0.000 N 
ATOM     13  C   UNK A   2      -0.731  10.655  22.168  0.00  0.00    +0.000 A 
ATOM     14  C   UNK A   2      -0.173   9.850  23.146  0.00  0.00    +0.000 A 
ATOM     15  C   UNK A   2       0.858   9.017  22.762  0.00  0.00    +0.000 A 
ATOM     16  C   UNK A   2       1.245   8.967  21.413  0.00  0.00    +0.000 A 
ATOM     17  C   UNK A   2       0.565   9.692  20.405  0.00  0.00    +0.000 A 
ATOM     18  C   UNK A   2      -0.444  10.567  20.777  0.00  0.00    +0.000 A 
ATOM     19  H   VAL A   1      -6.317  12.137  21.241  0.00  0.00    +0.000 HD
ATOM     20  H   UNK A   2      -2.147  11.555  23.231  0.00  0.00    +0.000 HD
ENDROOT
BRANCH   1  21
ATOM     21  C   UNK A   2       0.195  12.812  19.714  0.00  0.00    +0.000 C 
ATOM     22  C   UNK A   2       0.919  13.468  20.935  0.00  0.00    +0.000 C 
ATOM     23  C   UNK A   2      -0.248  14.026  18.864  0.00  0.00    +0.000 C 
BRANCH  21  25
ATOM     24  C   UNK A   2       2.370  12.613  18.251  0.00  0.00    +0.000 C 
ATOM     25  C   UNK A   2       1.354  12.089  18.967  0.00  0.00    +0.000 C 
ENDBRANCH  21  25
ENDBRANCH   1  21
BRANCH   7  26
ATOM     26  CB  VAL A   1      -5.145  13.243  23.704  0.00  0.00    +0.000 C 
ATOM     27  CG1 VAL A   1      -4.397  12.446  24.810  0.00  0.00    +0.000 C 
ATOM     28  CG2 VAL A   1      -6.638  13.022  23.927  0.00  0.00    +0.000 C 
ENDBRANCH   7  26
TORSDOF 3
ENDMDL
MODEL 9
REMARK VINA RESULT:      -7.2      9.164     11.714
REMARK  Name = 
REMARK  7 active torsions:
REMARK  status: ('A' for Active; 'I' for Inactive)
REMARK    1  A    between atoms: C_2  and  C_3
REMARK    2  A    between atoms: C_3  and  C_4
REMARK    3  A    between atoms: C_3  and  C_5
REMARK    4  A    between atoms: C_3  and  C_6
REMARK    5  A    between atoms: CA_12  and  CB_13
REMARK    6  A    between atoms: CB_13  and  CG1_14
REMARK    7  A    between atoms: CB_13  and  CG2_15
REMARK                            x       y       z     vdW  Elec       q    Type
REMARK                         _______ _______ _______ _____ _____    ______ ____
ROOT
ATOM      1  C   UNK A   2      -3.688  13.476  22.642  0.00  0.00    +0.000 C 
ATOM      2  C   UNK A   2      -2.363  13.041  23.491  0.00  0.00    +0.000 C 
ATOM      3  C   UNK A   2      -1.193  12.786  22.444  0.00  0.00    +0.000 C 
ATOM      4  C   UNK A   2      -0.632  11.291  22.381  0.00  0.00    +0.000 C 
ATOM      5  O   UNK A   2      -0.337  10.633  23.382  0.00  0.00    +0.000 OA
ATOM      6  N   VAL A   1      -0.314  10.785  21.078  0.00  0.00    +0.000 N 
ATOM      7  CA  VAL A   1      -1.145  11.201  19.945  0.00  0.00    +0.000 C 
ATOM      8  C   VAL A   1      -1.118  12.729  20.100  0.00  0.00    +0.000 C 
ATOM      9  O   VAL A   1      -0.312  13.464  19.527  0.00  0.00    +0.000 OA
ATOM     10  N   UNK A   2      -1.840  13.117  21.195  0.00  0.00    +0.000 N 
ATOM     11  C   UNK A   2      -3.156  12.681  21.420  0.00  0.00    +0.000 C 
ATOM     12  N   UNK A   2      -4.036  12.655  20.305  0.00  0.00    +0.000 N 
ATOM     13  C   UNK A   2      -5.220  12.425  21.088  0.00  0.00    +0.000 A 
ATOM     14  C   UNK A   2      -6.407  12.035  20.493  0.00  0.00    +0.000 A 
ATOM     15  C   UNK A   2      -7.569  12.245  21.208  0.00  0.00    +0.000 A 
ATOM     16  C   UNK A   2      -7.498  12.768  22.510  0.00  0.00    +0.000 A 
ATOM     17  C   UNK A   2      -6.264  13.025  23.154  0.00  0.00    +0.000 A 
ATOM     18  C   UNK A   2      -5.089  12.862  22.436  0.00  0.00    +0.000 A 
ATOM     19  H   VAL A   1       0.026   9.830  21.087  0.00  0.00    +0.000 HD
ATOM     20  H   UNK A   2      -3.931  11.851  19.691  0.00  0.00    +0.000 HD
ENDROOT
BRANCH   1  21
ATOM     21  C   UNK A   2      -3.845  15.092  22.678  0.00  0.00    +0.000 C 
ATOM     22  C   UNK A   2      -2.535  15.917  22.899  0.00  0.00    +0.000 C 
ATOM     23  C   UNK A   2      -4.773  15.580  23.816  0.00  0.00    +0.000 C 
BRANCH  21  25
ATOM     24  C   UNK A   2      -5.601  16.164  21.042  0.00  0.00    +0.000 C 
ATOM     25  C   UNK A   2      -4.388  15.650  21.331  0.00  0.00    +0.000 C 
ENDBRANCH  21  25
ENDBRANCH   1  21
BRANCH   7  26
ATOM     26  CB  VAL A   1      -0.832  10.868  18.469  0.00  0.00    +0.000 C 
ATOM     27  CG1 VAL A   1      -2.093  10.181  17.875  0.00  0.00    +0.000 C 
ATOM     28  CG2 VAL A   1       0.341   9.919  18.246  0.00  0.00    +0.000 C 
ENDBRANCH   7  26
TORSDOF 3
ENDMDL
