MODEL 1
REMARK VINA RESULT:      -5.2      0.000      0.000
REMARK  Name = 
REMARK  1 active torsions:
REMARK  status: ('A' for Active; 'I' for Inactive)
REMARK    1  A    between atoms: N_1  and  C_2
REMARK                            x       y       z     vdW  Elec       q    Type
REMARK                         _______ _______ _______ _____ _____    ______ ____
ROOT
ATOM      1  C   UNL     1       4.102   2.837  18.516  0.00  0.00    +0.000 C 
ATOM      2  C   UNL     1       3.350   3.476  17.302  0.00  0.00    +0.000 C 
ATOM      3  C   UNL     1       1.978   3.789  17.831  0.00  0.00    +0.000 C 
ATOM      4  O   UNL     1       1.071   4.295  17.188  0.00  0.00    +0.000 OA
ATOM      5  C   UNL     1       1.908   3.436  19.221  0.00  0.00    +0.000 A 
ATOM      6  C   UNL     1       0.928   3.518  20.194  0.00  0.00    +0.000 A 
ATOM      7  S   UNL     1       1.626   2.883  21.600  0.00  0.00    +0.000 S 
ATOM      8  C   UNL     1       3.146   2.517  20.949  0.00  0.00    +0.000 A 
ATOM      9  C   UNL     1       3.097   2.904  19.620  0.00  0.00    +0.000 A 
ENDROOT
BRANCH   1  10
ATOM     10  N   UNL     1       5.302   3.594  18.859  0.00  0.00    +0.000 NA
ATOM     11  H   UNL     1       5.716   3.977  17.980  0.00  0.00    +0.000 HD
ATOM     12  H   UNL     1       6.013   2.951  19.278  0.00  0.00    +0.000 HD
ENDBRANCH   1  10
TORSDOF 1
ENDMDL
MODEL 2
REMARK VINA RESULT:      -5.2      4.043      4.878
REMARK  Name = 
REMARK  1 active torsions:
REMARK  status: ('A' for Active; 'I' for Inactive)
REMARK    1  A    between atoms: N_1  and  C_2
REMARK                            x       y       z     vdW  Elec       q    Type
REMARK                         _______ _______ _______ _____ _____    ______ ____
ROOT
ATOM      1  C   UNL     1       6.557   6.046  16.678  0.00  0.00    +0.000 C 
ATOM      2  C   UNL     1       7.478   6.355  17.905  0.00  0.00    +0.000 C 
ATOM      3  C   UNL     1       6.921   5.511  19.018  0.00  0.00    +0.000 C 
ATOM      4  O   UNL     1       7.355   5.469  20.158  0.00  0.00    +0.000 OA
ATOM      5  C   UNL     1       5.821   4.732  18.523  0.00  0.00    +0.000 A 
ATOM      6  C   UNL     1       4.969   3.794  19.079  0.00  0.00    +0.000 A 
ATOM      7  S   UNL     1       3.919   3.335  17.833  0.00  0.00    +0.000 S 
ATOM      8  C   UNL     1       4.561   4.329  16.622  0.00  0.00    +0.000 A 
ATOM      9  C   UNL     1       5.608   5.020  17.208  0.00  0.00    +0.000 A 
ENDROOT
BRANCH   1  10
ATOM     10  N   UNL     1       7.324   5.516  15.555  0.00  0.00    +0.000 NA
ATOM     11  H   UNL     1       7.260   6.191  14.762  0.00  0.00    +0.000 HD
ATOM     12  H   UNL     1       6.893   4.619  15.231  0.00  0.00    +0.000 HD
ENDBRANCH   1  10
TORSDOF 1
ENDMDL
MODEL 3
REMARK VINA RESULT:      -5.0      2.522      3.167
REMARK  Name = 
REMARK  1 active torsions:
REMARK  status: ('A' for Active; 'I' for Inactive)
REMARK    1  A    between atoms: N_1  and  C_2
REMARK                            x       y       z     vdW  Elec       q    Type
REMARK                         _______ _______ _______ _____ _____    ______ ____
ROOT
ATOM      1  C   UNL     1       1.161   3.292  20.685  0.00  0.00    +0.000 C 
ATOM      2  C   UNL     1       1.333   2.272  19.511  0.00  0.00    +0.000 C 
ATOM      3  C   UNL     1       1.880   3.091  18.376  0.00  0.00    +0.000 C 
ATOM      4  O   UNL     1       2.149   2.666  17.263  0.00  0.00    +0.000 OA
ATOM      5  C   UNL     1       2.075   4.445  18.813  0.00  0.00    +0.000 A 
ATOM      6  C   UNL     1       2.558   5.596  18.216  0.00  0.00    +0.000 A 
ATOM      7  S   UNL     1       2.464   6.800  19.404  0.00  0.00    +0.000 S 
ATOM      8  C   UNL     1       1.815   5.843  20.641  0.00  0.00    +0.000 A 
ATOM      9  C   UNL     1       1.679   4.571  20.110  0.00  0.00    +0.000 A 
ENDROOT
BRANCH   1  10
ATOM     10  N   UNL     1       1.937   2.895  21.855  0.00  0.00    +0.000 NA
ATOM     11  H   UNL     1       2.470   2.028  21.621  0.00  0.00    +0.000 HD
ATOM     12  H   UNL     1       1.288   2.655  22.640  0.00  0.00    +0.000 HD
ENDBRANCH   1  10
TORSDOF 1
ENDMDL
MODEL 4
REMARK VINA RESULT:      -5.0      2.105      2.292
REMARK  Name = 
REMARK  1 active torsions:
REMARK  status: ('A' for Active; 'I' for Inactive)
REMARK    1  A    between atoms: N_1  and  C_2
REMARK                            x       y       z     vdW  Elec       q    Type
REMARK                         _______ _______ _______ _____ _____    ______ ____
ROOT
ATOM      1  C   UNL     1       2.846   5.909  19.657  0.00  0.00    +0.000 C 
ATOM      2  C   UNL     1       2.374   5.822  18.167  0.00  0.00    +0.000 C 
ATOM      3  C   UNL     1       1.664   4.501  18.073  0.00  0.00    +0.000 C 
ATOM      4  O   UNL     1       1.150   4.046  17.063  0.00  0.00    +0.000 OA
ATOM      5  C   UNL     1       1.650   3.871  19.363  0.00  0.00    +0.000 A 
ATOM      6  C   UNL     1       1.133   2.687  19.858  0.00  0.00    +0.000 A 
ATOM      7  S   UNL     1       1.543   2.661  21.501  0.00  0.00    +0.000 S 
ATOM      8  C   UNL     1       2.364   4.142  21.549  0.00  0.00    +0.000 A 
ATOM      9  C   UNL     1       2.307   4.654  20.264  0.00  0.00    +0.000 A 
ENDROOT
BRANCH   1  10
ATOM     10  N   UNL     1       2.296   7.086  20.323  0.00  0.00    +0.000 NA
ATOM     11  H   UNL     1       3.087   7.708  20.604  0.00  0.00    +0.000 HD
ATOM     12  H   UNL     1       1.808   6.794  21.202  0.00  0.00    +0.000 HD
ENDBRANCH   1  10
TORSDOF 1
ENDMDL
MODEL 5
REMARK VINA RESULT:      -4.9      2.515      3.230
REMARK  Name = 
REMARK  1 active torsions:
REMARK  status: ('A' for Active; 'I' for Inactive)
REMARK    1  A    between atoms: N_1  and  C_2
REMARK                            x       y       z     vdW  Elec       q    Type
REMARK                         _______ _______ _______ _____ _____    ______ ____
ROOT
ATOM      1  C   UNL     1       4.069   2.881  19.832  0.00  0.00    +0.000 C 
ATOM      2  C   UNL     1       2.875   2.346  18.972  0.00  0.00    +0.000 C 
ATOM      3  C   UNL     1       2.850   3.241  17.764  0.00  0.00    +0.000 C 
ATOM      4  O   UNL     1       2.053   3.160  16.843  0.00  0.00    +0.000 OA
ATOM      5  C   UNL     1       3.932   4.181  17.841  0.00  0.00    +0.000 A 
ATOM      6  C   UNL     1       4.393   5.198  17.024  0.00  0.00    +0.000 A 
ATOM      7  S   UNL     1       5.731   5.857  17.826  0.00  0.00    +0.000 S 
ATOM      8  C   UNL     1       5.697   4.847  19.184  0.00  0.00    +0.000 A 
ATOM      9  C   UNL     1       4.628   3.987  18.997  0.00  0.00    +0.000 A 
ENDROOT
BRANCH   1  10
ATOM     10  N   UNL     1       5.070   1.844  20.060  0.00  0.00    +0.000 NA
ATOM     11  H   UNL     1       5.247   1.350  19.157  0.00  0.00    +0.000 HD
ATOM     12  H   UNL     1       4.692   1.135  20.730  0.00  0.00    +0.000 HD
ENDBRANCH   1  10
TORSDOF 1
ENDMDL
MODEL 6
REMARK VINA RESULT:      -4.9      2.327      2.852
REMARK  Name = 
REMARK  1 active torsions:
REMARK  status: ('A' for Active; 'I' for Inactive)
REMARK    1  A    between atoms: N_1  and  C_2
REMARK                            x       y       z     vdW  Elec       q    Type
REMARK                         _______ _______ _______ _____ _____    ______ ____
ROOT
ATOM      1  C   UNL     1       3.371   2.241  19.005  0.00  0.00    +0.000 C 
ATOM      2  C   UNL     1       1.945   2.357  18.370  0.00  0.00    +0.000 C 
ATOM      3  C   UNL     1       1.907   3.738  17.777  0.00  0.00    +0.000 C 
ATOM      4  O   UNL     1       0.955   4.228  17.190  0.00  0.00    +0.000 OA
ATOM      5  C   UNL     1       3.177   4.378  17.973  0.00  0.00    +0.000 A 
ATOM      6  C   UNL     1       3.704   5.610  17.629  0.00  0.00    +0.000 A 
ATOM      7  S   UNL     1       5.287   5.613  18.231  0.00  0.00    +0.000 S 
ATOM      8  C   UNL     1       5.269   4.064  18.914  0.00  0.00    +0.000 A 
ATOM      9  C   UNL     1       4.010   3.546  18.658  0.00  0.00    +0.000 A 
ENDROOT
BRANCH   1  10
ATOM     10  N   UNL     1       4.120   1.126  18.433  0.00  0.00    +0.000 NA
ATOM     11  H   UNL     1       3.441   0.418  18.076  0.00  0.00    +0.000 HD
ATOM     12  H   UNL     1       4.683   0.662  19.184  0.00  0.00    +0.000 HD
ENDBRANCH   1  10
TORSDOF 1
ENDMDL
MODEL 7
REMARK VINA RESULT:      -4.8      2.177      2.753
REMARK  Name = 
REMARK  1 active torsions:
REMARK  status: ('A' for Active; 'I' for Inactive)
REMARK    1  A    between atoms: N_1  and  C_2
REMARK                            x       y       z     vdW  Elec       q    Type
REMARK                         _______ _______ _______ _____ _____    ______ ____
ROOT
ATOM      1  C   UNL     1       2.041   4.683  18.240  0.00  0.00    +0.000 C 
ATOM      2  C   UNL     1       3.569   4.643  17.906  0.00  0.00    +0.000 C 
ATOM      3  C   UNL     1       4.186   3.889  19.051  0.00  0.00    +0.000 C 
ATOM      4  O   UNL     1       5.376   3.646  19.176  0.00  0.00    +0.000 OA
ATOM      5  C   UNL     1       3.156   3.466  19.957  0.00  0.00    +0.000 A 
ATOM      6  C   UNL     1       3.139   2.742  21.135  0.00  0.00    +0.000 A 
ATOM      7  S   UNL     1       1.514   2.671  21.605  0.00  0.00    +0.000 S 
ATOM      8  C   UNL     1       0.870   3.556  20.312  0.00  0.00    +0.000 A 
ATOM      9  C   UNL     1       1.945   3.901  19.510  0.00  0.00    +0.000 A 
ENDROOT
BRANCH   1  10
ATOM     10  N   UNL     1       1.247   4.060  17.185  0.00  0.00    +0.000 NA
ATOM     11  H   UNL     1       1.775   4.133  16.286  0.00  0.00    +0.000 HD
ATOM     12  H   UNL     1       0.354   4.590  17.061  0.00  0.00    +0.000 HD
ENDBRANCH   1  10
TORSDOF 1
ENDMDL
MODEL 8
REMARK VINA RESULT:      -4.8      3.228      4.014
REMARK  Name = 
REMARK  1 active torsions:
REMARK  status: ('A' for Active; 'I' for Inactive)
REMARK    1  A    between atoms: N_1  and  C_2
REMARK                            x       y       z     vdW  Elec       q    Type
REMARK                         _______ _______ _______ _____ _____    ______ ____
ROOT
ATOM      1  C   UNL     1       2.796   3.004  17.577  0.00  0.00    +0.000 C 
ATOM      2  C   UNL     1       3.073   1.984  18.732  0.00  0.00    +0.000 C 
ATOM      3  C   UNL     1       4.280   2.534  19.439  0.00  0.00    +0.000 C 
ATOM      4  O   UNL     1       4.826   2.023  20.404  0.00  0.00    +0.000 OA
ATOM      5  C   UNL     1       4.670   3.774  18.829  0.00  0.00    +0.000 A 
ATOM      6  C   UNL     1       5.667   4.701  19.070  0.00  0.00    +0.000 A 
ATOM      7  S   UNL     1       5.465   5.905  17.896  0.00  0.00    +0.000 S 
ATOM      8  C   UNL     1       4.126   5.228  17.111  0.00  0.00    +0.000 A 
ATOM      9  C   UNL     1       3.841   4.052  17.784  0.00  0.00    +0.000 A 
ENDROOT
BRANCH   1  10
ATOM     10  N   UNL     1       1.457   3.576  17.680  0.00  0.00    +0.000 NA
ATOM     11  H   UNL     1       1.250   3.757  18.688  0.00  0.00    +0.000 HD
ATOM     12  H   UNL     1       0.752   2.881  17.341  0.00  0.00    +0.000 HD
ENDBRANCH   1  10
TORSDOF 1
ENDMDL
MODEL 9
REMARK VINA RESULT:      -4.8      2.956      3.539
REMARK  Name = 
REMARK  1 active torsions:
REMARK  status: ('A' for Active; 'I' for Inactive)
REMARK    1  A    between atoms: N_1  and  C_2
REMARK                            x       y       z     vdW  Elec       q    Type
REMARK                         _______ _______ _______ _____ _____    ______ ____
ROOT
ATOM      1  C   UNL     1       2.281   2.376  17.927  0.00  0.00    +0.000 C 
ATOM      2  C   UNL     1       3.352   1.560  18.725  0.00  0.00    +0.000 C 
ATOM      3  C   UNL     1       4.180   2.604  19.421  0.00  0.00    +0.000 C 
ATOM      4  O   UNL     1       5.136   2.379  20.147  0.00  0.00    +0.000 OA
ATOM      5  C   UNL     1       3.650   3.907  19.133  0.00  0.00    +0.000 A 
ATOM      6  C   UNL     1       3.987   5.195  19.509  0.00  0.00    +0.000 A 
ATOM      7  S   UNL     1       2.868   6.203  18.735  0.00  0.00    +0.000 S 
ATOM      8  C   UNL     1       1.987   4.994  17.943  0.00  0.00    +0.000 A 
ATOM      9  C   UNL     1       2.580   3.793  18.298  0.00  0.00    +0.000 A 
ENDROOT
BRANCH   1  10
ATOM     10  N   UNL     1       0.925   2.009  18.325  0.00  0.00    +0.000 NA
ATOM     11  H   UNL     1       0.503   2.812  18.842  0.00  0.00    +0.000 HD
ATOM     12  H   UNL     1       0.963   1.201  18.989  0.00  0.00    +0.000 HD
ENDBRANCH   1  10
TORSDOF 1
ENDMDL
