MODEL 1
REMARK VINA RESULT:      -7.8      0.000      0.000
REMARK  Name = 
REMARK  4 active torsions:
REMARK  status: ('A' for Active; 'I' for Inactive)
REMARK    1  A    between atoms: C_1  and  N_2
REMARK    2  A    between atoms: C_6  and  S_7
REMARK    3  A    between atoms: S_7  and  C_8
REMARK    4  A    between atoms: C_8  and  C_9
REMARK                            x       y       z     vdW  Elec       q    Type
REMARK                         _______ _______ _______ _____ _____    ______ ____
ROOT
ATOM      1  C   UNL     1       4.537   4.514  16.956  0.00  0.00    +0.000 C 
ATOM      2  O   UNL     1       4.441   3.287  16.854  0.00  0.00    +0.000 OA
ATOM      3  N   UNL     1       4.010   5.250  18.040  0.00  0.00    +0.000 N 
ATOM      4  C   UNL     1       3.951   6.723  18.068  0.00  0.00    +0.000 C 
ATOM      5  C   UNL     1       2.548   7.215  18.370  0.00  0.00    +0.000 C 
ATOM      6  C   UNL     1       2.118   6.738  19.741  0.00  0.00    +0.000 C 
ATOM      7  C   UNL     1       2.503   5.304  20.005  0.00  0.00    +0.000 A 
ATOM      8  C   UNL     1       1.914   4.673  21.117  0.00  0.00    +0.000 A 
ATOM      9  C   UNL     1       2.228   3.357  21.437  0.00  0.00    +0.000 A 
ATOM     10  C   UNL     1       3.149   2.667  20.661  0.00  0.00    +0.000 A 
ATOM     11  C   UNL     1       3.740   3.285  19.555  0.00  0.00    +0.000 A 
ATOM     12  C   UNL     1       3.422   4.603  19.192  0.00  0.00    +0.000 A 
ENDROOT
BRANCH   1  13
ATOM     13  C   UNL     1       5.168   5.308  15.809  0.00  0.00    +0.000 C 
BRANCH  13  14
ATOM     14  S   UNL     1       6.965   5.007  15.689  0.00  0.00    +0.000 S 
BRANCH  14  20
ATOM     15  C   UNL     1       7.473   7.817  17.282  0.00  0.00    +0.000 C 
ATOM     16  N   UNL     1       7.609   6.517  17.875  0.00  0.00    +0.000 N 
ATOM     17  N   UNL     1       7.975   6.387  19.163  0.00  0.00    +0.000 NA
ATOM     18  N   UNL     1       8.020   5.077  19.378  0.00  0.00    +0.000 NA
ATOM     19  N   UNL     1       7.692   4.376  18.241  0.00  0.00    +0.000 NA
ATOM     20  C   UNL     1       7.435   5.281  17.326  0.00  0.00    +0.000 A 
ENDBRANCH  14  20
ENDBRANCH  13  14
ENDBRANCH   1  13
TORSDOF 3
ENDMDL
MODEL 2
REMARK VINA RESULT:      -7.1      2.713      3.970
REMARK  Name = 
REMARK  4 active torsions:
REMARK  status: ('A' for Active; 'I' for Inactive)
REMARK    1  A    between atoms: C_1  and  N_2
REMARK    2  A    between atoms: C_6  and  S_7
REMARK    3  A    between atoms: S_7  and  C_8
REMARK    4  A    between atoms: C_8  and  C_9
REMARK                            x       y       z     vdW  Elec       q    Type
REMARK                         _______ _______ _______ _____ _____    ______ ____
ROOT
ATOM      1  C   UNL     1       5.487   5.228  17.781  0.00  0.00    +0.000 C 
ATOM      2  O   UNL     1       5.699   6.438  17.893  0.00  0.00    +0.000 OA
ATOM      3  N   UNL     1       4.430   4.557  18.435  0.00  0.00    +0.000 N 
ATOM      4  C   UNL     1       4.293   3.090  18.459  0.00  0.00    +0.000 C 
ATOM      5  C   UNL     1       4.149   2.570  19.877  0.00  0.00    +0.000 C 
ATOM      6  C   UNL     1       2.892   3.134  20.508  0.00  0.00    +0.000 C 
ATOM      7  C   UNL     1       2.694   4.596  20.202  0.00  0.00    +0.000 A 
ATOM      8  C   UNL     1       1.728   5.288  20.957  0.00  0.00    +0.000 A 
ATOM      9  C   UNL     1       1.474   6.635  20.725  0.00  0.00    +0.000 A 
ATOM     10  C   UNL     1       2.168   7.297  19.722  0.00  0.00    +0.000 A 
ATOM     11  C   UNL     1       3.129   6.620  18.966  0.00  0.00    +0.000 A 
ATOM     12  C   UNL     1       3.426   5.267  19.196  0.00  0.00    +0.000 A 
ENDROOT
BRANCH   1  13
ATOM     13  C   UNL     1       6.468   4.373  16.974  0.00  0.00    +0.000 C 
BRANCH  13  14
ATOM     14  S   UNL     1       5.730   3.792  15.409  0.00  0.00    +0.000 S 
BRANCH  14  20
ATOM     15  C   UNL     1       6.068   3.264  12.200  0.00  0.00    +0.000 C 
ATOM     16  N   UNL     1       6.829   4.228  12.944  0.00  0.00    +0.000 N 
ATOM     17  N   UNL     1       7.760   4.983  12.335  0.00  0.00    +0.000 NA
ATOM     18  N   UNL     1       8.275   5.739  13.298  0.00  0.00    +0.000 NA
ATOM     19  N   UNL     1       7.685   5.469  14.510  0.00  0.00    +0.000 NA
ATOM     20  C   UNL     1       6.791   4.538  14.271  0.00  0.00    +0.000 A 
ENDBRANCH  14  20
ENDBRANCH  13  14
ENDBRANCH   1  13
TORSDOF 3
ENDMDL
MODEL 3
REMARK VINA RESULT:      -7.1      1.004      1.498
REMARK  Name = 
REMARK  4 active torsions:
REMARK  status: ('A' for Active; 'I' for Inactive)
REMARK    1  A    between atoms: C_1  and  N_2
REMARK    2  A    between atoms: C_6  and  S_7
REMARK    3  A    between atoms: S_7  and  C_8
REMARK    4  A    between atoms: C_8  and  C_9
REMARK                            x       y       z     vdW  Elec       q    Type
REMARK                         _______ _______ _______ _____ _____    ______ ____
ROOT
ATOM      1  C   UNL     1       4.446   3.993  17.111  0.00  0.00    +0.000 C 
ATOM      2  O   UNL     1       4.109   2.814  16.974  0.00  0.00    +0.000 OA
ATOM      3  N   UNL     1       3.926   4.842  18.113  0.00  0.00    +0.000 N 
ATOM      4  C   UNL     1       4.178   6.293  18.157  0.00  0.00    +0.000 C 
ATOM      5  C   UNL     1       2.883   7.078  18.246  0.00  0.00    +0.000 C 
ATOM      6  C   UNL     1       2.153   6.725  19.526  0.00  0.00    +0.000 C 
ATOM      7  C   UNL     1       2.178   5.247  19.820  0.00  0.00    +0.000 A 
ATOM      8  C   UNL     1       1.303   4.774  20.816  0.00  0.00    +0.000 A 
ATOM      9  C   UNL     1       1.277   3.426  21.158  0.00  0.00    +0.000 A 
ATOM     10  C   UNL     1       2.139   2.544  20.522  0.00  0.00    +0.000 A 
ATOM     11  C   UNL     1       3.013   3.003  19.532  0.00  0.00    +0.000 A 
ATOM     12  C   UNL     1       3.042   4.353  19.148  0.00  0.00    +0.000 A 
ENDROOT
BRANCH   1  13
ATOM     13  C   UNL     1       5.402   4.616  16.090  0.00  0.00    +0.000 C 
BRANCH  13  14
ATOM     14  S   UNL     1       7.147   4.410  16.585  0.00  0.00    +0.000 S 
BRANCH  14  20
ATOM     15  C   UNL     1       7.892   5.481  19.584  0.00  0.00    +0.000 C 
ATOM     16  N   UNL     1       7.809   6.322  18.423  0.00  0.00    +0.000 N 
ATOM     17  N   UNL     1       8.033   7.645  18.519  0.00  0.00    +0.000 NA
ATOM     18  N   UNL     1       7.861   8.114  17.289  0.00  0.00    +0.000 NA
ATOM     19  N   UNL     1       7.526   7.106  16.416  0.00  0.00    +0.000 NA
ATOM     20  C   UNL     1       7.505   6.007  17.132  0.00  0.00    +0.000 A 
ENDBRANCH  14  20
ENDBRANCH  13  14
ENDBRANCH   1  13
TORSDOF 3
ENDMDL
MODEL 4
REMARK VINA RESULT:      -7.1      1.308      2.864
REMARK  Name = 
REMARK  4 active torsions:
REMARK  status: ('A' for Active; 'I' for Inactive)
REMARK    1  A    between atoms: C_1  and  N_2
REMARK    2  A    between atoms: C_6  and  S_7
REMARK    3  A    between atoms: S_7  and  C_8
REMARK    4  A    between atoms: C_8  and  C_9
REMARK                            x       y       z     vdW  Elec       q    Type
REMARK                         _______ _______ _______ _____ _____    ______ ____
ROOT
ATOM      1  C   UNL     1       4.140   5.978  17.122  0.00  0.00    +0.000 C 
ATOM      2  O   UNL     1       4.498   7.113  16.794  0.00  0.00    +0.000 OA
ATOM      3  N   UNL     1       3.209   5.720  18.151  0.00  0.00    +0.000 N 
ATOM      4  C   UNL     1       2.930   4.369  18.672  0.00  0.00    +0.000 C 
ATOM      5  C   UNL     1       3.080   4.316  20.181  0.00  0.00    +0.000 C 
ATOM      6  C   UNL     1       2.079   5.247  20.832  0.00  0.00    +0.000 C 
ATOM      7  C   UNL     1       1.966   6.570  20.118  0.00  0.00    +0.000 A 
ATOM      8  C   UNL     1       1.288   7.607  20.785  0.00  0.00    +0.000 A 
ATOM      9  C   UNL     1       1.127   8.852  20.188  0.00  0.00    +0.000 A 
ATOM     10  C   UNL     1       1.623   9.065  18.909  0.00  0.00    +0.000 A 
ATOM     11  C   UNL     1       2.297   8.041  18.237  0.00  0.00    +0.000 A 
ATOM     12  C   UNL     1       2.498   6.783  18.826  0.00  0.00    +0.000 A 
ENDROOT
BRANCH   1  13
ATOM     13  C   UNL     1       4.803   4.769  16.455  0.00  0.00    +0.000 C 
BRANCH  13  14
ATOM     14  S   UNL     1       6.524   5.128  15.963  0.00  0.00    +0.000 S 
BRANCH  14  20
ATOM     15  C   UNL     1       7.631   7.860  17.379  0.00  0.00    +0.000 C 
ATOM     16  N   UNL     1       7.665   6.562  17.991  0.00  0.00    +0.000 N 
ATOM     17  N   UNL     1       8.184   6.399  19.222  0.00  0.00    +0.000 NA
ATOM     18  N   UNL     1       8.076   5.100  19.472  0.00  0.00    +0.000 NA
ATOM     19  N   UNL     1       7.500   4.436  18.414  0.00  0.00    +0.000 NA
ATOM     20  C   UNL     1       7.249   5.356  17.512  0.00  0.00    +0.000 A 
ENDBRANCH  14  20
ENDBRANCH  13  14
ENDBRANCH   1  13
TORSDOF 3
ENDMDL
MODEL 5
REMARK VINA RESULT:      -7.0      2.736      4.236
REMARK  Name = 
REMARK  4 active torsions:
REMARK  status: ('A' for Active; 'I' for Inactive)
REMARK    1  A    between atoms: C_1  and  N_2
REMARK    2  A    between atoms: C_6  and  S_7
REMARK    3  A    between atoms: S_7  and  C_8
REMARK    4  A    between atoms: C_8  and  C_9
REMARK                            x       y       z     vdW  Elec       q    Type
REMARK                         _______ _______ _______ _____ _____    ______ ____
ROOT
ATOM      1  C   UNL     1       5.121   5.918  17.342  0.00  0.00    +0.000 C 
ATOM      2  O   UNL     1       5.554   7.011  16.964  0.00  0.00    +0.000 OA
ATOM      3  N   UNL     1       3.952   5.769  18.121  0.00  0.00    +0.000 N 
ATOM      4  C   UNL     1       3.545   4.492  18.733  0.00  0.00    +0.000 C 
ATOM      5  C   UNL     1       3.294   4.647  20.222  0.00  0.00    +0.000 C 
ATOM      6  C   UNL     1       2.160   5.622  20.456  0.00  0.00    +0.000 C 
ATOM      7  C   UNL     1       2.240   6.832  19.560  0.00  0.00    +0.000 A 
ATOM      8  C   UNL     1       1.414   7.926  19.879  0.00  0.00    +0.000 A 
ATOM      9  C   UNL     1       1.417   9.073  19.094  0.00  0.00    +0.000 A 
ATOM     10  C   UNL     1       2.230   9.129  17.971  0.00  0.00    +0.000 A 
ATOM     11  C   UNL     1       3.054   8.048  17.644  0.00  0.00    +0.000 A 
ATOM     12  C   UNL     1       3.092   6.888  18.434  0.00  0.00    +0.000 A 
ENDROOT
BRANCH   1  13
ATOM     13  C   UNL     1       5.933   4.655  17.044  0.00  0.00    +0.000 C 
BRANCH  13  14
ATOM     14  S   UNL     1       5.428   3.883  15.469  0.00  0.00    +0.000 S 
BRANCH  14  20
ATOM     15  C   UNL     1       5.939   3.326  12.287  0.00  0.00    +0.000 C 
ATOM     16  N   UNL     1       6.714   4.237  13.082  0.00  0.00    +0.000 N 
ATOM     17  N   UNL     1       7.733   4.925  12.536  0.00  0.00    +0.000 NA
ATOM     18  N   UNL     1       8.234   5.646  13.533  0.00  0.00    +0.000 NA
ATOM     19  N   UNL     1       7.548   5.420  14.703  0.00  0.00    +0.000 NA
ATOM     20  C   UNL     1       6.610   4.552  14.404  0.00  0.00    +0.000 A 
ENDBRANCH  14  20
ENDBRANCH  13  14
ENDBRANCH   1  13
TORSDOF 3
ENDMDL
MODEL 6
REMARK VINA RESULT:      -7.0      3.193      4.588
REMARK  Name = 
REMARK  4 active torsions:
REMARK  status: ('A' for Active; 'I' for Inactive)
REMARK    1  A    between atoms: C_1  and  N_2
REMARK    2  A    between atoms: C_6  and  S_7
REMARK    3  A    between atoms: S_7  and  C_8
REMARK    4  A    between atoms: C_8  and  C_9
REMARK                            x       y       z     vdW  Elec       q    Type
REMARK                         _______ _______ _______ _____ _____    ______ ____
ROOT
ATOM      1  C   UNL     1       2.307   6.759  19.810  0.00  0.00    +0.000 C 
ATOM      2  O   UNL     1       1.913   6.109  20.783  0.00  0.00    +0.000 OA
ATOM      3  N   UNL     1       1.922   8.093  19.556  0.00  0.00    +0.000 N 
ATOM      4  C   UNL     1       2.233   8.801  18.301  0.00  0.00    +0.000 C 
ATOM      5  C   UNL     1       0.984   9.391  17.674  0.00  0.00    +0.000 C 
ATOM      6  C   UNL     1       0.371  10.414  18.609  0.00  0.00    +0.000 C 
ATOM      7  C   UNL     1       0.369   9.959  20.046  0.00  0.00    +0.000 A 
ATOM      8  C   UNL     1      -0.420  10.692  20.952  0.00  0.00    +0.000 A 
ATOM      9  C   UNL     1      -0.465  10.346  22.298  0.00  0.00    +0.000 A 
ATOM     10  C   UNL     1       0.296   9.279  22.754  0.00  0.00    +0.000 A 
ATOM     11  C   UNL     1       1.084   8.545  21.863  0.00  0.00    +0.000 A 
ATOM     12  C   UNL     1       1.127   8.854  20.494  0.00  0.00    +0.000 A 
ENDROOT
BRANCH   1  13
ATOM     13  C   UNL     1       3.181   6.067  18.760  0.00  0.00    +0.000 C 
BRANCH  13  14
ATOM     14  S   UNL     1       3.903   4.516  19.397  0.00  0.00    +0.000 S 
BRANCH  14  20
ATOM     15  C   UNL     1       5.314   4.008  16.491  0.00  0.00    +0.000 C 
ATOM     16  N   UNL     1       6.011   4.476  17.656  0.00  0.00    +0.000 N 
ATOM     17  N   UNL     1       7.331   4.729  17.608  0.00  0.00    +0.000 NA
ATOM     18  N   UNL     1       7.651   5.121  18.836  0.00  0.00    +0.000 NA
ATOM     19  N   UNL     1       6.551   5.115  19.662  0.00  0.00    +0.000 NA
ATOM     20  C   UNL     1       5.547   4.720  18.914  0.00  0.00    +0.000 A 
ENDBRANCH  14  20
ENDBRANCH  13  14
ENDBRANCH   1  13
TORSDOF 3
ENDMDL
MODEL 7
REMARK VINA RESULT:      -7.0      4.657      6.846
REMARK  Name = 
REMARK  4 active torsions:
REMARK  status: ('A' for Active; 'I' for Inactive)
REMARK    1  A    between atoms: C_1  and  N_2
REMARK    2  A    between atoms: C_6  and  S_7
REMARK    3  A    between atoms: S_7  and  C_8
REMARK    4  A    between atoms: C_8  and  C_9
REMARK                            x       y       z     vdW  Elec       q    Type
REMARK                         _______ _______ _______ _____ _____    ______ ____
ROOT
ATOM      1  C   UNL     1       2.562   7.590  18.814  0.00  0.00    +0.000 C 
ATOM      2  O   UNL     1       2.656   8.386  17.875  0.00  0.00    +0.000 OA
ATOM      3  N   UNL     1       3.072   6.274  18.775  0.00  0.00    +0.000 N 
ATOM      4  C   UNL     1       2.791   5.265  19.812  0.00  0.00    +0.000 C 
ATOM      5  C   UNL     1       2.244   3.986  19.207  0.00  0.00    +0.000 C 
ATOM      6  C   UNL     1       3.270   3.376  18.275  0.00  0.00    +0.000 C 
ATOM      7  C   UNL     1       3.953   4.404  17.410  0.00  0.00    +0.000 A 
ATOM      8  C   UNL     1       4.709   3.931  16.321  0.00  0.00    +0.000 A 
ATOM      9  C   UNL     1       5.383   4.814  15.485  0.00  0.00    +0.000 A 
ATOM     10  C   UNL     1       5.324   6.177  15.742  0.00  0.00    +0.000 A 
ATOM     11  C   UNL     1       4.576   6.658  16.821  0.00  0.00    +0.000 A 
ATOM     12  C   UNL     1       3.864   5.792  17.666  0.00  0.00    +0.000 A 
ENDROOT
BRANCH   1  13
ATOM     13  C   UNL     1       1.768   7.999  20.057  0.00  0.00    +0.000 C 
BRANCH  13  14
ATOM     14  S   UNL     1       0.877   9.573  19.803  0.00  0.00    +0.000 S 
BRANCH  14  20
ATOM     15  C   UNL     1      -0.713  12.164  21.008  0.00  0.00    +0.000 C 
ATOM     16  N   UNL     1      -0.281  11.044  21.796  0.00  0.00    +0.000 N 
ATOM     17  N   UNL     1      -0.511  11.009  23.121  0.00  0.00    +0.000 NA
ATOM     18  N   UNL     1       0.023   9.865  23.533  0.00  0.00    +0.000 NA
ATOM     19  N   UNL     1       0.592   9.177  22.487  0.00  0.00    +0.000 NA
ATOM     20  C   UNL     1       0.389   9.917  21.423  0.00  0.00    +0.000 A 
ENDBRANCH  14  20
ENDBRANCH  13  14
ENDBRANCH   1  13
TORSDOF 3
ENDMDL
MODEL 8
REMARK VINA RESULT:      -6.9      2.993      4.399
REMARK  Name = 
REMARK  4 active torsions:
REMARK  status: ('A' for Active; 'I' for Inactive)
REMARK    1  A    between atoms: C_1  and  N_2
REMARK    2  A    between atoms: C_6  and  S_7
REMARK    3  A    between atoms: S_7  and  C_8
REMARK    4  A    between atoms: C_8  and  C_9
REMARK                            x       y       z     vdW  Elec       q    Type
REMARK                         _______ _______ _______ _____ _____    ______ ____
ROOT
ATOM      1  C   UNL     1       2.266   6.343  19.760  0.00  0.00    +0.000 C 
ATOM      2  O   UNL     1       1.772   5.788  20.746  0.00  0.00    +0.000 OA
ATOM      3  N   UNL     1       2.077   7.709  19.457  0.00  0.00    +0.000 N 
ATOM      4  C   UNL     1       2.500   8.323  18.185  0.00  0.00    +0.000 C 
ATOM      5  C   UNL     1       1.355   9.063  17.520  0.00  0.00    +0.000 C 
ATOM      6  C   UNL     1       0.882  10.193  18.411  0.00  0.00    +0.000 C 
ATOM      7  C   UNL     1       0.798   9.791  19.862  0.00  0.00    +0.000 A 
ATOM      8  C   UNL     1       0.109  10.658  20.731  0.00  0.00    +0.000 A 
ATOM      9  C   UNL     1       0.000  10.367  22.087  0.00  0.00    +0.000 A 
ATOM     10  C   UNL     1       0.597   9.219  22.589  0.00  0.00    +0.000 A 
ATOM     11  C   UNL     1       1.283   8.352  21.734  0.00  0.00    +0.000 A 
ATOM     12  C   UNL     1       1.386   8.605  20.357  0.00  0.00    +0.000 A 
ENDROOT
BRANCH   1  13
ATOM     13  C   UNL     1       3.045   5.500  18.746  0.00  0.00    +0.000 C 
BRANCH  13  14
ATOM     14  S   UNL     1       4.764   5.211  19.288  0.00  0.00    +0.000 S 
BRANCH  14  20
ATOM     15  C   UNL     1       7.921   6.011  18.985  0.00  0.00    +0.000 C 
ATOM     16  N   UNL     1       6.957   6.112  17.926  0.00  0.00    +0.000 N 
ATOM     17  N   UNL     1       7.319   6.567  16.713  0.00  0.00    +0.000 NA
ATOM     18  N   UNL     1       6.204   6.548  15.991  0.00  0.00    +0.000 NA
ATOM     19  N   UNL     1       5.140   6.091  16.733  0.00  0.00    +0.000 NA
ATOM     20  C   UNL     1       5.625   5.822  17.922  0.00  0.00    +0.000 A 
ENDBRANCH  14  20
ENDBRANCH  13  14
ENDBRANCH   1  13
TORSDOF 3
ENDMDL
MODEL 9
REMARK VINA RESULT:      -6.9      2.702      3.322
REMARK  Name = 
REMARK  4 active torsions:
REMARK  status: ('A' for Active; 'I' for Inactive)
REMARK    1  A    between atoms: C_1  and  N_2
REMARK    2  A    between atoms: C_6  and  S_7
REMARK    3  A    between atoms: S_7  and  C_8
REMARK    4  A    between atoms: C_8  and  C_9
REMARK                            x       y       z     vdW  Elec       q    Type
REMARK                         _______ _______ _______ _____ _____    ______ ____
ROOT
ATOM      1  C   UNL     1       4.319   4.295  16.940  0.00  0.00    +0.000 C 
ATOM      2  O   UNL     1       3.971   3.113  16.860  0.00  0.00    +0.000 OA
ATOM      3  N   UNL     1       3.885   5.170  17.959  0.00  0.00    +0.000 N 
ATOM      4  C   UNL     1       4.141   6.621  17.946  0.00  0.00    +0.000 C 
ATOM      5  C   UNL     1       2.858   7.412  18.122  0.00  0.00    +0.000 C 
ATOM      6  C   UNL     1       2.236   7.093  19.465  0.00  0.00    +0.000 C 
ATOM      7  C   UNL     1       2.284   5.623  19.794  0.00  0.00    +0.000 A 
ATOM      8  C   UNL     1       1.493   5.177  20.870  0.00  0.00    +0.000 A 
ATOM      9  C   UNL     1       1.494   3.838  21.247  0.00  0.00    +0.000 A 
ATOM     10  C   UNL     1       2.300   2.938  20.565  0.00  0.00    +0.000 A 
ATOM     11  C   UNL     1       3.089   3.370  19.495  0.00  0.00    +0.000 A 
ATOM     12  C   UNL     1       3.089   4.710  19.075  0.00  0.00    +0.000 A 
ENDROOT
BRANCH   1  13
ATOM     13  C   UNL     1       5.189   4.889  15.828  0.00  0.00    +0.000 C 
BRANCH  13  14
ATOM     14  S   UNL     1       6.599   3.804  15.420  0.00  0.00    +0.000 S 
BRANCH  14  20
ATOM     15  C   UNL     1       5.922   3.208  12.277  0.00  0.00    +0.000 C 
ATOM     16  N   UNL     1       6.815   4.237  12.729  0.00  0.00    +0.000 N 
ATOM     17  N   UNL     1       7.449   5.030  11.847  0.00  0.00    +0.000 NA
ATOM     18  N   UNL     1       8.194   5.843  12.587  0.00  0.00    +0.000 NA
ATOM     19  N   UNL     1       8.045   5.570  13.927  0.00  0.00    +0.000 NA
ATOM     20  C   UNL     1       7.186   4.581  13.995  0.00  0.00    +0.000 A 
ENDBRANCH  14  20
ENDBRANCH  13  14
ENDBRANCH   1  13
TORSDOF 3
ENDMDL
