MODEL 1
REMARK VINA RESULT:      -7.0      0.000      0.000
REMARK  Name = 
REMARK  4 active torsions:
REMARK  status: ('A' for Active; 'I' for Inactive)
REMARK    1  A    between atoms: C_1  and  S_2
REMARK    2  A    between atoms: S_2  and  C_3
REMARK    3  A    between atoms: C_8  and  C_9
REMARK    4  A    between atoms: C_16  and  C_17
REMARK                            x       y       z     vdW  Elec       q    Type
REMARK                         _______ _______ _______ _____ _____    ______ ____
ROOT
ATOM      1  C   UNL     1       4.339   5.028  17.046  0.00  0.00    +0.000 C 
ATOM      2  O   UNL     1       3.848   6.116  17.341  0.00  0.00    +0.000 OA
ATOM      3  N   UNL     1       3.931   3.833  17.592  0.00  0.00    +0.000 N 
ATOM      4  C   UNL     1       2.974   3.744  18.603  0.00  0.00    +0.000 A 
ATOM      5  C   UNL     1       1.827   4.527  18.607  0.00  0.00    +0.000 A 
ATOM      6  C   UNL     1       0.964   4.438  19.691  0.00  0.00    +0.000 A 
ATOM      7  C   UNL     1       1.293   3.600  20.750  0.00  0.00    +0.000 A 
ATOM      8  C   UNL     1       2.454   2.838  20.662  0.00  0.00    +0.000 A 
ATOM      9  C   UNL     1       2.914   2.006  21.820  0.00  0.00    +0.000 C 
ATOM     10  N   UNL     1       3.267   2.864  19.580  0.00  0.00    +0.000 NA
ATOM     11  H   UNL     1       4.580   3.054  17.593  0.00  0.00    +0.000 HD
ENDROOT
BRANCH   1  17
ATOM     12  C   UNL     1       6.686   5.683  16.131  0.00  0.00    +0.000 A 
ATOM     13  N   UNL     1       7.631   5.584  15.153  0.00  0.00    +0.000 NA
ATOM     14  C   UNL     1       7.358   4.824  14.073  0.00  0.00    +0.000 A 
ATOM     15  C   UNL     1       6.175   4.147  13.894  0.00  0.00    +0.000 A 
ATOM     16  C   UNL     1       5.222   4.245  14.897  0.00  0.00    +0.000 A 
ATOM     17  C   UNL     1       5.451   5.017  16.054  0.00  0.00    +0.000 A 
BRANCH  12  19
ATOM     18  C   UNL     1       7.608   5.599  18.774  0.00  0.00    +0.000 C 
ATOM     19  S   UNL     1       7.140   6.781  17.479  0.00  0.00    +0.000 S 
ENDBRANCH  12  19
ENDBRANCH   1  17
TORSDOF 2
ENDMDL
MODEL 2
REMARK VINA RESULT:      -6.8      2.436      6.367
REMARK  Name = 
REMARK  4 active torsions:
REMARK  status: ('A' for Active; 'I' for Inactive)
REMARK    1  A    between atoms: C_1  and  S_2
REMARK    2  A    between atoms: S_2  and  C_3
REMARK    3  A    between atoms: C_8  and  C_9
REMARK    4  A    between atoms: C_16  and  C_17
REMARK                            x       y       z     vdW  Elec       q    Type
REMARK                         _______ _______ _______ _____ _____    ______ ____
ROOT
ATOM      1  C   UNL     1       5.048   6.049  16.369  0.00  0.00    +0.000 C 
ATOM      2  O   UNL     1       5.696   7.013  15.964  0.00  0.00    +0.000 OA
ATOM      3  N   UNL     1       5.081   4.805  15.781  0.00  0.00    +0.000 N 
ATOM      4  C   UNL     1       5.790   4.535  14.610  0.00  0.00    +0.000 A 
ATOM      5  C   UNL     1       7.056   5.054  14.376  0.00  0.00    +0.000 A 
ATOM      6  C   UNL     1       7.662   4.804  13.151  0.00  0.00    +0.000 A 
ATOM      7  C   UNL     1       6.969   4.078  12.190  0.00  0.00    +0.000 A 
ATOM      8  C   UNL     1       5.709   3.579  12.510  0.00  0.00    +0.000 A 
ATOM      9  C   UNL     1       4.873   2.888  11.477  0.00  0.00    +0.000 C 
ATOM     10  N   UNL     1       5.138   3.757  13.725  0.00  0.00    +0.000 NA
ATOM     11  H   UNL     1       4.293   4.183  15.918  0.00  0.00    +0.000 HD
ENDROOT
BRANCH   1  17
ATOM     12  C   UNL     1       4.072   5.469  18.711  0.00  0.00    +0.000 A 
ATOM     13  N   UNL     1       3.224   5.774  19.734  0.00  0.00    +0.000 NA
ATOM     14  C   UNL     1       2.444   6.868  19.616  0.00  0.00    +0.000 A 
ATOM     15  C   UNL     1       2.447   7.693  18.516  0.00  0.00    +0.000 A 
ATOM     16  C   UNL     1       3.319   7.382  17.483  0.00  0.00    +0.000 A 
ATOM     17  C   UNL     1       4.165   6.256  17.551  0.00  0.00    +0.000 A 
BRANCH  12  19
ATOM     18  C   UNL     1       3.740   2.690  18.619  0.00  0.00    +0.000 C 
ATOM     19  S   UNL     1       5.001   3.950  18.958  0.00  0.00    +0.000 S 
ENDBRANCH  12  19
ENDBRANCH   1  17
TORSDOF 2
ENDMDL
MODEL 3
REMARK VINA RESULT:      -6.5      2.105      6.285
REMARK  Name = 
REMARK  4 active torsions:
REMARK  status: ('A' for Active; 'I' for Inactive)
REMARK    1  A    between atoms: C_1  and  S_2
REMARK    2  A    between atoms: S_2  and  C_3
REMARK    3  A    between atoms: C_8  and  C_9
REMARK    4  A    between atoms: C_16  and  C_17
REMARK                            x       y       z     vdW  Elec       q    Type
REMARK                         _______ _______ _______ _____ _____    ______ ____
ROOT
ATOM      1  C   UNL     1       5.465   5.517  16.113  0.00  0.00    +0.000 C 
ATOM      2  O   UNL     1       5.571   6.620  15.579  0.00  0.00    +0.000 OA
ATOM      3  N   UNL     1       5.894   4.345  15.534  0.00  0.00    +0.000 N 
ATOM      4  C   UNL     1       6.414   4.279  14.241  0.00  0.00    +0.000 A 
ATOM      5  C   UNL     1       7.285   5.240  13.745  0.00  0.00    +0.000 A 
ATOM      6  C   UNL     1       7.695   5.147  12.422  0.00  0.00    +0.000 A 
ATOM      7  C   UNL     1       7.192   4.122  11.628  0.00  0.00    +0.000 A 
ATOM      8  C   UNL     1       6.335   3.191  12.206  0.00  0.00    +0.000 A 
ATOM      9  C   UNL     1       5.676   2.135  11.373  0.00  0.00    +0.000 C 
ATOM     10  N   UNL     1       5.983   3.231  13.514  0.00  0.00    +0.000 NA
ATOM     11  H   UNL     1       5.471   3.474  15.835  0.00  0.00    +0.000 HD
ENDROOT
BRANCH   1  17
ATOM     12  C   UNL     1       5.438   5.406  18.713  0.00  0.00    +0.000 A 
ATOM     13  N   UNL     1       4.727   5.363  19.876  0.00  0.00    +0.000 NA
ATOM     14  C   UNL     1       3.380   5.359  19.804  0.00  0.00    +0.000 A 
ATOM     15  C   UNL     1       2.678   5.388  18.622  0.00  0.00    +0.000 A 
ATOM     16  C   UNL     1       3.408   5.442  17.443  0.00  0.00    +0.000 A 
ATOM     17  C   UNL     1       4.818   5.457  17.453  0.00  0.00    +0.000 A 
BRANCH  12  19
ATOM     18  C   UNL     1       7.741   6.940  18.285  0.00  0.00    +0.000 C 
ATOM     19  S   UNL     1       7.219   5.331  18.941  0.00  0.00    +0.000 S 
ENDBRANCH  12  19
ENDBRANCH   1  17
TORSDOF 2
ENDMDL
MODEL 4
REMARK VINA RESULT:      -6.5      1.533      2.059
REMARK  Name = 
REMARK  4 active torsions:
REMARK  status: ('A' for Active; 'I' for Inactive)
REMARK    1  A    between atoms: C_1  and  S_2
REMARK    2  A    between atoms: S_2  and  C_3
REMARK    3  A    between atoms: C_8  and  C_9
REMARK    4  A    between atoms: C_16  and  C_17
REMARK                            x       y       z     vdW  Elec       q    Type
REMARK                         _______ _______ _______ _____ _____    ______ ____
ROOT
ATOM      1  C   UNL     1       4.424   4.399  16.952  0.00  0.00    +0.000 C 
ATOM      2  O   UNL     1       3.564   3.564  16.675  0.00  0.00    +0.000 OA
ATOM      3  N   UNL     1       4.432   5.129  18.118  0.00  0.00    +0.000 N 
ATOM      4  C   UNL     1       3.413   5.058  19.069  0.00  0.00    +0.000 A 
ATOM      5  C   UNL     1       2.818   3.856  19.426  0.00  0.00    +0.000 A 
ATOM      6  C   UNL     1       1.756   3.878  20.320  0.00  0.00    +0.000 A 
ATOM      7  C   UNL     1       1.299   5.102  20.797  0.00  0.00    +0.000 A 
ATOM      8  C   UNL     1       1.960   6.261  20.401  0.00  0.00    +0.000 A 
ATOM      9  C   UNL     1       1.442   7.611  20.793  0.00  0.00    +0.000 C 
ATOM     10  N   UNL     1       3.041   6.245  19.585  0.00  0.00    +0.000 NA
ATOM     11  H   UNL     1       4.923   6.016  18.131  0.00  0.00    +0.000 HD
ENDROOT
BRANCH   1  17
ATOM     12  C   UNL     1       6.602   5.507  16.056  0.00  0.00    +0.000 A 
ATOM     13  N   UNL     1       7.532   5.630  15.066  0.00  0.00    +0.000 NA
ATOM     14  C   UNL     1       7.377   4.893  13.947  0.00  0.00    +0.000 A 
ATOM     15  C   UNL     1       6.328   4.028  13.741  0.00  0.00    +0.000 A 
ATOM     16  C   UNL     1       5.392   3.902  14.756  0.00  0.00    +0.000 A 
ATOM     17  C   UNL     1       5.503   4.639  15.952  0.00  0.00    +0.000 A 
BRANCH  12  19
ATOM     18  C   UNL     1       7.785   5.505  18.594  0.00  0.00    +0.000 C 
ATOM     19  S   UNL     1       6.880   6.594  17.460  0.00  0.00    +0.000 S 
ENDBRANCH  12  19
ENDBRANCH   1  17
TORSDOF 2
ENDMDL
MODEL 5
REMARK VINA RESULT:      -6.3      2.115      2.715
REMARK  Name = 
REMARK  4 active torsions:
REMARK  status: ('A' for Active; 'I' for Inactive)
REMARK    1  A    between atoms: C_1  and  S_2
REMARK    2  A    between atoms: S_2  and  C_3
REMARK    3  A    between atoms: C_8  and  C_9
REMARK    4  A    between atoms: C_16  and  C_17
REMARK                            x       y       z     vdW  Elec       q    Type
REMARK                         _______ _______ _______ _____ _____    ______ ____
ROOT
ATOM      1  C   UNL     1       4.363   4.704  17.477  0.00  0.00    +0.000 C 
ATOM      2  O   UNL     1       3.558   3.775  17.516  0.00  0.00    +0.000 OA
ATOM      3  N   UNL     1       4.325   5.784  18.328  0.00  0.00    +0.000 N 
ATOM      4  C   UNL     1       3.312   5.978  19.268  0.00  0.00    +0.000 A 
ATOM      5  C   UNL     1       2.794   4.935  20.023  0.00  0.00    +0.000 A 
ATOM      6  C   UNL     1       1.732   5.195  20.879  0.00  0.00    +0.000 A 
ATOM      7  C   UNL     1       1.199   6.478  20.924  0.00  0.00    +0.000 A 
ATOM      8  C   UNL     1       1.786   7.472  20.147  0.00  0.00    +0.000 A 
ATOM      9  C   UNL     1       1.184   8.842  20.071  0.00  0.00    +0.000 C 
ATOM     10  N   UNL     1       2.866   7.246  19.361  0.00  0.00    +0.000 NA
ATOM     11  H   UNL     1       4.759   6.651  18.031  0.00  0.00    +0.000 HD
ENDROOT
BRANCH   1  17
ATOM     12  C   UNL     1       6.811   4.807  16.600  0.00  0.00    +0.000 A 
ATOM     13  N   UNL     1       7.685   4.731  15.556  0.00  0.00    +0.000 NA
ATOM     14  C   UNL     1       7.190   4.510  14.320  0.00  0.00    +0.000 A 
ATOM     15  C   UNL     1       5.850   4.365  14.049  0.00  0.00    +0.000 A 
ATOM     16  C   UNL     1       4.968   4.434  15.118  0.00  0.00    +0.000 A 
ATOM     17  C   UNL     1       5.424   4.655  16.433  0.00  0.00    +0.000 A 
BRANCH  12  19
ATOM     18  C   UNL     1       7.764   6.981  18.085  0.00  0.00    +0.000 C 
ATOM     19  S   UNL     1       7.587   5.177  18.177  0.00  0.00    +0.000 S 
ENDBRANCH  12  19
ENDBRANCH   1  17
TORSDOF 2
ENDMDL
MODEL 6
REMARK VINA RESULT:      -6.3      4.488      5.785
REMARK  Name = 
REMARK  4 active torsions:
REMARK  status: ('A' for Active; 'I' for Inactive)
REMARK    1  A    between atoms: C_1  and  S_2
REMARK    2  A    between atoms: S_2  and  C_3
REMARK    3  A    between atoms: C_8  and  C_9
REMARK    4  A    between atoms: C_16  and  C_17
REMARK                            x       y       z     vdW  Elec       q    Type
REMARK                         _______ _______ _______ _____ _____    ______ ____
ROOT
ATOM      1  C   UNL     1       2.516   7.235  18.639  0.00  0.00    +0.000 C 
ATOM      2  O   UNL     1       2.250   6.931  19.801  0.00  0.00    +0.000 OA
ATOM      3  N   UNL     1       2.030   8.359  18.013  0.00  0.00    +0.000 N 
ATOM      4  C   UNL     1       1.112   9.226  18.608  0.00  0.00    +0.000 A 
ATOM      5  C   UNL     1       1.202   9.594  19.943  0.00  0.00    +0.000 A 
ATOM      6  C   UNL     1       0.204  10.396  20.481  0.00  0.00    +0.000 A 
ATOM      7  C   UNL     1      -0.867  10.772  19.679  0.00  0.00    +0.000 A 
ATOM      8  C   UNL     1      -0.875  10.373  18.346  0.00  0.00    +0.000 A 
ATOM      9  C   UNL     1      -2.056  10.653  17.468  0.00  0.00    +0.000 C 
ATOM     10  N   UNL     1       0.128   9.649  17.792  0.00  0.00    +0.000 NA
ATOM     11  H   UNL     1       1.981   8.367  17.000  0.00  0.00    +0.000 HD
ENDROOT
BRANCH   1  17
ATOM     12  C   UNL     1       3.225   4.942  17.632  0.00  0.00    +0.000 A 
ATOM     13  N   UNL     1       4.109   4.208  16.898  0.00  0.00    +0.000 NA
ATOM     14  C   UNL     1       5.194   4.831  16.392  0.00  0.00    +0.000 A 
ATOM     15  C   UNL     1       5.466   6.165  16.582  0.00  0.00    +0.000 A 
ATOM     16  C   UNL     1       4.557   6.907  17.322  0.00  0.00    +0.000 A 
ATOM     17  C   UNL     1       3.401   6.315  17.869  0.00  0.00    +0.000 A 
BRANCH  12  19
ATOM     18  C   UNL     1       2.363   2.290  17.887  0.00  0.00    +0.000 C 
ATOM     19  S   UNL     1       1.865   3.983  18.310  0.00  0.00    +0.000 S 
ENDBRANCH  12  19
ENDBRANCH   1  17
TORSDOF 2
ENDMDL
MODEL 7
REMARK VINA RESULT:      -6.2      4.266      5.643
REMARK  Name = 
REMARK  4 active torsions:
REMARK  status: ('A' for Active; 'I' for Inactive)
REMARK    1  A    between atoms: C_1  and  S_2
REMARK    2  A    between atoms: S_2  and  C_3
REMARK    3  A    between atoms: C_8  and  C_9
REMARK    4  A    between atoms: C_16  and  C_17
REMARK                            x       y       z     vdW  Elec       q    Type
REMARK                         _______ _______ _______ _____ _____    ______ ____
ROOT
ATOM      1  C   UNL     1       2.369   6.422  19.471  0.00  0.00    +0.000 C 
ATOM      2  O   UNL     1       1.907   5.820  20.439  0.00  0.00    +0.000 OA
ATOM      3  N   UNL     1       2.210   7.773  19.265  0.00  0.00    +0.000 N 
ATOM      4  C   UNL     1       1.431   8.583  20.092  0.00  0.00    +0.000 A 
ATOM      5  C   UNL     1       1.435   8.450  21.474  0.00  0.00    +0.000 A 
ATOM      6  C   UNL     1       0.571   9.240  22.222  0.00  0.00    +0.000 A 
ATOM      7  C   UNL     1      -0.292  10.107  21.563  0.00  0.00    +0.000 A 
ATOM      8  C   UNL     1      -0.223  10.193  20.176  0.00  0.00    +0.000 A 
ATOM      9  C   UNL     1      -1.204  11.025  19.409  0.00  0.00    +0.000 C 
ATOM     10  N   UNL     1       0.663   9.479  19.442  0.00  0.00    +0.000 NA
ATOM     11  H   UNL     1       2.286   8.132  18.320  0.00  0.00    +0.000 HD
ENDROOT
BRANCH   1  17
ATOM     12  C   UNL     1       2.795   4.378  17.918  0.00  0.00    +0.000 A 
ATOM     13  N   UNL     1       3.573   3.757  16.986  0.00  0.00    +0.000 NA
ATOM     14  C   UNL     1       4.703   4.372  16.582  0.00  0.00    +0.000 A 
ATOM     15  C   UNL     1       5.124   5.589  17.064  0.00  0.00    +0.000 A 
ATOM     16  C   UNL     1       4.323   6.219  18.005  0.00  0.00    +0.000 A 
ATOM     17  C   UNL     1       3.125   5.631  18.461  0.00  0.00    +0.000 A 
BRANCH  12  19
ATOM     18  C   UNL     1       2.074   2.322  19.677  0.00  0.00    +0.000 C 
ATOM     19  S   UNL     1       1.359   3.424  18.425  0.00  0.00    +0.000 S 
ENDBRANCH  12  19
ENDBRANCH   1  17
TORSDOF 2
ENDMDL
MODEL 8
REMARK VINA RESULT:      -6.2      1.307      1.542
REMARK  Name = 
REMARK  4 active torsions:
REMARK  status: ('A' for Active; 'I' for Inactive)
REMARK    1  A    between atoms: C_1  and  S_2
REMARK    2  A    between atoms: S_2  and  C_3
REMARK    3  A    between atoms: C_8  and  C_9
REMARK    4  A    between atoms: C_16  and  C_17
REMARK                            x       y       z     vdW  Elec       q    Type
REMARK                         _______ _______ _______ _____ _____    ______ ____
ROOT
ATOM      1  C   UNL     1       5.117   4.690  17.821  0.00  0.00    +0.000 C 
ATOM      2  O   UNL     1       5.697   4.593  18.901  0.00  0.00    +0.000 OA
ATOM      3  N   UNL     1       3.749   4.643  17.682  0.00  0.00    +0.000 N 
ATOM      4  C   UNL     1       2.884   4.390  18.746  0.00  0.00    +0.000 A 
ATOM      5  C   UNL     1       3.077   4.946  20.004  0.00  0.00    +0.000 A 
ATOM      6  C   UNL     1       2.216   4.582  21.032  0.00  0.00    +0.000 A 
ATOM      7  C   UNL     1       1.218   3.648  20.779  0.00  0.00    +0.000 A 
ATOM      8  C   UNL     1       1.082   3.149  19.487  0.00  0.00    +0.000 A 
ATOM      9  C   UNL     1       0.100   2.060  19.185  0.00  0.00    +0.000 C 
ATOM     10  N   UNL     1       1.871   3.550  18.461  0.00  0.00    +0.000 NA
ATOM     11  H   UNL     1       3.363   4.369  16.785  0.00  0.00    +0.000 HD
ENDROOT
BRANCH   1  17
ATOM     12  C   UNL     1       6.912   5.841  16.329  0.00  0.00    +0.000 A 
ATOM     13  N   UNL     1       7.624   5.871  15.166  0.00  0.00    +0.000 NA
ATOM     14  C   UNL     1       7.387   4.915  14.244  0.00  0.00    +0.000 A 
ATOM     15  C   UNL     1       6.459   3.913  14.405  0.00  0.00    +0.000 A 
ATOM     16  C   UNL     1       5.746   3.883  15.594  0.00  0.00    +0.000 A 
ATOM     17  C   UNL     1       5.954   4.850  16.599  0.00  0.00    +0.000 A 
BRANCH  12  19
ATOM     18  C   UNL     1       8.137   6.366  18.791  0.00  0.00    +0.000 C 
ATOM     19  S   UNL     1       7.267   7.208  17.440  0.00  0.00    +0.000 S 
ENDBRANCH  12  19
ENDBRANCH   1  17
TORSDOF 2
ENDMDL
MODEL 9
REMARK VINA RESULT:      -6.2      3.920      5.036
REMARK  Name = 
REMARK  4 active torsions:
REMARK  status: ('A' for Active; 'I' for Inactive)
REMARK    1  A    between atoms: C_1  and  S_2
REMARK    2  A    between atoms: S_2  and  C_3
REMARK    3  A    between atoms: C_8  and  C_9
REMARK    4  A    between atoms: C_16  and  C_17
REMARK                            x       y       z     vdW  Elec       q    Type
REMARK                         _______ _______ _______ _____ _____    ______ ____
ROOT
ATOM      1  C   UNL     1       2.756   6.379  18.654  0.00  0.00    +0.000 C 
ATOM      2  O   UNL     1       2.167   5.636  19.437  0.00  0.00    +0.000 OA
ATOM      3  N   UNL     1       2.606   7.747  18.640  0.00  0.00    +0.000 N 
ATOM      4  C   UNL     1       1.701   8.422  19.459  0.00  0.00    +0.000 A 
ATOM      5  C   UNL     1       1.505   8.073  20.789  0.00  0.00    +0.000 A 
ATOM      6  C   UNL     1       0.528   8.742  21.515  0.00  0.00    +0.000 A 
ATOM      7  C   UNL     1      -0.244   9.708  20.880  0.00  0.00    +0.000 A 
ATOM      8  C   UNL     1       0.026  10.009  19.549  0.00  0.00    +0.000 A 
ATOM      9  C   UNL     1      -0.846  10.958  18.785  0.00  0.00    +0.000 C 
ATOM     10  N   UNL     1       1.022   9.413  18.851  0.00  0.00    +0.000 NA
ATOM     11  H   UNL     1       2.814   8.248  17.784  0.00  0.00    +0.000 HD
ENDROOT
BRANCH   1  17
ATOM     12  C   UNL     1       3.815   4.386  17.359  0.00  0.00    +0.000 A 
ATOM     13  N   UNL     1       4.683   3.935  16.408  0.00  0.00    +0.000 NA
ATOM     14  C   UNL     1       5.426   4.840  15.739  0.00  0.00    +0.000 A 
ATOM     15  C   UNL     1       5.367   6.195  15.966  0.00  0.00    +0.000 A 
ATOM     16  C   UNL     1       4.476   6.646  16.928  0.00  0.00    +0.000 A 
ATOM     17  C   UNL     1       3.666   5.751  17.655  0.00  0.00    +0.000 A 
BRANCH  12  19
ATOM     18  C   UNL     1       4.125   2.649  19.533  0.00  0.00    +0.000 C 
ATOM     19  S   UNL     1       2.940   3.079  18.228  0.00  0.00    +0.000 S 
ENDBRANCH  12  19
ENDBRANCH   1  17
TORSDOF 2
ENDMDL
