MODEL 1
REMARK VINA RESULT:      -7.8      0.000      0.000
REMARK  Name = 
REMARK  7 active torsions:
REMARK  status: ('A' for Active; 'I' for Inactive)
REMARK    1  A    between atoms: N_8  and  C_9
REMARK    2  A    between atoms: C_9  and  C_10
REMARK    3  A    between atoms: C_10  and  C_11
REMARK    4  A    between atoms: C_11  and  C_12
REMARK    5  A    between atoms: C_12  and  N_13
REMARK    6  A    between atoms: N_16  and  C_17
REMARK    7  A    between atoms: C_22  and  N_23
REMARK                            x       y       z     vdW  Elec       q    Type
REMARK                         _______ _______ _______ _____ _____    ______ ____
ROOT
ATOM      1  N   UNL     1       7.566   6.200  17.493  0.00  0.00    +0.000 NA
ATOM      2  C   UNL     1       7.172   5.567  18.776  0.00  0.00    +0.000 C 
ATOM      3  C   UNL     1       5.649   5.491  19.051  0.00  0.00    +0.000 C 
ATOM      4  N   UNL     1       4.996   4.849  17.902  0.00  0.00    +0.000 N 
ATOM      5  C   UNL     1       5.249   5.542  16.631  0.00  0.00    +0.000 C 
ATOM      6  C   UNL     1       6.780   5.586  16.392  0.00  0.00    +0.000 C 
ENDROOT
BRANCH   4   7
ATOM      7  C   UNL     1       3.846   4.125  18.134  0.00  0.00    +0.000 A 
ATOM      8  N   UNL     1       3.875   2.805  17.808  0.00  0.00    +0.000 NA
ATOM      9  C   UNL     1       2.750   2.059  17.923  0.00  0.00    +0.000 A 
ATOM     10  C   UNL     1       1.536   2.554  18.361  0.00  0.00    +0.000 A 
ATOM     11  C   UNL     1       1.481   3.892  18.710  0.00  0.00    +0.000 A 
ATOM     12  C   UNL     1       2.642   4.670  18.588  0.00  0.00    +0.000 A 
BRANCH  12  13
ATOM     13  N   UNL     1       2.508   6.080  18.855  0.00  0.00    +0.000 N 
ATOM     14  O   UNL     1       2.335   6.844  17.897  0.00  0.00    +0.000 OA
ATOM     15  O   UNL     1       2.537   6.423  20.046  0.00  0.00    +0.000 OA
ENDBRANCH  12  13
ENDBRANCH   4   7
BRANCH   1  16
ATOM     16  C   UNL     1       7.441   7.663  17.488  0.00  0.00    +0.000 C 
BRANCH  16  17
ATOM     17  C   UNL     1       8.370   8.387  18.477  0.00  0.00    +0.000 C 
BRANCH  17  18
ATOM     18  C   UNL     1       8.737   9.797  18.019  0.00  0.00    +0.000 C 
BRANCH  18  19
ATOM     19  C   UNL     1       9.201  10.679  19.185  0.00  0.00    +0.000 C 
BRANCH  19  27
ATOM     20  O   UNL     1       8.488  12.843  17.541  0.00  0.00    +0.000 OA
ATOM     21  C   UNL     1       9.674  12.637  17.791  0.00  0.00    +0.000 C 
ATOM     22  C   UNL     1      10.794  13.384  17.073  0.00  0.00    +0.000 C 
ATOM     23  O   UNL     1      11.826  13.836  17.931  0.00  0.00    +0.000 OA
ATOM     24  C   UNL     1      12.331  12.775  18.721  0.00  0.00    +0.000 C 
ATOM     25  C   UNL     1      11.268  11.959  19.453  0.00  0.00    +0.000 C 
ATOM     26  O   UNL     1      11.445  11.551  20.601  0.00  0.00    +0.000 OA
ATOM     27  N   UNL     1      10.130  11.695  18.702  0.00  0.00    +0.000 N 
ENDBRANCH  19  27
ENDBRANCH  18  19
ENDBRANCH  17  18
ENDBRANCH  16  17
ENDBRANCH   1  16
TORSDOF 7
ENDMDL
MODEL 2
REMARK VINA RESULT:      -7.8      1.122      1.507
REMARK  Name = 
REMARK  7 active torsions:
REMARK  status: ('A' for Active; 'I' for Inactive)
REMARK    1  A    between atoms: N_8  and  C_9
REMARK    2  A    between atoms: C_9  and  C_10
REMARK    3  A    between atoms: C_10  and  C_11
REMARK    4  A    between atoms: C_11  and  C_12
REMARK    5  A    between atoms: C_12  and  N_13
REMARK    6  A    between atoms: N_16  and  C_17
REMARK    7  A    between atoms: C_22  and  N_23
REMARK                            x       y       z     vdW  Elec       q    Type
REMARK                         _______ _______ _______ _____ _____    ______ ____
ROOT
ATOM      1  N   UNL     1       7.504   6.065  17.153  0.00  0.00    +0.000 NA
ATOM      2  C   UNL     1       7.221   5.363  18.429  0.00  0.00    +0.000 C 
ATOM      3  C   UNL     1       5.734   5.318  18.860  0.00  0.00    +0.000 C 
ATOM      4  N   UNL     1       4.940   4.773  17.750  0.00  0.00    +0.000 N 
ATOM      5  C   UNL     1       5.086   5.538  16.505  0.00  0.00    +0.000 C 
ATOM      6  C   UNL     1       6.585   5.549  16.107  0.00  0.00    +0.000 C 
ENDROOT
BRANCH   4   7
ATOM      7  C   UNL     1       3.794   4.072  18.059  0.00  0.00    +0.000 A 
ATOM      8  N   UNL     1       3.785   2.746  17.755  0.00  0.00    +0.000 NA
ATOM      9  C   UNL     1       2.656   2.021  17.946  0.00  0.00    +0.000 A 
ATOM     10  C   UNL     1       1.477   2.544  18.443  0.00  0.00    +0.000 A 
ATOM     11  C   UNL     1       1.462   3.889  18.769  0.00  0.00    +0.000 A 
ATOM     12  C   UNL     1       2.626   4.645  18.569  0.00  0.00    +0.000 A 
BRANCH  12  13
ATOM     13  N   UNL     1       2.530   6.061  18.817  0.00  0.00    +0.000 N 
ATOM     14  O   UNL     1       2.253   6.805  17.868  0.00  0.00    +0.000 OA
ATOM     15  O   UNL     1       2.694   6.430  19.990  0.00  0.00    +0.000 OA
ENDBRANCH  12  13
ENDBRANCH   4   7
BRANCH   1  16
ATOM     16  C   UNL     1       7.436   7.529  17.251  0.00  0.00    +0.000 C 
BRANCH  16  17
ATOM     17  C   UNL     1       8.302   8.137  18.366  0.00  0.00    +0.000 C 
BRANCH  17  18
ATOM     18  C   UNL     1       8.492   9.644  18.213  0.00  0.00    +0.000 C 
BRANCH  18  19
ATOM     19  C   UNL     1       9.440  10.216  19.273  0.00  0.00    +0.000 C 
BRANCH  19  27
ATOM     20  O   UNL     1       8.887  11.971  21.396  0.00  0.00    +0.000 OA
ATOM     21  C   UNL     1       9.054  12.423  20.265  0.00  0.00    +0.000 C 
ATOM     22  C   UNL     1       8.766  13.882  19.925  0.00  0.00    +0.000 C 
ATOM     23  O   UNL     1       9.764  14.494  19.128  0.00  0.00    +0.000 OA
ATOM     24  C   UNL     1      10.025  13.730  17.965  0.00  0.00    +0.000 C 
ATOM     25  C   UNL     1      10.298  12.249  18.218  0.00  0.00    +0.000 C 
ATOM     26  O   UNL     1      11.157  11.634  17.587  0.00  0.00    +0.000 OA
ATOM     27  N   UNL     1       9.475  11.671  19.177  0.00  0.00    +0.000 N 
ENDBRANCH  19  27
ENDBRANCH  18  19
ENDBRANCH  17  18
ENDBRANCH  16  17
ENDBRANCH   1  16
TORSDOF 7
ENDMDL
MODEL 3
REMARK VINA RESULT:      -7.7      2.005      2.602
REMARK  Name = 
REMARK  7 active torsions:
REMARK  status: ('A' for Active; 'I' for Inactive)
REMARK    1  A    between atoms: N_8  and  C_9
REMARK    2  A    between atoms: C_9  and  C_10
REMARK    3  A    between atoms: C_10  and  C_11
REMARK    4  A    between atoms: C_11  and  C_12
REMARK    5  A    between atoms: C_12  and  N_13
REMARK    6  A    between atoms: N_16  and  C_17
REMARK    7  A    between atoms: C_22  and  N_23
REMARK                            x       y       z     vdW  Elec       q    Type
REMARK                         _______ _______ _______ _____ _____    ______ ____
ROOT
ATOM      1  N   UNL     1       6.867   6.024  17.215  0.00  0.00    +0.000 NA
ATOM      2  C   UNL     1       6.861   5.389  18.556  0.00  0.00    +0.000 C 
ATOM      3  C   UNL     1       5.559   5.561  19.378  0.00  0.00    +0.000 C 
ATOM      4  N   UNL     1       4.424   5.114  18.558  0.00  0.00    +0.000 N 
ATOM      5  C   UNL     1       4.317   5.831  17.281  0.00  0.00    +0.000 C 
ATOM      6  C   UNL     1       5.634   5.625  16.489  0.00  0.00    +0.000 C 
ENDROOT
BRANCH   4   7
ATOM      7  C   UNL     1       3.328   4.587  19.206  0.00  0.00    +0.000 A 
ATOM      8  N   UNL     1       2.442   5.474  19.734  0.00  0.00    +0.000 NA
ATOM      9  C   UNL     1       1.393   5.023  20.464  0.00  0.00    +0.000 A 
ATOM     10  C   UNL     1       1.148   3.687  20.721  0.00  0.00    +0.000 A 
ATOM     11  C   UNL     1       2.030   2.762  20.187  0.00  0.00    +0.000 A 
ATOM     12  C   UNL     1       3.120   3.224  19.435  0.00  0.00    +0.000 A 
BRANCH  12  13
ATOM     13  N   UNL     1       4.069   2.234  18.995  0.00  0.00    +0.000 N 
ATOM     14  O   UNL     1       3.918   1.736  17.872  0.00  0.00    +0.000 OA
ATOM     15  O   UNL     1       5.005   1.981  19.769  0.00  0.00    +0.000 OA
ENDBRANCH  12  13
ENDBRANCH   4   7
BRANCH   1  16
ATOM     16  C   UNL     1       7.020   7.484  17.248  0.00  0.00    +0.000 C 
BRANCH  16  17
ATOM     17  C   UNL     1       8.065   7.995  18.253  0.00  0.00    +0.000 C 
BRANCH  17  18
ATOM     18  C   UNL     1       8.291   9.502  18.157  0.00  0.00    +0.000 C 
BRANCH  18  19
ATOM     19  C   UNL     1       9.538   9.949  18.930  0.00  0.00    +0.000 C 
BRANCH  19  27
ATOM     20  O   UNL     1       8.956  11.422  21.250  0.00  0.00    +0.000 OA
ATOM     21  C   UNL     1       9.139  12.013  20.187  0.00  0.00    +0.000 C 
ATOM     22  C   UNL     1       8.855  13.504  20.030  0.00  0.00    +0.000 C 
ATOM     23  O   UNL     1       9.864  14.210  19.331  0.00  0.00    +0.000 OA
ATOM     24  C   UNL     1      10.141  13.599  18.084  0.00  0.00    +0.000 C 
ATOM     25  C   UNL     1      10.410  12.097  18.152  0.00  0.00    +0.000 C 
ATOM     26  O   UNL     1      11.278  11.565  17.460  0.00  0.00    +0.000 OA
ATOM     27  N   UNL     1       9.574  11.404  19.019  0.00  0.00    +0.000 N 
ENDBRANCH  19  27
ENDBRANCH  18  19
ENDBRANCH  17  18
ENDBRANCH  16  17
ENDBRANCH   1  16
TORSDOF 7
ENDMDL
MODEL 4
REMARK VINA RESULT:      -7.6      1.784      2.308
REMARK  Name = 
REMARK  7 active torsions:
REMARK  status: ('A' for Active; 'I' for Inactive)
REMARK    1  A    between atoms: N_8  and  C_9
REMARK    2  A    between atoms: C_9  and  C_10
REMARK    3  A    between atoms: C_10  and  C_11
REMARK    4  A    between atoms: C_11  and  C_12
REMARK    5  A    between atoms: C_12  and  N_13
REMARK    6  A    between atoms: N_16  and  C_17
REMARK    7  A    between atoms: C_22  and  N_23
REMARK                            x       y       z     vdW  Elec       q    Type
REMARK                         _______ _______ _______ _____ _____    ______ ____
ROOT
ATOM      1  N   UNL     1       6.804   5.962  17.243  0.00  0.00    +0.000 NA
ATOM      2  C   UNL     1       6.598   4.615  17.831  0.00  0.00    +0.000 C 
ATOM      3  C   UNL     1       5.581   4.536  18.996  0.00  0.00    +0.000 C 
ATOM      4  N   UNL     1       4.315   5.138  18.556  0.00  0.00    +0.000 N 
ATOM      5  C   UNL     1       4.462   6.528  18.103  0.00  0.00    +0.000 C 
ATOM      6  C   UNL     1       5.480   6.559  16.933  0.00  0.00    +0.000 C 
ENDROOT
BRANCH   4   7
ATOM      7  C   UNL     1       3.145   4.658  19.106  0.00  0.00    +0.000 A 
ATOM      8  N   UNL     1       2.674   5.307  20.205  0.00  0.00    +0.000 NA
ATOM      9  C   UNL     1       1.582   4.829  20.851  0.00  0.00    +0.000 A 
ATOM     10  C   UNL     1       0.890   3.697  20.463  0.00  0.00    +0.000 A 
ATOM     11  C   UNL     1       1.343   3.024  19.342  0.00  0.00    +0.000 A 
ATOM     12  C   UNL     1       2.476   3.511  18.674  0.00  0.00    +0.000 A 
BRANCH  12  13
ATOM     13  N   UNL     1       2.975   2.716  17.581  0.00  0.00    +0.000 N 
ATOM     14  O   UNL     1       3.693   1.743  17.844  0.00  0.00    +0.000 OA
ATOM     15  O   UNL     1       2.610   3.047  16.442  0.00  0.00    +0.000 OA
ENDBRANCH  12  13
ENDBRANCH   4   7
BRANCH   1  16
ATOM     16  C   UNL     1       7.613   6.859  18.077  0.00  0.00    +0.000 C 
BRANCH  16  17
ATOM     17  C   UNL     1       7.666   8.315  17.587  0.00  0.00    +0.000 C 
BRANCH  17  18
ATOM     18  C   UNL     1       8.754   9.134  18.280  0.00  0.00    +0.000 C 
BRANCH  18  19
ATOM     19  C   UNL     1       8.396  10.623  18.352  0.00  0.00    +0.000 C 
BRANCH  19  27
ATOM     20  O   UNL     1       9.328  12.977  17.134  0.00  0.00    +0.000 OA
ATOM     21  C   UNL     1       9.983  12.463  18.039  0.00  0.00    +0.000 C 
ATOM     22  C   UNL     1      11.392  12.934  18.388  0.00  0.00    +0.000 C 
ATOM     23  O   UNL     1      11.627  13.064  19.778  0.00  0.00    +0.000 OA
ATOM     24  C   UNL     1      11.292  11.870  20.463  0.00  0.00    +0.000 C 
ATOM     25  C   UNL     1       9.904  11.317  20.148  0.00  0.00    +0.000 C 
ATOM     26  O   UNL     1       9.194  10.820  21.021  0.00  0.00    +0.000 OA
ATOM     27  N   UNL     1       9.550  11.391  18.806  0.00  0.00    +0.000 N 
ENDBRANCH  19  27
ENDBRANCH  18  19
ENDBRANCH  17  18
ENDBRANCH  16  17
ENDBRANCH   1  16
TORSDOF 7
ENDMDL
MODEL 5
REMARK VINA RESULT:      -7.6      1.787      2.760
REMARK  Name = 
REMARK  7 active torsions:
REMARK  status: ('A' for Active; 'I' for Inactive)
REMARK    1  A    between atoms: N_8  and  C_9
REMARK    2  A    between atoms: C_9  and  C_10
REMARK    3  A    between atoms: C_10  and  C_11
REMARK    4  A    between atoms: C_11  and  C_12
REMARK    5  A    between atoms: C_12  and  N_13
REMARK    6  A    between atoms: N_16  and  C_17
REMARK    7  A    between atoms: C_22  and  N_23
REMARK                            x       y       z     vdW  Elec       q    Type
REMARK                         _______ _______ _______ _____ _____    ______ ____
ROOT
ATOM      1  N   UNL     1       6.935   6.097  17.328  0.00  0.00    +0.000 NA
ATOM      2  C   UNL     1       6.693   4.771  17.948  0.00  0.00    +0.000 C 
ATOM      3  C   UNL     1       5.628   4.735  19.072  0.00  0.00    +0.000 C 
ATOM      4  N   UNL     1       4.387   5.334  18.561  0.00  0.00    +0.000 N 
ATOM      5  C   UNL     1       4.565   6.708  18.073  0.00  0.00    +0.000 C 
ATOM      6  C   UNL     1       5.630   6.695  16.945  0.00  0.00    +0.000 C 
ENDROOT
BRANCH   4   7
ATOM      7  C   UNL     1       3.191   4.881  19.077  0.00  0.00    +0.000 A 
ATOM      8  N   UNL     1       2.715   5.525  20.176  0.00  0.00    +0.000 NA
ATOM      9  C   UNL     1       1.594   5.071  20.789  0.00  0.00    +0.000 A 
ATOM     10  C   UNL     1       0.877   3.967  20.367  0.00  0.00    +0.000 A 
ATOM     11  C   UNL     1       1.336   3.299  19.245  0.00  0.00    +0.000 A 
ATOM     12  C   UNL     1       2.497   3.762  18.610  0.00  0.00    +0.000 A 
BRANCH  12  13
ATOM     13  N   UNL     1       2.997   2.970  17.515  0.00  0.00    +0.000 N 
ATOM     14  O   UNL     1       3.775   2.042  17.771  0.00  0.00    +0.000 OA
ATOM     15  O   UNL     1       2.574   3.257  16.385  0.00  0.00    +0.000 OA
ENDBRANCH  12  13
ENDBRANCH   4   7
BRANCH   1  16
ATOM     16  C   UNL     1       7.718   7.012  18.167  0.00  0.00    +0.000 C 
BRANCH  16  17
ATOM     17  C   UNL     1       7.837   8.443  17.616  0.00  0.00    +0.000 C 
BRANCH  17  18
ATOM     18  C   UNL     1       8.595   9.378  18.555  0.00  0.00    +0.000 C 
BRANCH  18  19
ATOM     19  C   UNL     1       9.429  10.413  17.789  0.00  0.00    +0.000 C 
BRANCH  19  27
ATOM     20  O   UNL     1      11.728  11.344  19.108  0.00  0.00    +0.000 OA
ATOM     21  C   UNL     1      10.660  11.935  19.262  0.00  0.00    +0.000 C 
ATOM     22  C   UNL     1      10.485  13.032  20.307  0.00  0.00    +0.000 C 
ATOM     23  O   UNL     1       9.786  14.170  19.835  0.00  0.00    +0.000 OA
ATOM     24  C   UNL     1       8.549  13.801  19.255  0.00  0.00    +0.000 C 
ATOM     25  C   UNL     1       8.635  12.687  18.214  0.00  0.00    +0.000 C 
ATOM     26  O   UNL     1       7.956  12.708  17.188  0.00  0.00    +0.000 OA
ATOM     27  N   UNL     1       9.502  11.655  18.551  0.00  0.00    +0.000 N 
ENDBRANCH  19  27
ENDBRANCH  18  19
ENDBRANCH  17  18
ENDBRANCH  16  17
ENDBRANCH   1  16
TORSDOF 7
ENDMDL
MODEL 6
REMARK VINA RESULT:      -7.4      1.705      1.994
REMARK  Name = 
REMARK  7 active torsions:
REMARK  status: ('A' for Active; 'I' for Inactive)
REMARK    1  A    between atoms: N_8  and  C_9
REMARK    2  A    between atoms: C_9  and  C_10
REMARK    3  A    between atoms: C_10  and  C_11
REMARK    4  A    between atoms: C_11  and  C_12
REMARK    5  A    between atoms: C_12  and  N_13
REMARK    6  A    between atoms: N_16  and  C_17
REMARK    7  A    between atoms: C_22  and  N_23
REMARK                            x       y       z     vdW  Elec       q    Type
REMARK                         _______ _______ _______ _____ _____    ______ ____
ROOT
ATOM      1  N   UNL     1       7.401   5.603  18.289  0.00  0.00    +0.000 NA
ATOM      2  C   UNL     1       6.599   5.411  19.523  0.00  0.00    +0.000 C 
ATOM      3  C   UNL     1       5.061   5.428  19.340  0.00  0.00    +0.000 C 
ATOM      4  N   UNL     1       4.702   4.455  18.298  0.00  0.00    +0.000 N 
ATOM      5  C   UNL     1       5.371   4.708  17.015  0.00  0.00    +0.000 C 
ATOM      6  C   UNL     1       6.904   4.672  17.244  0.00  0.00    +0.000 C 
ENDROOT
BRANCH   4   7
ATOM      7  C   UNL     1       3.470   3.844  18.384  0.00  0.00    +0.000 A 
ATOM      8  N   UNL     1       2.490   4.323  17.571  0.00  0.00    +0.000 NA
ATOM      9  C   UNL     1       1.231   3.830  17.672  0.00  0.00    +0.000 A 
ATOM     10  C   UNL     1       0.857   2.846  18.567  0.00  0.00    +0.000 A 
ATOM     11  C   UNL     1       1.838   2.334  19.400  0.00  0.00    +0.000 A 
ATOM     12  C   UNL     1       3.141   2.844  19.302  0.00  0.00    +0.000 A 
BRANCH  12  13
ATOM     13  N   UNL     1       4.099   2.360  20.263  0.00  0.00    +0.000 N 
ATOM     14  O   UNL     1       3.785   2.368  21.460  0.00  0.00    +0.000 OA
ATOM     15  O   UNL     1       5.170   1.928  19.809  0.00  0.00    +0.000 OA
ENDBRANCH  12  13
ENDBRANCH   4   7
BRANCH   1  16
ATOM     16  C   UNL     1       7.424   6.989  17.805  0.00  0.00    +0.000 C 
BRANCH  16  17
ATOM     17  C   UNL     1       8.424   7.904  18.530  0.00  0.00    +0.000 C 
BRANCH  17  18
ATOM     18  C   UNL     1       8.407   9.337  18.001  0.00  0.00    +0.000 C 
BRANCH  18  19
ATOM     19  C   UNL     1       8.736  10.359  19.095  0.00  0.00    +0.000 C 
BRANCH  19  27
ATOM     20  O   UNL     1       8.154  12.519  17.395  0.00  0.00    +0.000 OA
ATOM     21  C   UNL     1       9.325  12.259  17.665  0.00  0.00    +0.000 C 
ATOM     22  C   UNL     1      10.491  12.932  16.947  0.00  0.00    +0.000 C 
ATOM     23  O   UNL     1      11.533  13.351  17.809  0.00  0.00    +0.000 OA
ATOM     24  C   UNL     1      11.973  12.283  18.629  0.00  0.00    +0.000 C 
ATOM     25  C   UNL     1      10.861  11.539  19.365  0.00  0.00    +0.000 C 
ATOM     26  O   UNL     1      11.002  11.149  20.523  0.00  0.00    +0.000 OA
ATOM     27  N   UNL     1       9.720  11.316  18.603  0.00  0.00    +0.000 N 
ENDBRANCH  19  27
ENDBRANCH  18  19
ENDBRANCH  17  18
ENDBRANCH  16  17
ENDBRANCH   1  16
TORSDOF 7
ENDMDL
MODEL 7
REMARK VINA RESULT:      -7.4      1.057      1.971
REMARK  Name = 
REMARK  7 active torsions:
REMARK  status: ('A' for Active; 'I' for Inactive)
REMARK    1  A    between atoms: N_8  and  C_9
REMARK    2  A    between atoms: C_9  and  C_10
REMARK    3  A    between atoms: C_10  and  C_11
REMARK    4  A    between atoms: C_11  and  C_12
REMARK    5  A    between atoms: C_12  and  N_13
REMARK    6  A    between atoms: N_16  and  C_17
REMARK    7  A    between atoms: C_22  and  N_23
REMARK                            x       y       z     vdW  Elec       q    Type
REMARK                         _______ _______ _______ _____ _____    ______ ____
ROOT
ATOM      1  N   UNL     1       7.577   6.275  17.510  0.00  0.00    +0.000 NA
ATOM      2  C   UNL     1       7.182   5.641  18.793  0.00  0.00    +0.000 C 
ATOM      3  C   UNL     1       5.660   5.549  19.060  0.00  0.00    +0.000 C 
ATOM      4  N   UNL     1       5.020   4.896  17.909  0.00  0.00    +0.000 N 
ATOM      5  C   UNL     1       5.272   5.589  16.638  0.00  0.00    +0.000 C 
ATOM      6  C   UNL     1       6.804   5.650  16.407  0.00  0.00    +0.000 C 
ENDROOT
BRANCH   4   7
ATOM      7  C   UNL     1       3.877   4.160  18.137  0.00  0.00    +0.000 A 
ATOM      8  N   UNL     1       3.925   2.838  17.820  0.00  0.00    +0.000 NA
ATOM      9  C   UNL     1       2.808   2.079  17.931  0.00  0.00    +0.000 A 
ATOM     10  C   UNL     1       1.585   2.562  18.356  0.00  0.00    +0.000 A 
ATOM     11  C   UNL     1       1.511   3.902  18.694  0.00  0.00    +0.000 A 
ATOM     12  C   UNL     1       2.663   4.694  18.576  0.00  0.00    +0.000 A 
BRANCH  12  13
ATOM     13  N   UNL     1       2.509   6.103  18.832  0.00  0.00    +0.000 N 
ATOM     14  O   UNL     1       2.351   6.860  17.866  0.00  0.00    +0.000 OA
ATOM     15  O   UNL     1       2.508   6.454  20.022  0.00  0.00    +0.000 OA
ENDBRANCH  12  13
ENDBRANCH   4   7
BRANCH   1  16
ATOM     16  C   UNL     1       7.436   7.737  17.501  0.00  0.00    +0.000 C 
BRANCH  16  17
ATOM     17  C   UNL     1       8.504   8.488  18.312  0.00  0.00    +0.000 C 
BRANCH  17  18
ATOM     18  C   UNL     1       8.317  10.003  18.277  0.00  0.00    +0.000 C 
BRANCH  18  19
ATOM     19  C   UNL     1       9.655  10.751  18.327  0.00  0.00    +0.000 C 
BRANCH  19  27
ATOM     20  O   UNL     1      11.459  11.447  20.365  0.00  0.00    +0.000 OA
ATOM     21  C   UNL     1      10.421  12.091  20.229  0.00  0.00    +0.000 C 
ATOM     22  C   UNL     1       9.969  13.125  21.257  0.00  0.00    +0.000 C 
ATOM     23  O   UNL     1       9.498  14.333  20.687  0.00  0.00    +0.000 OA
ATOM     24  C   UNL     1       8.491  14.082  19.724  0.00  0.00    +0.000 C 
ATOM     25  C   UNL     1       8.856  13.036  18.672  0.00  0.00    +0.000 C 
ATOM     26  O   UNL     1       8.534  13.169  17.492  0.00  0.00    +0.000 OA
ATOM     27  N   UNL     1       9.534  11.932  19.174  0.00  0.00    +0.000 N 
ENDBRANCH  19  27
ENDBRANCH  18  19
ENDBRANCH  17  18
ENDBRANCH  16  17
ENDBRANCH   1  16
TORSDOF 7
ENDMDL
MODEL 8
REMARK VINA RESULT:      -7.3      1.898      2.800
REMARK  Name = 
REMARK  7 active torsions:
REMARK  status: ('A' for Active; 'I' for Inactive)
REMARK    1  A    between atoms: N_8  and  C_9
REMARK    2  A    between atoms: C_9  and  C_10
REMARK    3  A    between atoms: C_10  and  C_11
REMARK    4  A    between atoms: C_11  and  C_12
REMARK    5  A    between atoms: C_12  and  N_13
REMARK    6  A    between atoms: N_16  and  C_17
REMARK    7  A    between atoms: C_22  and  N_23
REMARK                            x       y       z     vdW  Elec       q    Type
REMARK                         _______ _______ _______ _____ _____    ______ ____
ROOT
ATOM      1  N   UNL     1       6.660   6.648  17.000  0.00  0.00    +0.000 NA
ATOM      2  C   UNL     1       6.807   5.641  18.080  0.00  0.00    +0.000 C 
ATOM      3  C   UNL     1       5.725   5.676  19.188  0.00  0.00    +0.000 C 
ATOM      4  N   UNL     1       4.401   5.606  18.553  0.00  0.00    +0.000 N 
ATOM      5  C   UNL     1       4.169   6.682  17.581  0.00  0.00    +0.000 C 
ATOM      6  C   UNL     1       5.266   6.604  16.488  0.00  0.00    +0.000 C 
ENDROOT
BRANCH   4   7
ATOM      7  C   UNL     1       3.377   5.011  19.259  0.00  0.00    +0.000 A 
ATOM      8  N   UNL     1       2.498   5.842  19.881  0.00  0.00    +0.000 NA
ATOM      9  C   UNL     1       1.525   5.323  20.669  0.00  0.00    +0.000 A 
ATOM     10  C   UNL     1       1.353   3.970  20.894  0.00  0.00    +0.000 A 
ATOM     11  C   UNL     1       2.229   3.102  20.265  0.00  0.00    +0.000 A 
ATOM     12  C   UNL     1       3.241   3.634  19.453  0.00  0.00    +0.000 A 
BRANCH  12  13
ATOM     13  N   UNL     1       4.195   2.700  18.910  0.00  0.00    +0.000 N 
ATOM     14  O   UNL     1       4.132   2.434  17.703  0.00  0.00    +0.000 OA
ATOM     15  O   UNL     1       5.046   2.257  19.696  0.00  0.00    +0.000 OA
ENDBRANCH  12  13
ENDBRANCH   4   7
BRANCH   1  16
ATOM     16  C   UNL     1       7.040   8.009  17.399  0.00  0.00    +0.000 C 
BRANCH  16  17
ATOM     17  C   UNL     1       8.391   8.108  18.128  0.00  0.00    +0.000 C 
BRANCH  17  18
ATOM     18  C   UNL     1       8.597   9.458  18.811  0.00  0.00    +0.000 C 
BRANCH  18  19
ATOM     19  C   UNL     1       9.408  10.426  17.942  0.00  0.00    +0.000 C 
BRANCH  19  27
ATOM     20  O   UNL     1      11.726  11.427  19.173  0.00  0.00    +0.000 OA
ATOM     21  C   UNL     1      10.668  12.044  19.281  0.00  0.00    +0.000 C 
ATOM     22  C   UNL     1      10.514  13.226  20.234  0.00  0.00    +0.000 C 
ATOM     23  O   UNL     1       9.831  14.332  19.672  0.00  0.00    +0.000 OA
ATOM     24  C   UNL     1       8.585  13.936  19.127  0.00  0.00    +0.000 C 
ATOM     25  C   UNL     1       8.650  12.739  18.181  0.00  0.00    +0.000 C 
ATOM     26  O   UNL     1       7.967  12.687  17.158  0.00  0.00    +0.000 OA
ATOM     27  N   UNL     1       9.503  11.725  18.598  0.00  0.00    +0.000 N 
ENDBRANCH  19  27
ENDBRANCH  18  19
ENDBRANCH  17  18
ENDBRANCH  16  17
ENDBRANCH   1  16
TORSDOF 7
ENDMDL
MODEL 9
REMARK VINA RESULT:      -7.3      0.651      1.702
REMARK  Name = 
REMARK  7 active torsions:
REMARK  status: ('A' for Active; 'I' for Inactive)
REMARK    1  A    between atoms: N_8  and  C_9
REMARK    2  A    between atoms: C_9  and  C_10
REMARK    3  A    between atoms: C_10  and  C_11
REMARK    4  A    between atoms: C_11  and  C_12
REMARK    5  A    between atoms: C_12  and  N_13
REMARK    6  A    between atoms: N_16  and  C_17
REMARK    7  A    between atoms: C_22  and  N_23
REMARK                            x       y       z     vdW  Elec       q    Type
REMARK                         _______ _______ _______ _____ _____    ______ ____
ROOT
ATOM      1  N   UNL     1       7.488   6.417  17.183  0.00  0.00    +0.000 NA
ATOM      2  C   UNL     1       7.257   5.620  18.414  0.00  0.00    +0.000 C 
ATOM      3  C   UNL     1       5.783   5.501  18.874  0.00  0.00    +0.000 C 
ATOM      4  N   UNL     1       4.978   5.010  17.747  0.00  0.00    +0.000 N 
ATOM      5  C   UNL     1       5.071   5.864  16.555  0.00  0.00    +0.000 C 
ATOM      6  C   UNL     1       6.558   5.948  16.125  0.00  0.00    +0.000 C 
ENDROOT
BRANCH   4   7
ATOM      7  C   UNL     1       3.860   4.256  18.032  0.00  0.00    +0.000 A 
ATOM      8  N   UNL     1       3.919   2.931  17.729  0.00  0.00    +0.000 NA
ATOM      9  C   UNL     1       2.823   2.153  17.896  0.00  0.00    +0.000 A 
ATOM     10  C   UNL     1       1.610   2.619  18.367  0.00  0.00    +0.000 A 
ATOM     11  C   UNL     1       1.524   3.962  18.692  0.00  0.00    +0.000 A 
ATOM     12  C   UNL     1       2.655   4.772  18.516  0.00  0.00    +0.000 A 
BRANCH  12  13
ATOM     13  N   UNL     1       2.486   6.182  18.762  0.00  0.00    +0.000 N 
ATOM     14  O   UNL     1       2.721   6.611  19.899  0.00  0.00    +0.000 OA
ATOM     15  O   UNL     1       2.152   6.878  17.791  0.00  0.00    +0.000 OA
ENDBRANCH  12  13
ENDBRANCH   4   7
BRANCH   1  16
ATOM     16  C   UNL     1       7.381   7.867  17.385  0.00  0.00    +0.000 C 
BRANCH  16  17
ATOM     17  C   UNL     1       8.426   8.459  18.346  0.00  0.00    +0.000 C 
BRANCH  17  18
ATOM     18  C   UNL     1       8.801   9.898  17.999  0.00  0.00    +0.000 C 
BRANCH  18  19
ATOM     19  C   UNL     1       9.113  10.729  19.249  0.00  0.00    +0.000 C 
BRANCH  19  27
ATOM     20  O   UNL     1      11.869  11.245  19.073  0.00  0.00    +0.000 OA
ATOM     21  C   UNL     1      11.070  12.171  18.941  0.00  0.00    +0.000 C 
ATOM     22  C   UNL     1      11.519  13.628  18.895  0.00  0.00    +0.000 C 
ATOM     23  O   UNL     1      10.887  14.392  17.884  0.00  0.00    +0.000 OA
ATOM     24  C   UNL     1       9.478  14.284  17.971  0.00  0.00    +0.000 C 
ATOM     25  C   UNL     1       8.948  12.854  18.049  0.00  0.00    +0.000 C 
ATOM     26  O   UNL     1       7.924  12.512  17.458  0.00  0.00    +0.000 OA
ATOM     27  N   UNL     1       9.694  12.010  18.863  0.00  0.00    +0.000 N 
ENDBRANCH  19  27
ENDBRANCH  18  19
ENDBRANCH  17  18
ENDBRANCH  16  17
ENDBRANCH   1  16
TORSDOF 7
ENDMDL
