MODEL 1
REMARK VINA RESULT:      -8.5      0.000      0.000
REMARK  Name = 
REMARK  9 active torsions:
REMARK  status: ('A' for Active; 'I' for Inactive)
REMARK    1  A    between atoms: C_2  and  C_5
REMARK    2  A    between atoms: N_3  and  O_4
REMARK    3  A    between atoms: C_5  and  C_6
REMARK    4  A    between atoms: C_5  and  C_20
REMARK    5  A    between atoms: C_6  and  C_7
REMARK    6  A    between atoms: C_11  and  O_12
REMARK    7  A    between atoms: O_12  and  C_13
REMARK    8  A    between atoms: N_22  and  C_23
REMARK    9  A    between atoms: C_23  and  C_24
REMARK                            x       y       z     vdW  Elec       q    Type
REMARK                         _______ _______ _______ _____ _____    ______ ____
ROOT
ATOM      1  C   UNL     1       4.796   6.463  17.532  0.00  0.00    +0.000 C 
ENDROOT
BRANCH   1   3
ATOM      2  O   UNL     1       5.235   6.926  15.165  0.00  0.00    +0.000 OA
ATOM      3  C   UNL     1       5.599   6.430  16.230  0.00  0.00    +0.000 C 
ATOM      4  N   UNL     1       6.840   5.825  16.340  0.00  0.00    +0.000 N 
ATOM      5  H   UNL     1       6.866   4.951  16.870  0.00  0.00    +0.000 HD
BRANCH   4   6
ATOM      6  O   UNL     1       7.538   5.761  15.101  0.00  0.00    +0.000 OA
ATOM      7  H   UNL     1       8.263   5.128  15.303  0.00  0.00    +0.000 HD
ENDBRANCH   4   6
ENDBRANCH   1   3
BRANCH   1   8
ATOM      8  C   UNL     1       4.866   5.109  18.238  0.00  0.00    +0.000 C 
ATOM      9  O   UNL     1       5.447   4.974  19.318  0.00  0.00    +0.000 OA
ATOM     10  N   UNL     1       4.183   4.059  17.668  0.00  0.00    +0.000 N 
ATOM     11  H   UNL     1       3.493   4.230  16.943  0.00  0.00    +0.000 HD
BRANCH  10  12
ATOM     12  C   UNL     1       4.101   2.791  18.380  0.00  0.00    +0.000 C 
BRANCH  12  13
ATOM     13  C   UNL     1       3.047   2.791  19.445  0.00  0.00    +0.000 A 
ATOM     14  C   UNL     1       3.364   2.545  20.784  0.00  0.00    +0.000 A 
ATOM     15  C   UNL     1       2.368   2.609  21.753  0.00  0.00    +0.000 A 
ATOM     16  C   UNL     1       1.081   2.922  21.352  0.00  0.00    +0.000 A 
ATOM     17  N   UNL     1       0.738   3.178  20.072  0.00  0.00    +0.000 NA
ATOM     18  C   UNL     1       1.727   3.117  19.152  0.00  0.00    +0.000 A 
ENDBRANCH  12  13
ENDBRANCH  10  12
ENDBRANCH   1   8
BRANCH   1  19
ATOM     19  C   UNL     1       3.340   6.865  17.265  0.00  0.00    +0.000 C 
BRANCH  19  20
ATOM     20  C   UNL     1       2.640   7.675  18.339  0.00  0.00    +0.000 A 
ATOM     21  C   UNL     1       2.363   7.163  19.612  0.00  0.00    +0.000 A 
ATOM     22  C   UNL     1       1.575   7.890  20.514  0.00  0.00    +0.000 A 
ATOM     23  C   UNL     1       1.007   9.107  20.135  0.00  0.00    +0.000 A 
ATOM     24  C   UNL     1       1.261   9.618  18.864  0.00  0.00    +0.000 A 
ATOM     25  C   UNL     1       2.143   8.945  18.012  0.00  0.00    +0.000 A 
BRANCH  24  26
ATOM     26  O   UNL     1       0.606  10.778  18.506  0.00  0.00    +0.000 OA
BRANCH  26  27
ATOM     27  C   UNL     1      -0.760  10.726  18.292  0.00  0.00    +0.000 A 
ATOM     28  C   UNL     1      -1.386   9.822  17.425  0.00  0.00    +0.000 A 
ATOM     29  C   UNL     1      -2.756   9.910  17.180  0.00  0.00    +0.000 A 
ATOM     30  C   UNL     1      -3.522  10.849  17.863  0.00  0.00    +0.000 A 
ATOM     31  C   UNL     1      -2.921  11.692  18.799  0.00  0.00    +0.000 A 
ATOM     32  C   UNL     1      -1.540  11.634  19.011  0.00  0.00    +0.000 A 
ENDBRANCH  26  27
ENDBRANCH  24  26
ENDBRANCH  19  20
ENDBRANCH   1  19
TORSDOF 9
ENDMDL
MODEL 2
REMARK VINA RESULT:      -8.4      1.216      1.724
REMARK  Name = 
REMARK  9 active torsions:
REMARK  status: ('A' for Active; 'I' for Inactive)
REMARK    1  A    between atoms: C_2  and  C_5
REMARK    2  A    between atoms: N_3  and  O_4
REMARK    3  A    between atoms: C_5  and  C_6
REMARK    4  A    between atoms: C_5  and  C_20
REMARK    5  A    between atoms: C_6  and  C_7
REMARK    6  A    between atoms: C_11  and  O_12
REMARK    7  A    between atoms: O_12  and  C_13
REMARK    8  A    between atoms: N_22  and  C_23
REMARK    9  A    between atoms: C_23  and  C_24
REMARK                            x       y       z     vdW  Elec       q    Type
REMARK                         _______ _______ _______ _____ _____    ______ ____
ROOT
ATOM      1  C   UNL     1       5.975   5.692  17.597  0.00  0.00    +0.000 C 
ENDROOT
BRANCH   1   3
ATOM      2  O   UNL     1       7.817   4.385  16.642  0.00  0.00    +0.000 OA
ATOM      3  C   UNL     1       6.934   5.230  16.498  0.00  0.00    +0.000 C 
ATOM      4  N   UNL     1       6.706   5.808  15.260  0.00  0.00    +0.000 N 
ATOM      5  H   UNL     1       6.527   6.815  15.263  0.00  0.00    +0.000 HD
BRANCH   4   6
ATOM      6  O   UNL     1       7.648   5.401  14.274  0.00  0.00    +0.000 OA
ATOM      7  H   UNL     1       7.545   6.096  13.587  0.00  0.00    +0.000 HD
ENDBRANCH   4   6
ENDBRANCH   1   3
BRANCH   1   8
ATOM      8  C   UNL     1       5.808   4.599  18.654  0.00  0.00    +0.000 C 
ATOM      9  O   UNL     1       6.270   4.727  19.792  0.00  0.00    +0.000 OA
ATOM     10  N   UNL     1       5.048   3.503  18.320  0.00  0.00    +0.000 N 
ATOM     11  H   UNL     1       4.452   3.525  17.499  0.00  0.00    +0.000 HD
BRANCH  10  12
ATOM     12  C   UNL     1       4.739   2.510  19.340  0.00  0.00    +0.000 C 
BRANCH  12  13
ATOM     13  C   UNL     1       3.382   2.700  19.943  0.00  0.00    +0.000 A 
ATOM     14  C   UNL     1       2.258   2.947  19.149  0.00  0.00    +0.000 A 
ATOM     15  C   UNL     1       1.004   3.064  19.740  0.00  0.00    +0.000 A 
ATOM     16  C   UNL     1       0.912   2.925  21.114  0.00  0.00    +0.000 A 
ATOM     17  N   UNL     1       1.970   2.674  21.914  0.00  0.00    +0.000 NA
ATOM     18  C   UNL     1       3.175   2.557  21.312  0.00  0.00    +0.000 A 
ENDBRANCH  12  13
ENDBRANCH  10  12
ENDBRANCH   1   8
BRANCH   1  19
ATOM     19  C   UNL     1       4.618   6.092  17.005  0.00  0.00    +0.000 C 
BRANCH  19  20
ATOM     20  C   UNL     1       3.687   6.893  17.894  0.00  0.00    +0.000 A 
ATOM     21  C   UNL     1       3.135   6.377  19.072  0.00  0.00    +0.000 A 
ATOM     22  C   UNL     1       2.158   7.095  19.773  0.00  0.00    +0.000 A 
ATOM     23  C   UNL     1       1.680   8.308  19.276  0.00  0.00    +0.000 A 
ATOM     24  C   UNL     1       2.209   8.824  18.095  0.00  0.00    +0.000 A 
ATOM     25  C   UNL     1       3.266   8.160  17.464  0.00  0.00    +0.000 A 
BRANCH  24  26
ATOM     26  O   UNL     1       1.641   9.979  17.599  0.00  0.00    +0.000 OA
BRANCH  26  27
ATOM     27  C   UNL     1       0.447  10.416  18.144  0.00  0.00    +0.000 A 
ATOM     28  C   UNL     1      -0.810   9.907  17.791  0.00  0.00    +0.000 A 
ATOM     29  C   UNL     1      -1.973  10.480  18.304  0.00  0.00    +0.000 A 
ATOM     30  C   UNL     1      -1.885  11.509  19.236  0.00  0.00    +0.000 A 
ATOM     31  C   UNL     1      -0.634  11.958  19.663  0.00  0.00    +0.000 A 
ATOM     32  C   UNL     1       0.531  11.415  19.115  0.00  0.00    +0.000 A 
ENDBRANCH  26  27
ENDBRANCH  24  26
ENDBRANCH  19  20
ENDBRANCH   1  19
TORSDOF 9
ENDMDL
MODEL 3
REMARK VINA RESULT:      -8.2      0.704      1.337
REMARK  Name = 
REMARK  9 active torsions:
REMARK  status: ('A' for Active; 'I' for Inactive)
REMARK    1  A    between atoms: C_2  and  C_5
REMARK    2  A    between atoms: N_3  and  O_4
REMARK    3  A    between atoms: C_5  and  C_6
REMARK    4  A    between atoms: C_5  and  C_20
REMARK    5  A    between atoms: C_6  and  C_7
REMARK    6  A    between atoms: C_11  and  O_12
REMARK    7  A    between atoms: O_12  and  C_13
REMARK    8  A    between atoms: N_22  and  C_23
REMARK    9  A    between atoms: C_23  and  C_24
REMARK                            x       y       z     vdW  Elec       q    Type
REMARK                         _______ _______ _______ _____ _____    ______ ____
ROOT
ATOM      1  C   UNL     1       4.990   6.376  17.291  0.00  0.00    +0.000 C 
ENDROOT
BRANCH   1   3
ATOM      2  O   UNL     1       5.328   6.701  14.885  0.00  0.00    +0.000 OA
ATOM      3  C   UNL     1       5.742   6.277  15.963  0.00  0.00    +0.000 C 
ATOM      4  N   UNL     1       6.998   5.700  16.059  0.00  0.00    +0.000 N 
ATOM      5  H   UNL     1       7.061   4.860  16.639  0.00  0.00    +0.000 HD
BRANCH   4   6
ATOM      6  O   UNL     1       7.649   5.572  14.800  0.00  0.00    +0.000 OA
ATOM      7  H   UNL     1       7.274   6.326  14.293  0.00  0.00    +0.000 HD
ENDBRANCH   4   6
ENDBRANCH   1   3
BRANCH   1   8
ATOM      8  C   UNL     1       4.934   5.010  17.977  0.00  0.00    +0.000 C 
ATOM      9  O   UNL     1       5.581   4.776  19.002  0.00  0.00    +0.000 OA
ATOM     10  N   UNL     1       4.069   4.074  17.460  0.00  0.00    +0.000 N 
ATOM     11  H   UNL     1       3.350   4.352  16.799  0.00  0.00    +0.000 HD
BRANCH  10  12
ATOM     12  C   UNL     1       3.873   2.814  18.164  0.00  0.00    +0.000 C 
BRANCH  12  13
ATOM     13  C   UNL     1       2.994   2.954  19.369  0.00  0.00    +0.000 A 
ATOM     14  C   UNL     1       1.664   3.368  19.257  0.00  0.00    +0.000 A 
ATOM     15  C   UNL     1       0.861   3.433  20.392  0.00  0.00    +0.000 A 
ATOM     16  C   UNL     1       1.416   3.076  21.609  0.00  0.00    +0.000 A 
ATOM     17  N   UNL     1       2.692   2.660  21.756  0.00  0.00    +0.000 NA
ATOM     18  C   UNL     1       3.447   2.599  20.636  0.00  0.00    +0.000 A 
ENDBRANCH  12  13
ENDBRANCH  10  12
ENDBRANCH   1   8
BRANCH   1  19
ATOM     19  C   UNL     1       3.579   6.939  17.080  0.00  0.00    +0.000 C 
BRANCH  19  20
ATOM     20  C   UNL     1       2.882   7.527  18.290  0.00  0.00    +0.000 A 
ATOM     21  C   UNL     1       2.534   6.761  19.410  0.00  0.00    +0.000 A 
ATOM     22  C   UNL     1       1.752   7.313  20.432  0.00  0.00    +0.000 A 
ATOM     23  C   UNL     1       1.260   8.614  20.322  0.00  0.00    +0.000 A 
ATOM     24  C   UNL     1       1.584   9.380  19.205  0.00  0.00    +0.000 A 
ATOM     25  C   UNL     1       2.462   8.864  18.245  0.00  0.00    +0.000 A 
BRANCH  24  26
ATOM     26  O   UNL     1       1.002  10.626  19.100  0.00  0.00    +0.000 OA
BRANCH  26  27
ATOM     27  C   UNL     1      -0.262  10.721  18.544  0.00  0.00    +0.000 A 
ATOM     28  C   UNL     1      -1.139  11.790  18.766  0.00  0.00    +0.000 A 
ATOM     29  C   UNL     1      -2.438  11.754  18.259  0.00  0.00    +0.000 A 
ATOM     30  C   UNL     1      -2.840  10.689  17.459  0.00  0.00    +0.000 A 
ATOM     31  C   UNL     1      -1.940   9.666  17.157  0.00  0.00    +0.000 A 
ATOM     32  C   UNL     1      -0.653   9.679  17.702  0.00  0.00    +0.000 A 
ENDBRANCH  26  27
ENDBRANCH  24  26
ENDBRANCH  19  20
ENDBRANCH   1  19
TORSDOF 9
ENDMDL
MODEL 4
REMARK VINA RESULT:      -8.2      1.893      2.676
REMARK  Name = 
REMARK  9 active torsions:
REMARK  status: ('A' for Active; 'I' for Inactive)
REMARK    1  A    between atoms: C_2  and  C_5
REMARK    2  A    between atoms: N_3  and  O_4
REMARK    3  A    between atoms: C_5  and  C_6
REMARK    4  A    between atoms: C_5  and  C_20
REMARK    5  A    between atoms: C_6  and  C_7
REMARK    6  A    between atoms: C_11  and  O_12
REMARK    7  A    between atoms: O_12  and  C_13
REMARK    8  A    between atoms: N_22  and  C_23
REMARK    9  A    between atoms: C_23  and  C_24
REMARK                            x       y       z     vdW  Elec       q    Type
REMARK                         _______ _______ _______ _____ _____    ______ ____
ROOT
ATOM      1  C   UNL     1       4.792   6.514  17.528  0.00  0.00    +0.000 C 
ENDROOT
BRANCH   1   3
ATOM      2  O   UNL     1       5.157   6.894  15.134  0.00  0.00    +0.000 OA
ATOM      3  C   UNL     1       5.562   6.451  16.209  0.00  0.00    +0.000 C 
ATOM      4  N   UNL     1       6.823   5.886  16.309  0.00  0.00    +0.000 N 
ATOM      5  H   UNL     1       6.888   5.035  16.872  0.00  0.00    +0.000 HD
BRANCH   4   6
ATOM      6  O   UNL     1       7.491   5.791  15.056  0.00  0.00    +0.000 OA
ATOM      7  H   UNL     1       6.746   5.633  14.433  0.00  0.00    +0.000 HD
ENDBRANCH   4   6
ENDBRANCH   1   3
BRANCH   1   8
ATOM      8  C   UNL     1       4.890   5.179  18.268  0.00  0.00    +0.000 C 
ATOM      9  O   UNL     1       5.534   5.068  19.315  0.00  0.00    +0.000 OA
ATOM     10  N   UNL     1       4.161   4.123  17.773  0.00  0.00    +0.000 N 
ATOM     11  H   UNL     1       3.430   4.283  17.086  0.00  0.00    +0.000 HD
BRANCH  10  12
ATOM     12  C   UNL     1       4.107   2.877  18.525  0.00  0.00    +0.000 C 
BRANCH  12  13
ATOM     13  C   UNL     1       3.117   2.920  19.647  0.00  0.00    +0.000 A 
ATOM     14  C   UNL     1       1.792   3.312  19.437  0.00  0.00    +0.000 A 
ATOM     15  C   UNL     1       0.886   3.287  20.493  0.00  0.00    +0.000 A 
ATOM     16  C   UNL     1       1.335   2.863  21.732  0.00  0.00    +0.000 A 
ATOM     17  N   UNL     1       2.602   2.465  21.972  0.00  0.00    +0.000 NA
ATOM     18  C   UNL     1       3.459   2.492  20.926  0.00  0.00    +0.000 A 
ENDBRANCH  12  13
ENDBRANCH  10  12
ENDBRANCH   1   8
BRANCH   1  19
ATOM     19  C   UNL     1       3.327   6.900  17.288  0.00  0.00    +0.000 C 
BRANCH  19  20
ATOM     20  C   UNL     1       2.637   7.701  18.375  0.00  0.00    +0.000 A 
ATOM     21  C   UNL     1       2.289   7.152  19.614  0.00  0.00    +0.000 A 
ATOM     22  C   UNL     1       1.513   7.884  20.522  0.00  0.00    +0.000 A 
ATOM     23  C   UNL     1       1.028   9.147  20.180  0.00  0.00    +0.000 A 
ATOM     24  C   UNL     1       1.353   9.697  18.943  0.00  0.00    +0.000 A 
ATOM     25  C   UNL     1       2.224   9.011  18.090  0.00  0.00    +0.000 A 
BRANCH  24  26
ATOM     26  O   UNL     1       0.777  10.907  18.616  0.00  0.00    +0.000 OA
BRANCH  26  27
ATOM     27  C   UNL     1       1.370  12.068  19.082  0.00  0.00    +0.000 A 
ATOM     28  C   UNL     1       1.395  12.451  20.429  0.00  0.00    +0.000 A 
ATOM     29  C   UNL     1       1.914  13.691  20.801  0.00  0.00    +0.000 A 
ATOM     30  C   UNL     1       2.486  14.519  19.839  0.00  0.00    +0.000 A 
ATOM     31  C   UNL     1       2.548  14.103  18.509  0.00  0.00    +0.000 A 
ATOM     32  C   UNL     1       1.987  12.880  18.129  0.00  0.00    +0.000 A 
ENDBRANCH  26  27
ENDBRANCH  24  26
ENDBRANCH  19  20
ENDBRANCH   1  19
TORSDOF 9
ENDMDL
MODEL 5
REMARK VINA RESULT:      -8.1      1.397      2.080
REMARK  Name = 
REMARK  9 active torsions:
REMARK  status: ('A' for Active; 'I' for Inactive)
REMARK    1  A    between atoms: C_2  and  C_5
REMARK    2  A    between atoms: N_3  and  O_4
REMARK    3  A    between atoms: C_5  and  C_6
REMARK    4  A    between atoms: C_5  and  C_20
REMARK    5  A    between atoms: C_6  and  C_7
REMARK    6  A    between atoms: C_11  and  O_12
REMARK    7  A    between atoms: O_12  and  C_13
REMARK    8  A    between atoms: N_22  and  C_23
REMARK    9  A    between atoms: C_23  and  C_24
REMARK                            x       y       z     vdW  Elec       q    Type
REMARK                         _______ _______ _______ _____ _____    ______ ____
ROOT
ATOM      1  C   UNL     1       5.430   6.244  17.768  0.00  0.00    +0.000 C 
ENDROOT
BRANCH   1   3
ATOM      2  O   UNL     1       7.352   7.273  16.648  0.00  0.00    +0.000 OA
ATOM      3  C   UNL     1       6.554   6.340  16.736  0.00  0.00    +0.000 C 
ATOM      4  N   UNL     1       6.658   5.242  15.899  0.00  0.00    +0.000 N 
ATOM      5  H   UNL     1       5.777   4.879  15.526  0.00  0.00    +0.000 HD
BRANCH   4   6
ATOM      6  O   UNL     1       7.676   5.386  14.915  0.00  0.00    +0.000 OA
ATOM      7  H   UNL     1       7.926   4.453  14.734  0.00  0.00    +0.000 HD
ENDBRANCH   4   6
ENDBRANCH   1   3
BRANCH   1   8
ATOM      8  C   UNL     1       5.244   4.795  18.222  0.00  0.00    +0.000 C 
ATOM      9  O   UNL     1       6.007   4.273  19.040  0.00  0.00    +0.000 OA
ATOM     10  N   UNL     1       4.143   4.118  17.752  0.00  0.00    +0.000 N 
ATOM     11  H   UNL     1       3.383   4.624  17.308  0.00  0.00    +0.000 HD
BRANCH  10  12
ATOM     12  C   UNL     1       3.845   2.790  18.271  0.00  0.00    +0.000 C 
BRANCH  12  13
ATOM     13  C   UNL     1       2.973   2.825  19.488  0.00  0.00    +0.000 A 
ATOM     14  C   UNL     1       1.618   3.158  19.405  0.00  0.00    +0.000 A 
ATOM     15  C   UNL     1       0.827   3.126  20.549  0.00  0.00    +0.000 A 
ATOM     16  C   UNL     1       1.417   2.755  21.745  0.00  0.00    +0.000 A 
ATOM     17  N   UNL     1       2.718   2.414  21.863  0.00  0.00    +0.000 NA
ATOM     18  C   UNL     1       3.462   2.447  20.735  0.00  0.00    +0.000 A 
ENDBRANCH  12  13
ENDBRANCH  10  12
ENDBRANCH   1   8
BRANCH   1  19
ATOM     19  C   UNL     1       4.122   6.812  17.206  0.00  0.00    +0.000 C 
BRANCH  19  20
ATOM     20  C   UNL     1       3.178   7.476  18.190  0.00  0.00    +0.000 A 
ATOM     21  C   UNL     1       2.828   6.892  19.413  0.00  0.00    +0.000 A 
ATOM     22  C   UNL     1       1.832   7.466  20.215  0.00  0.00    +0.000 A 
ATOM     23  C   UNL     1       1.136   8.594  19.778  0.00  0.00    +0.000 A 
ATOM     24  C   UNL     1       1.464   9.173  18.554  0.00  0.00    +0.000 A 
ATOM     25  C   UNL     1       2.537   8.665  17.815  0.00  0.00    +0.000 A 
BRANCH  24  26
ATOM     26  O   UNL     1       0.688  10.231  18.127  0.00  0.00    +0.000 OA
BRANCH  26  27
ATOM     27  C   UNL     1       0.450  11.274  19.005  0.00  0.00    +0.000 A 
ATOM     28  C   UNL     1       1.450  12.097  19.537  0.00  0.00    +0.000 A 
ATOM     29  C   UNL     1       1.140  13.053  20.504  0.00  0.00    +0.000 A 
ATOM     30  C   UNL     1      -0.185  13.248  20.883  0.00  0.00    +0.000 A 
ATOM     31  C   UNL     1      -1.199  12.495  20.288  0.00  0.00    +0.000 A 
ATOM     32  C   UNL     1      -0.882  11.505  19.353  0.00  0.00    +0.000 A 
ENDBRANCH  26  27
ENDBRANCH  24  26
ENDBRANCH  19  20
ENDBRANCH   1  19
TORSDOF 9
ENDMDL
MODEL 6
REMARK VINA RESULT:      -8.1      2.022      2.559
REMARK  Name = 
REMARK  9 active torsions:
REMARK  status: ('A' for Active; 'I' for Inactive)
REMARK    1  A    between atoms: C_2  and  C_5
REMARK    2  A    between atoms: N_3  and  O_4
REMARK    3  A    between atoms: C_5  and  C_6
REMARK    4  A    between atoms: C_5  and  C_20
REMARK    5  A    between atoms: C_6  and  C_7
REMARK    6  A    between atoms: C_11  and  O_12
REMARK    7  A    between atoms: O_12  and  C_13
REMARK    8  A    between atoms: N_22  and  C_23
REMARK    9  A    between atoms: C_23  and  C_24
REMARK                            x       y       z     vdW  Elec       q    Type
REMARK                         _______ _______ _______ _____ _____    ______ ____
ROOT
ATOM      1  C   UNL     1       6.100   5.694  17.646  0.00  0.00    +0.000 C 
ENDROOT
BRANCH   1   3
ATOM      2  O   UNL     1       7.943   4.333  16.775  0.00  0.00    +0.000 OA
ATOM      3  C   UNL     1       7.100   5.210  16.594  0.00  0.00    +0.000 C 
ATOM      4  N   UNL     1       6.959   5.808  15.353  0.00  0.00    +0.000 N 
ATOM      5  H   UNL     1       6.816   6.821  15.358  0.00  0.00    +0.000 HD
BRANCH   4   6
ATOM      6  O   UNL     1       7.938   5.378  14.414  0.00  0.00    +0.000 OA
ATOM      7  H   UNL     1       8.125   4.460  14.713  0.00  0.00    +0.000 HD
ENDBRANCH   4   6
ENDBRANCH   1   3
BRANCH   1   8
ATOM      8  C   UNL     1       5.840   4.599  18.681  0.00  0.00    +0.000 C 
ATOM      9  O   UNL     1       6.230   4.709  19.847  0.00  0.00    +0.000 OA
ATOM     10  N   UNL     1       5.079   3.523  18.290  0.00  0.00    +0.000 N 
ATOM     11  H   UNL     1       4.539   3.563  17.431  0.00  0.00    +0.000 HD
BRANCH  10  12
ATOM     12  C   UNL     1       4.684   2.530  19.279  0.00  0.00    +0.000 C 
BRANCH  12  13
ATOM     13  C   UNL     1       3.247   2.656  19.684  0.00  0.00    +0.000 A 
ATOM     14  C   UNL     1       2.882   2.913  21.009  0.00  0.00    +0.000 A 
ATOM     15  C   UNL     1       1.540   3.078  21.337  0.00  0.00    +0.000 A 
ATOM     16  C   UNL     1       0.600   2.985  20.325  0.00  0.00    +0.000 A 
ATOM     17  N   UNL     1       0.914   2.751  19.032  0.00  0.00    +0.000 NA
ATOM     18  C   UNL     1       2.226   2.602  18.740  0.00  0.00    +0.000 A 
ENDBRANCH  12  13
ENDBRANCH  10  12
ENDBRANCH   1   8
BRANCH   1  19
ATOM     19  C   UNL     1       4.791   6.146  16.987  0.00  0.00    +0.000 C 
BRANCH  19  20
ATOM     20  C   UNL     1       3.797   6.885  17.862  0.00  0.00    +0.000 A 
ATOM     21  C   UNL     1       3.206   6.305  18.991  0.00  0.00    +0.000 A 
ATOM     22  C   UNL     1       2.178   6.968  19.674  0.00  0.00    +0.000 A 
ATOM     23  C   UNL     1       1.689   8.188  19.204  0.00  0.00    +0.000 A 
ATOM     24  C   UNL     1       2.258   8.766  18.071  0.00  0.00    +0.000 A 
ATOM     25  C   UNL     1       3.361   8.157  17.465  0.00  0.00    +0.000 A 
BRANCH  24  26
ATOM     26  O   UNL     1       1.682   9.926  17.596  0.00  0.00    +0.000 OA
BRANCH  26  27
ATOM     27  C   UNL     1       1.708  11.054  18.397  0.00  0.00    +0.000 A 
ATOM     28  C   UNL     1       0.988  11.185  19.592  0.00  0.00    +0.000 A 
ATOM     29  C   UNL     1       0.980  12.396  20.282  0.00  0.00    +0.000 A 
ATOM     30  C   UNL     1       1.758  13.457  19.828  0.00  0.00    +0.000 A 
ATOM     31  C   UNL     1       2.551  13.303  18.690  0.00  0.00    +0.000 A 
ATOM     32  C   UNL     1       2.523  12.104  17.973  0.00  0.00    +0.000 A 
ENDBRANCH  26  27
ENDBRANCH  24  26
ENDBRANCH  19  20
ENDBRANCH   1  19
TORSDOF 9
ENDMDL
MODEL 7
REMARK VINA RESULT:      -8.0      1.355      1.913
REMARK  Name = 
REMARK  9 active torsions:
REMARK  status: ('A' for Active; 'I' for Inactive)
REMARK    1  A    between atoms: C_2  and  C_5
REMARK    2  A    between atoms: N_3  and  O_4
REMARK    3  A    between atoms: C_5  and  C_6
REMARK    4  A    between atoms: C_5  and  C_20
REMARK    5  A    between atoms: C_6  and  C_7
REMARK    6  A    between atoms: C_11  and  O_12
REMARK    7  A    between atoms: O_12  and  C_13
REMARK    8  A    between atoms: N_22  and  C_23
REMARK    9  A    between atoms: C_23  and  C_24
REMARK                            x       y       z     vdW  Elec       q    Type
REMARK                         _______ _______ _______ _____ _____    ______ ____
ROOT
ATOM      1  C   UNL     1       5.230   5.705  17.235  0.00  0.00    +0.000 C 
ENDROOT
BRANCH   1   3
ATOM      2  O   UNL     1       5.446   4.722  15.000  0.00  0.00    +0.000 OA
ATOM      3  C   UNL     1       5.948   5.347  15.933  0.00  0.00    +0.000 C 
ATOM      4  N   UNL     1       7.241   5.835  15.841  0.00  0.00    +0.000 N 
ATOM      5  H   UNL     1       7.819   5.732  16.679  0.00  0.00    +0.000 HD
BRANCH   4   6
ATOM      6  O   UNL     1       7.901   5.438  14.644  0.00  0.00    +0.000 OA
ATOM      7  H   UNL     1       7.157   5.382  14.004  0.00  0.00    +0.000 HD
ENDBRANCH   4   6
ENDBRANCH   1   3
BRANCH   1   8
ATOM      8  C   UNL     1       5.224   4.509  18.189  0.00  0.00    +0.000 C 
ATOM      9  O   UNL     1       5.814   4.546  19.272  0.00  0.00    +0.000 OA
ATOM     10  N   UNL     1       4.465   3.418  17.835  0.00  0.00    +0.000 N 
ATOM     11  H   UNL     1       3.775   3.494  17.094  0.00  0.00    +0.000 HD
BRANCH  10  12
ATOM     12  C   UNL     1       4.312   2.318  18.778  0.00  0.00    +0.000 C 
BRANCH  12  13
ATOM     13  C   UNL     1       3.221   2.557  19.776  0.00  0.00    +0.000 A 
ATOM     14  C   UNL     1       1.922   2.882  19.373  0.00  0.00    +0.000 A 
ATOM     15  C   UNL     1       0.922   3.043  20.327  0.00  0.00    +0.000 A 
ATOM     16  C   UNL     1       1.252   2.869  21.660  0.00  0.00    +0.000 A 
ATOM     17  N   UNL     1       2.491   2.543  22.087  0.00  0.00    +0.000 NA
ATOM     18  C   UNL     1       3.441   2.385  21.139  0.00  0.00    +0.000 A 
ENDBRANCH  12  13
ENDBRANCH  10  12
ENDBRANCH   1   8
BRANCH   1  19
ATOM     19  C   UNL     1       3.801   6.188  16.956  0.00  0.00    +0.000 C 
BRANCH  19  20
ATOM     20  C   UNL     1       3.130   7.017  18.034  0.00  0.00    +0.000 A 
ATOM     21  C   UNL     1       2.758   6.486  19.275  0.00  0.00    +0.000 A 
ATOM     22  C   UNL     1       2.000   7.247  20.174  0.00  0.00    +0.000 A 
ATOM     23  C   UNL     1       1.555   8.522  19.821  0.00  0.00    +0.000 A 
ATOM     24  C   UNL     1       1.904   9.054  18.582  0.00  0.00    +0.000 A 
ATOM     25  C   UNL     1       2.759   8.337  17.739  0.00  0.00    +0.000 A 
BRANCH  24  26
ATOM     26  O   UNL     1       1.367  10.280  18.245  0.00  0.00    +0.000 OA
BRANCH  26  27
ATOM     27  C   UNL     1       0.580  10.935  19.176  0.00  0.00    +0.000 A 
ATOM     28  C   UNL     1      -0.814  10.825  19.241  0.00  0.00    +0.000 A 
ATOM     29  C   UNL     1      -1.543  11.607  20.137  0.00  0.00    +0.000 A 
ATOM     30  C   UNL     1      -0.876  12.440  21.030  0.00  0.00    +0.000 A 
ATOM     31  C   UNL     1       0.519  12.484  21.034  0.00  0.00    +0.000 A 
ATOM     32  C   UNL     1       1.247  11.735  20.105  0.00  0.00    +0.000 A 
ENDBRANCH  26  27
ENDBRANCH  24  26
ENDBRANCH  19  20
ENDBRANCH   1  19
TORSDOF 9
ENDMDL
MODEL 8
REMARK VINA RESULT:      -7.9      2.026      2.660
REMARK  Name = 
REMARK  9 active torsions:
REMARK  status: ('A' for Active; 'I' for Inactive)
REMARK    1  A    between atoms: C_2  and  C_5
REMARK    2  A    between atoms: N_3  and  O_4
REMARK    3  A    between atoms: C_5  and  C_6
REMARK    4  A    between atoms: C_5  and  C_20
REMARK    5  A    between atoms: C_6  and  C_7
REMARK    6  A    between atoms: C_11  and  O_12
REMARK    7  A    between atoms: O_12  and  C_13
REMARK    8  A    between atoms: N_22  and  C_23
REMARK    9  A    between atoms: C_23  and  C_24
REMARK                            x       y       z     vdW  Elec       q    Type
REMARK                         _______ _______ _______ _____ _____    ______ ____
ROOT
ATOM      1  C   UNL     1       5.560   5.448  17.262  0.00  0.00    +0.000 C 
ENDROOT
BRANCH   1   3
ATOM      2  O   UNL     1       7.420   5.712  15.688  0.00  0.00    +0.000 OA
ATOM      3  C   UNL     1       6.396   5.119  16.024  0.00  0.00    +0.000 C 
ATOM      4  N   UNL     1       5.939   4.032  15.298  0.00  0.00    +0.000 N 
ATOM      5  H   UNL     1       4.929   3.990  15.143  0.00  0.00    +0.000 HD
BRANCH   4   6
ATOM      6  O   UNL     1       6.705   3.786  14.123  0.00  0.00    +0.000 OA
ATOM      7  H   UNL     1       7.212   4.623  14.026  0.00  0.00    +0.000 HD
ENDBRANCH   4   6
ENDBRANCH   1   3
BRANCH   1   8
ATOM      8  C   UNL     1       5.361   4.198  18.120  0.00  0.00    +0.000 C 
ATOM      9  O   UNL     1       5.963   4.047  19.188  0.00  0.00    +0.000 OA
ATOM     10  N   UNL     1       4.421   3.284  17.705  0.00  0.00    +0.000 N 
ATOM     11  H   UNL     1       3.745   3.535  16.990  0.00  0.00    +0.000 HD
BRANCH  10  12
ATOM     12  C   UNL     1       4.094   2.154  18.564  0.00  0.00    +0.000 C 
BRANCH  12  13
ATOM     13  C   UNL     1       3.089   2.501  19.620  0.00  0.00    +0.000 A 
ATOM     14  C   UNL     1       1.779   2.861  19.290  0.00  0.00    +0.000 A 
ATOM     15  C   UNL     1       0.859   3.123  20.300  0.00  0.00    +0.000 A 
ATOM     16  C   UNL     1       1.278   3.011  21.615  0.00  0.00    +0.000 A 
ATOM     17  N   UNL     1       2.530   2.654  21.973  0.00  0.00    +0.000 NA
ATOM     18  C   UNL     1       3.402   2.398  20.972  0.00  0.00    +0.000 A 
ENDBRANCH  12  13
ENDBRANCH  10  12
ENDBRANCH   1   8
BRANCH   1  19
ATOM     19  C   UNL     1       4.210   6.057  16.863  0.00  0.00    +0.000 C 
BRANCH  19  20
ATOM     20  C   UNL     1       3.438   6.792  17.941  0.00  0.00    +0.000 A 
ATOM     21  C   UNL     1       3.207   6.248  19.210  0.00  0.00    +0.000 A 
ATOM     22  C   UNL     1       2.356   6.895  20.116  0.00  0.00    +0.000 A 
ATOM     23  C   UNL     1       1.683   8.060  19.745  0.00  0.00    +0.000 A 
ATOM     24  C   UNL     1       1.892   8.601  18.479  0.00  0.00    +0.000 A 
ATOM     25  C   UNL     1       2.832   8.016  17.624  0.00  0.00    +0.000 A 
BRANCH  24  26
ATOM     26  O   UNL     1       1.137   9.701  18.128  0.00  0.00    +0.000 OA
BRANCH  26  27
ATOM     27  C   UNL     1       1.459  10.928  18.682  0.00  0.00    +0.000 A 
ATOM     28  C   UNL     1       0.937  11.406  19.890  0.00  0.00    +0.000 A 
ATOM     29  C   UNL     1       1.225  12.700  20.322  0.00  0.00    +0.000 A 
ATOM     30  C   UNL     1       2.105  13.493  19.592  0.00  0.00    +0.000 A 
ATOM     31  C   UNL     1       2.702  12.989  18.435  0.00  0.00    +0.000 A 
ATOM     32  C   UNL     1       2.377  11.709  17.978  0.00  0.00    +0.000 A 
ENDBRANCH  26  27
ENDBRANCH  24  26
ENDBRANCH  19  20
ENDBRANCH   1  19
TORSDOF 9
ENDMDL
MODEL 9
REMARK VINA RESULT:      -7.9      2.347      5.012
REMARK  Name = 
REMARK  9 active torsions:
REMARK  status: ('A' for Active; 'I' for Inactive)
REMARK    1  A    between atoms: C_2  and  C_5
REMARK    2  A    between atoms: N_3  and  O_4
REMARK    3  A    between atoms: C_5  and  C_6
REMARK    4  A    between atoms: C_5  and  C_20
REMARK    5  A    between atoms: C_6  and  C_7
REMARK    6  A    between atoms: C_11  and  O_12
REMARK    7  A    between atoms: O_12  and  C_13
REMARK    8  A    between atoms: N_22  and  C_23
REMARK    9  A    between atoms: C_23  and  C_24
REMARK                            x       y       z     vdW  Elec       q    Type
REMARK                         _______ _______ _______ _____ _____    ______ ____
ROOT
ATOM      1  C   UNL     1       2.619   4.498  19.642  0.00  0.00    +0.000 C 
ENDROOT
BRANCH   1   3
ATOM      2  O   UNL     1       0.995   2.678  19.892  0.00  0.00    +0.000 OA
ATOM      3  C   UNL     1       1.844   3.415  20.394  0.00  0.00    +0.000 C 
ATOM      4  N   UNL     1       2.206   3.271  21.723  0.00  0.00    +0.000 N 
ATOM      5  H   UNL     1       2.329   4.139  22.250  0.00  0.00    +0.000 HD
BRANCH   4   6
ATOM      6  O   UNL     1       1.429   2.295  22.409  0.00  0.00    +0.000 OA
ATOM      7  H   UNL     1       0.825   1.975  21.703  0.00  0.00    +0.000 HD
ENDBRANCH   4   6
ENDBRANCH   1   3
BRANCH   1   8
ATOM      8  C   UNL     1       4.049   4.035  19.362  0.00  0.00    +0.000 C 
ATOM      9  O   UNL     1       4.394   2.863  19.540  0.00  0.00    +0.000 OA
ATOM     10  N   UNL     1       4.919   4.952  18.819  0.00  0.00    +0.000 N 
ATOM     11  H   UNL     1       4.568   5.819  18.424  0.00  0.00    +0.000 HD
BRANCH  10  12
ATOM     12  C   UNL     1       6.245   4.518  18.400  0.00  0.00    +0.000 C 
BRANCH  12  13
ATOM     13  C   UNL     1       6.429   4.571  16.914  0.00  0.00    +0.000 A 
ATOM     14  C   UNL     1       5.648   3.793  16.054  0.00  0.00    +0.000 A 
ATOM     15  C   UNL     1       5.810   3.910  14.677  0.00  0.00    +0.000 A 
ATOM     16  C   UNL     1       6.748   4.809  14.200  0.00  0.00    +0.000 A 
ATOM     17  N   UNL     1       7.511   5.587  14.998  0.00  0.00    +0.000 NA
ATOM     18  C   UNL     1       7.328   5.458  16.331  0.00  0.00    +0.000 A 
ENDBRANCH  12  13
ENDBRANCH  10  12
ENDBRANCH   1   8
BRANCH   1  19
ATOM     19  C   UNL     1       2.615   5.816  20.426  0.00  0.00    +0.000 C 
BRANCH  19  20
ATOM     20  C   UNL     1       2.134   7.054  19.695  0.00  0.00    +0.000 A 
ATOM     21  C   UNL     1       2.435   7.302  18.350  0.00  0.00    +0.000 A 
ATOM     22  C   UNL     1       2.105   8.530  17.763  0.00  0.00    +0.000 A 
ATOM     23  C   UNL     1       1.524   9.545  18.527  0.00  0.00    +0.000 A 
ATOM     24  C   UNL     1       1.237   9.316  19.870  0.00  0.00    +0.000 A 
ATOM     25  C   UNL     1       1.461   8.048  20.418  0.00  0.00    +0.000 A 
BRANCH  24  26
ATOM     26  O   UNL     1       0.747  10.377  20.602  0.00  0.00    +0.000 OA
BRANCH  26  27
ATOM     27  C   UNL     1       0.376  11.529  19.930  0.00  0.00    +0.000 A 
ATOM     28  C   UNL     1      -0.835  11.683  19.245  0.00  0.00    +0.000 A 
ATOM     29  C   UNL     1      -1.083  12.834  18.498  0.00  0.00    +0.000 A 
ATOM     30  C   UNL     1      -0.157  13.874  18.501  0.00  0.00    +0.000 A 
ATOM     31  C   UNL     1       1.010  13.765  19.258  0.00  0.00    +0.000 A 
ATOM     32  C   UNL     1       1.279  12.592  19.969  0.00  0.00    +0.000 A 
ENDBRANCH  26  27
ENDBRANCH  24  26
ENDBRANCH  19  20
ENDBRANCH   1  19
TORSDOF 9
ENDMDL
