MODEL 1
REMARK VINA RESULT:      -6.5      0.000      0.000
REMARK  Name = 
REMARK  10 active torsions:
REMARK  status: ('A' for Active; 'I' for Inactive)
REMARK    1  A    between atoms: C_1  and  C_2
REMARK    2  A    between atoms: C_2  and  C_3
REMARK    3  A    between atoms: C_3  and  N_4
REMARK    4  A    between atoms: N_4  and  C_5
REMARK    5  A    between atoms: N_4  and  C_11
REMARK    6  A    between atoms: C_5  and  C_6
REMARK    7  A    between atoms: C_6  and  N_7
REMARK    8  A    between atoms: C_8  and  C_9
REMARK    9  A    between atoms: C_18  and  O_19
REMARK   10  A    between atoms: O_19  and  C_20
REMARK                            x       y       z     vdW  Elec       q    Type
REMARK                         _______ _______ _______ _____ _____    ______ ____
ROOT
ATOM      1  C   UNL     1       5.109   5.382  18.209  0.00  0.00    +0.000 C 
ATOM      2  C   UNL     1       5.389   3.879  18.024  0.00  0.00    +0.000 C 
ATOM      3  O   UNL     1       4.224   3.191  17.566  0.00  0.00    +0.000 OA
ATOM      4  C   UNL     1       3.116   3.414  18.355  0.00  0.00    +0.000 A 
ATOM      5  C   UNL     1       2.051   2.546  18.100  0.00  0.00    +0.000 A 
ATOM      6  C   UNL     1       0.902   2.622  18.868  0.00  0.00    +0.000 A 
ATOM      7  C   UNL     1       0.828   3.570  19.886  0.00  0.00    +0.000 A 
ATOM      8  C   UNL     1       1.875   4.476  20.141  0.00  0.00    +0.000 A 
ATOM      9  C   UNL     1       3.033   4.427  19.344  0.00  0.00    +0.000 A 
ATOM     10  C   UNL     1       4.227   5.341  19.490  0.00  0.00    +0.000 C 
ENDROOT
BRANCH   8  11
ATOM     11  O   UNL     1       1.547   5.289  21.189  0.00  0.00    +0.000 OA
ATOM     12  C   UNL     1       1.347   6.678  21.029  0.00  0.00    +0.000 C 
ENDBRANCH   8  11
BRANCH   1  13
ATOM     13  N   UNL     1       4.465   6.143  17.071  0.00  0.00    +0.000 NA
BRANCH  13  14
ATOM     14  C   UNL     1       3.936   7.451  17.570  0.00  0.00    +0.000 C 
BRANCH  14  16
ATOM     15  C   UNL     1       1.928   8.999  17.855  0.00  0.00    +0.000 C 
ATOM     16  C   UNL     1       2.410   7.588  17.548  0.00  0.00    +0.000 C 
ENDBRANCH  14  16
ENDBRANCH  13  14
BRANCH  13  17
ATOM     17  C   UNL     1       5.368   6.394  15.906  0.00  0.00    +0.000 C 
BRANCH  17  18
ATOM     18  C   UNL     1       6.783   5.775  15.887  0.00  0.00    +0.000 C 
BRANCH  18  19
ATOM     19  N   UNL     1       7.267   5.389  14.564  0.00  0.00    +0.000 N 
ATOM     20  C   UNL     1       6.719   4.303  13.913  0.00  0.00    +0.000 C 
ATOM     21  C   UNL     1       7.084   4.200  12.456  0.00  0.00    +0.000 C 
ATOM     22  O   UNL     1       5.997   3.472  14.455  0.00  0.00    +0.000 OA
ATOM     23  H   UNL     1       7.609   6.144  13.985  0.00  0.00    +0.000 HD
ENDBRANCH  18  19
ENDBRANCH  17  18
ENDBRANCH  13  17
ENDBRANCH   1  13
TORSDOF 7
ENDMDL
MODEL 2
REMARK VINA RESULT:      -6.5      2.307      6.572
REMARK  Name = 
REMARK  10 active torsions:
REMARK  status: ('A' for Active; 'I' for Inactive)
REMARK    1  A    between atoms: C_1  and  C_2
REMARK    2  A    between atoms: C_2  and  C_3
REMARK    3  A    between atoms: C_3  and  N_4
REMARK    4  A    between atoms: N_4  and  C_5
REMARK    5  A    between atoms: N_4  and  C_11
REMARK    6  A    between atoms: C_5  and  C_6
REMARK    7  A    between atoms: C_6  and  N_7
REMARK    8  A    between atoms: C_8  and  C_9
REMARK    9  A    between atoms: C_18  and  O_19
REMARK   10  A    between atoms: O_19  and  C_20
REMARK                            x       y       z     vdW  Elec       q    Type
REMARK                         _______ _______ _______ _____ _____    ______ ____
ROOT
ATOM      1  C   UNL     1       3.480   3.267  18.561  0.00  0.00    +0.000 C 
ATOM      2  C   UNL     1       4.722   3.114  19.457  0.00  0.00    +0.000 C 
ATOM      3  O   UNL     1       5.468   4.331  19.515  0.00  0.00    +0.000 OA
ATOM      4  C   UNL     1       5.790   4.831  18.271  0.00  0.00    +0.000 A 
ATOM      5  C   UNL     1       6.745   5.850  18.297  0.00  0.00    +0.000 A 
ATOM      6  C   UNL     1       7.203   6.393  17.108  0.00  0.00    +0.000 A 
ATOM      7  C   UNL     1       6.699   5.911  15.903  0.00  0.00    +0.000 A 
ATOM      8  C   UNL     1       5.714   4.907  15.853  0.00  0.00    +0.000 A 
ATOM      9  C   UNL     1       5.218   4.373  17.057  0.00  0.00    +0.000 A 
ATOM     10  C   UNL     1       4.155   3.305  17.160  0.00  0.00    +0.000 C 
ENDROOT
BRANCH   8  11
ATOM     11  O   UNL     1       5.402   4.619  14.555  0.00  0.00    +0.000 OA
ATOM     12  C   UNL     1       6.240   3.831  13.736  0.00  0.00    +0.000 C 
ENDBRANCH   8  11
BRANCH   1  13
ATOM     13  N   UNL     1       2.553   4.438  18.803  0.00  0.00    +0.000 NA
BRANCH  13  14
ATOM     14  C   UNL     1       1.209   3.941  19.236  0.00  0.00    +0.000 C 
BRANCH  14  16
ATOM     15  C   UNL     1       1.336   2.739  21.482  0.00  0.00    +0.000 C 
ATOM     16  C   UNL     1       1.217   2.597  19.972  0.00  0.00    +0.000 C 
ENDBRANCH  14  16
ENDBRANCH  13  14
BRANCH  13  17
ATOM     17  C   UNL     1       3.054   5.426  19.807  0.00  0.00    +0.000 C 
BRANCH  17  18
ATOM     18  C   UNL     1       2.645   6.911  19.688  0.00  0.00    +0.000 C 
BRANCH  18  19
ATOM     19  N   UNL     1       1.870   7.428  20.814  0.00  0.00    +0.000 N 
ATOM     20  C   UNL     1       1.109   8.570  20.667  0.00  0.00    +0.000 C 
ATOM     21  C   UNL     1       0.135   8.818  21.788  0.00  0.00    +0.000 C 
ATOM     22  O   UNL     1       1.203   9.338  19.716  0.00  0.00    +0.000 OA
ATOM     23  H   UNL     1       1.535   6.736  21.469  0.00  0.00    +0.000 HD
ENDBRANCH  18  19
ENDBRANCH  17  18
ENDBRANCH  13  17
ENDBRANCH   1  13
TORSDOF 7
ENDMDL
MODEL 3
REMARK VINA RESULT:      -6.4      2.164      6.160
REMARK  Name = 
REMARK  10 active torsions:
REMARK  status: ('A' for Active; 'I' for Inactive)
REMARK    1  A    between atoms: C_1  and  C_2
REMARK    2  A    between atoms: C_2  and  C_3
REMARK    3  A    between atoms: C_3  and  N_4
REMARK    4  A    between atoms: N_4  and  C_5
REMARK    5  A    between atoms: N_4  and  C_11
REMARK    6  A    between atoms: C_5  and  C_6
REMARK    7  A    between atoms: C_6  and  N_7
REMARK    8  A    between atoms: C_8  and  C_9
REMARK    9  A    between atoms: C_18  and  O_19
REMARK   10  A    between atoms: O_19  and  C_20
REMARK                            x       y       z     vdW  Elec       q    Type
REMARK                         _______ _______ _______ _____ _____    ______ ____
ROOT
ATOM      1  C   UNL     1       3.355   3.347  18.019  0.00  0.00    +0.000 C 
ATOM      2  C   UNL     1       4.369   2.739  19.005  0.00  0.00    +0.000 C 
ATOM      3  O   UNL     1       5.156   3.756  19.626  0.00  0.00    +0.000 OA
ATOM      4  C   UNL     1       5.763   4.602  18.722  0.00  0.00    +0.000 A 
ATOM      5  C   UNL     1       6.749   5.419  19.280  0.00  0.00    +0.000 A 
ATOM      6  C   UNL     1       7.480   6.268  18.466  0.00  0.00    +0.000 A 
ATOM      7  C   UNL     1       7.214   6.294  17.100  0.00  0.00    +0.000 A 
ATOM      8  C   UNL     1       6.204   5.503  16.520  0.00  0.00    +0.000 A 
ATOM      9  C   UNL     1       5.435   4.661  17.343  0.00  0.00    +0.000 A 
ATOM     10  C   UNL     1       4.312   3.769  16.867  0.00  0.00    +0.000 C 
ENDROOT
BRANCH   8  11
ATOM     11  O   UNL     1       6.157   5.716  15.171  0.00  0.00    +0.000 OA
ATOM     12  C   UNL     1       6.763   4.835  14.248  0.00  0.00    +0.000 C 
ENDBRANCH   8  11
BRANCH   1  13
ATOM     13  N   UNL     1       2.469   4.476  18.496  0.00  0.00    +0.000 NA
BRANCH  13  14
ATOM     14  C   UNL     1       2.512   4.559  19.990  0.00  0.00    +0.000 C 
BRANCH  14  16
ATOM     15  C   UNL     1       1.478   2.753  21.466  0.00  0.00    +0.000 C 
ATOM     16  C   UNL     1       1.256   4.054  20.708  0.00  0.00    +0.000 C 
ENDBRANCH  14  16
ENDBRANCH  13  14
BRANCH  13  17
ATOM     17  C   UNL     1       2.809   5.815  17.923  0.00  0.00    +0.000 C 
BRANCH  17  18
ATOM     18  C   UNL     1       3.094   7.002  18.870  0.00  0.00    +0.000 C 
BRANCH  18  19
ATOM     19  N   UNL     1       2.127   8.093  18.795  0.00  0.00    +0.000 N 
ATOM     20  C   UNL     1       1.425   8.477  19.920  0.00  0.00    +0.000 C 
ATOM     21  C   UNL     1       0.701   9.790  19.784  0.00  0.00    +0.000 C 
ATOM     22  O   UNL     1       1.374   7.819  20.954  0.00  0.00    +0.000 OA
ATOM     23  H   UNL     1       2.329   8.813  18.115  0.00  0.00    +0.000 HD
ENDBRANCH  18  19
ENDBRANCH  17  18
ENDBRANCH  13  17
ENDBRANCH   1  13
TORSDOF 7
ENDMDL
MODEL 4
REMARK VINA RESULT:      -6.4      1.516      2.186
REMARK  Name = 
REMARK  10 active torsions:
REMARK  status: ('A' for Active; 'I' for Inactive)
REMARK    1  A    between atoms: C_1  and  C_2
REMARK    2  A    between atoms: C_2  and  C_3
REMARK    3  A    between atoms: C_3  and  N_4
REMARK    4  A    between atoms: N_4  and  C_5
REMARK    5  A    between atoms: N_4  and  C_11
REMARK    6  A    between atoms: C_5  and  C_6
REMARK    7  A    between atoms: C_6  and  N_7
REMARK    8  A    between atoms: C_8  and  C_9
REMARK    9  A    between atoms: C_18  and  O_19
REMARK   10  A    between atoms: O_19  and  C_20
REMARK                            x       y       z     vdW  Elec       q    Type
REMARK                         _______ _______ _______ _____ _____    ______ ____
ROOT
ATOM      1  C   UNL     1       5.502   4.893  18.527  0.00  0.00    +0.000 C 
ATOM      2  C   UNL     1       5.500   3.407  18.929  0.00  0.00    +0.000 C 
ATOM      3  O   UNL     1       4.259   2.785  18.591  0.00  0.00    +0.000 OA
ATOM      4  C   UNL     1       3.161   3.453  19.089  0.00  0.00    +0.000 A 
ATOM      5  C   UNL     1       1.971   2.726  19.016  0.00  0.00    +0.000 A 
ATOM      6  C   UNL     1       0.806   3.260  19.543  0.00  0.00    +0.000 A 
ATOM      7  C   UNL     1       0.844   4.518  20.136  0.00  0.00    +0.000 A 
ATOM      8  C   UNL     1       2.025   5.282  20.193  0.00  0.00    +0.000 A 
ATOM      9  C   UNL     1       3.206   4.763  19.632  0.00  0.00    +0.000 A 
ATOM     10  C   UNL     1       4.540   5.470  19.605  0.00  0.00    +0.000 C 
ENDROOT
BRANCH   8  11
ATOM     11  O   UNL     1       1.787   6.469  20.828  0.00  0.00    +0.000 OA
ATOM     12  C   UNL     1       1.768   7.701  20.138  0.00  0.00    +0.000 C 
ENDBRANCH   8  11
BRANCH   1  13
ATOM     13  N   UNL     1       5.098   5.262  17.116  0.00  0.00    +0.000 NA
BRANCH  13  14
ATOM     14  C   UNL     1       5.750   6.550  16.722  0.00  0.00    +0.000 C 
BRANCH  14  16
ATOM     15  C   UNL     1       7.575   8.112  17.582  0.00  0.00    +0.000 C 
ATOM     16  C   UNL     1       7.214   6.698  17.151  0.00  0.00    +0.000 C 
ENDBRANCH  14  16
ENDBRANCH  13  14
BRANCH  13  17
ATOM     17  C   UNL     1       5.415   4.221  16.090  0.00  0.00    +0.000 C 
BRANCH  17  18
ATOM     18  C   UNL     1       5.823   4.653  14.664  0.00  0.00    +0.000 C 
BRANCH  18  19
ATOM     19  N   UNL     1       5.315   3.797  13.594  0.00  0.00    +0.000 N 
ATOM     20  C   UNL     1       6.091   3.544  12.481  0.00  0.00    +0.000 C 
ATOM     21  C   UNL     1       5.586   2.422  11.613  0.00  0.00    +0.000 C 
ATOM     22  O   UNL     1       7.107   4.169  12.196  0.00  0.00    +0.000 OA
ATOM     23  H   UNL     1       4.675   3.070  13.881  0.00  0.00    +0.000 HD
ENDBRANCH  18  19
ENDBRANCH  17  18
ENDBRANCH  13  17
ENDBRANCH   1  13
TORSDOF 7
ENDMDL
MODEL 5
REMARK VINA RESULT:      -6.3      2.227      6.158
REMARK  Name = 
REMARK  10 active torsions:
REMARK  status: ('A' for Active; 'I' for Inactive)
REMARK    1  A    between atoms: C_1  and  C_2
REMARK    2  A    between atoms: C_2  and  C_3
REMARK    3  A    between atoms: C_3  and  N_4
REMARK    4  A    between atoms: N_4  and  C_5
REMARK    5  A    between atoms: N_4  and  C_11
REMARK    6  A    between atoms: C_5  and  C_6
REMARK    7  A    between atoms: C_6  and  N_7
REMARK    8  A    between atoms: C_8  and  C_9
REMARK    9  A    between atoms: C_18  and  O_19
REMARK   10  A    between atoms: O_19  and  C_20
REMARK                            x       y       z     vdW  Elec       q    Type
REMARK                         _______ _______ _______ _____ _____    ______ ____
ROOT
ATOM      1  C   UNL     1       3.381   3.639  18.277  0.00  0.00    +0.000 C 
ATOM      2  C   UNL     1       4.404   2.988  19.224  0.00  0.00    +0.000 C 
ATOM      3  O   UNL     1       5.284   3.966  19.781  0.00  0.00    +0.000 OA
ATOM      4  C   UNL     1       5.895   4.754  18.829  0.00  0.00    +0.000 A 
ATOM      5  C   UNL     1       6.957   5.517  19.316  0.00  0.00    +0.000 A 
ATOM      6  C   UNL     1       7.696   6.303  18.448  0.00  0.00    +0.000 A 
ATOM      7  C   UNL     1       7.363   6.318  17.096  0.00  0.00    +0.000 A 
ATOM      8  C   UNL     1       6.277   5.581  16.586  0.00  0.00    +0.000 A 
ATOM      9  C   UNL     1       5.500   4.806  17.467  0.00  0.00    +0.000 A 
ATOM     10  C   UNL     1       4.301   3.977  17.069  0.00  0.00    +0.000 C 
ENDROOT
BRANCH   8  11
ATOM     11  O   UNL     1       6.173   5.769  15.237  0.00  0.00    +0.000 OA
ATOM     12  C   UNL     1       6.788   4.903  14.307  0.00  0.00    +0.000 C 
ENDBRANCH   8  11
BRANCH   1  13
ATOM     13  N   UNL     1       2.592   4.832  18.772  0.00  0.00    +0.000 NA
BRANCH  13  14
ATOM     14  C   UNL     1       2.304   4.679  20.233  0.00  0.00    +0.000 C 
BRANCH  14  16
ATOM     15  C   UNL     1       1.451   2.680  21.569  0.00  0.00    +0.000 C 
ATOM     16  C   UNL     1       1.111   3.778  20.571  0.00  0.00    +0.000 C 
ENDBRANCH  14  16
ENDBRANCH  13  14
BRANCH  13  17
ATOM     17  C   UNL     1       3.255   6.151  18.541  0.00  0.00    +0.000 C 
BRANCH  17  18
ATOM     18  C   UNL     1       2.442   7.323  17.946  0.00  0.00    +0.000 C 
BRANCH  18  19
ATOM     19  N   UNL     1       1.894   8.253  18.930  0.00  0.00    +0.000 N 
ATOM     20  C   UNL     1       1.588   9.549  18.566  0.00  0.00    +0.000 C 
ATOM     21  C   UNL     1       0.760  10.300  19.573  0.00  0.00    +0.000 C 
ATOM     22  O   UNL     1       1.954  10.070  17.517  0.00  0.00    +0.000 OA
ATOM     23  H   UNL     1       1.332   7.838  19.660  0.00  0.00    +0.000 HD
ENDBRANCH  18  19
ENDBRANCH  17  18
ENDBRANCH  13  17
ENDBRANCH   1  13
TORSDOF 7
ENDMDL
MODEL 6
REMARK VINA RESULT:      -6.3      2.340      6.737
REMARK  Name = 
REMARK  10 active torsions:
REMARK  status: ('A' for Active; 'I' for Inactive)
REMARK    1  A    between atoms: C_1  and  C_2
REMARK    2  A    between atoms: C_2  and  C_3
REMARK    3  A    between atoms: C_3  and  N_4
REMARK    4  A    between atoms: N_4  and  C_5
REMARK    5  A    between atoms: N_4  and  C_11
REMARK    6  A    between atoms: C_5  and  C_6
REMARK    7  A    between atoms: C_6  and  N_7
REMARK    8  A    between atoms: C_8  and  C_9
REMARK    9  A    between atoms: C_18  and  O_19
REMARK   10  A    between atoms: O_19  and  C_20
REMARK                            x       y       z     vdW  Elec       q    Type
REMARK                         _______ _______ _______ _____ _____    ______ ____
ROOT
ATOM      1  C   UNL     1       3.830   3.745  18.360  0.00  0.00    +0.000 C 
ATOM      2  C   UNL     1       4.908   3.295  19.362  0.00  0.00    +0.000 C 
ATOM      3  O   UNL     1       5.685   4.404  19.815  0.00  0.00    +0.000 OA
ATOM      4  C   UNL     1       6.220   5.150  18.787  0.00  0.00    +0.000 A 
ATOM      5  C   UNL     1       7.201   6.058  19.192  0.00  0.00    +0.000 A 
ATOM      6  C   UNL     1       7.863   6.823  18.246  0.00  0.00    +0.000 A 
ATOM      7  C   UNL     1       7.536   6.671  16.901  0.00  0.00    +0.000 A 
ATOM      8  C   UNL     1       6.531   5.784  16.472  0.00  0.00    +0.000 A 
ATOM      9  C   UNL     1       5.829   5.028  17.429  0.00  0.00    +0.000 A 
ATOM     10  C   UNL     1       4.719   4.051  17.120  0.00  0.00    +0.000 C 
ENDROOT
BRANCH   8  11
ATOM     11  O   UNL     1       6.416   5.827  15.111  0.00  0.00    +0.000 OA
ATOM     12  C   UNL     1       6.911   4.798  14.281  0.00  0.00    +0.000 C 
ENDBRANCH   8  11
BRANCH   1  13
ATOM     13  N   UNL     1       2.926   4.898  18.738  0.00  0.00    +0.000 NA
BRANCH  13  14
ATOM     14  C   UNL     1       1.549   4.661  18.202  0.00  0.00    +0.000 C 
BRANCH  14  16
ATOM     15  C   UNL     1       0.598   2.516  19.205  0.00  0.00    +0.000 C 
ATOM     16  C   UNL     1       1.183   3.190  17.972  0.00  0.00    +0.000 C 
ENDBRANCH  14  16
ENDBRANCH  13  14
BRANCH  13  17
ATOM     17  C   UNL     1       2.839   5.159  20.208  0.00  0.00    +0.000 C 
BRANCH  17  18
ATOM     18  C   UNL     1       1.619   5.917  20.779  0.00  0.00    +0.000 C 
BRANCH  18  19
ATOM     19  N   UNL     1       1.797   7.361  20.905  0.00  0.00    +0.000 N 
ATOM     20  C   UNL     1       0.769   8.147  21.385  0.00  0.00    +0.000 C 
ATOM     21  C   UNL     1       1.177   9.550  21.750  0.00  0.00    +0.000 C 
ATOM     22  O   UNL     1      -0.389   7.762  21.508  0.00  0.00    +0.000 OA
ATOM     23  H   UNL     1       2.739   7.672  21.098  0.00  0.00    +0.000 HD
ENDBRANCH  18  19
ENDBRANCH  17  18
ENDBRANCH  13  17
ENDBRANCH   1  13
TORSDOF 7
ENDMDL
MODEL 7
REMARK VINA RESULT:      -6.3      2.133      6.173
REMARK  Name = 
REMARK  10 active torsions:
REMARK  status: ('A' for Active; 'I' for Inactive)
REMARK    1  A    between atoms: C_1  and  C_2
REMARK    2  A    between atoms: C_2  and  C_3
REMARK    3  A    between atoms: C_3  and  N_4
REMARK    4  A    between atoms: N_4  and  C_5
REMARK    5  A    between atoms: N_4  and  C_11
REMARK    6  A    between atoms: C_5  and  C_6
REMARK    7  A    between atoms: C_6  and  N_7
REMARK    8  A    between atoms: C_8  and  C_9
REMARK    9  A    between atoms: C_18  and  O_19
REMARK   10  A    between atoms: O_19  and  C_20
REMARK                            x       y       z     vdW  Elec       q    Type
REMARK                         _______ _______ _______ _____ _____    ______ ____
ROOT
ATOM      1  C   UNL     1       3.750   3.490  17.917  0.00  0.00    +0.000 C 
ATOM      2  C   UNL     1       4.736   3.005  18.995  0.00  0.00    +0.000 C 
ATOM      3  O   UNL     1       5.452   4.100  19.567  0.00  0.00    +0.000 OA
ATOM      4  C   UNL     1       6.070   4.897  18.627  0.00  0.00    +0.000 A 
ATOM      5  C   UNL     1       6.996   5.795  19.161  0.00  0.00    +0.000 A 
ATOM      6  C   UNL     1       7.733   6.608  18.316  0.00  0.00    +0.000 A 
ATOM      7  C   UNL     1       7.535   6.515  16.941  0.00  0.00    +0.000 A 
ATOM      8  C   UNL     1       6.585   5.639  16.381  0.00  0.00    +0.000 A 
ATOM      9  C   UNL     1       5.808   4.833  17.234  0.00  0.00    +0.000 A 
ATOM     10  C   UNL     1       4.745   3.860  16.781  0.00  0.00    +0.000 C 
ENDROOT
BRANCH   8  11
ATOM     11  O   UNL     1       6.596   5.743  15.019  0.00  0.00    +0.000 OA
ATOM     12  C   UNL     1       6.877   4.640  14.183  0.00  0.00    +0.000 C 
ENDBRANCH   8  11
BRANCH   1  13
ATOM     13  N   UNL     1       2.798   4.616  18.261  0.00  0.00    +0.000 NA
BRANCH  13  14
ATOM     14  C   UNL     1       1.385   4.155  18.093  0.00  0.00    +0.000 C 
BRANCH  14  16
ATOM     15  C   UNL     1       0.876   2.668  20.104  0.00  0.00    +0.000 C 
ATOM     16  C   UNL     1       1.097   2.737  18.599  0.00  0.00    +0.000 C 
ENDBRANCH  14  16
ENDBRANCH  13  14
BRANCH  13  17
ATOM     17  C   UNL     1       2.970   5.172  19.638  0.00  0.00    +0.000 C 
BRANCH  17  18
ATOM     18  C   UNL     1       2.361   6.548  19.988  0.00  0.00    +0.000 C 
BRANCH  18  19
ATOM     19  N   UNL     1       2.300   7.494  18.877  0.00  0.00    +0.000 N 
ATOM     20  C   UNL     1       1.686   8.720  19.042  0.00  0.00    +0.000 C 
ATOM     21  C   UNL     1       1.957   9.705  17.937  0.00  0.00    +0.000 C 
ATOM     22  O   UNL     1       0.969   9.005  19.995  0.00  0.00    +0.000 OA
ATOM     23  H   UNL     1       3.070   7.452  18.223  0.00  0.00    +0.000 HD
ENDBRANCH  18  19
ENDBRANCH  17  18
ENDBRANCH  13  17
ENDBRANCH   1  13
TORSDOF 7
ENDMDL
MODEL 8
REMARK VINA RESULT:      -6.3      1.699      2.405
REMARK  Name = 
REMARK  10 active torsions:
REMARK  status: ('A' for Active; 'I' for Inactive)
REMARK    1  A    between atoms: C_1  and  C_2
REMARK    2  A    between atoms: C_2  and  C_3
REMARK    3  A    between atoms: C_3  and  N_4
REMARK    4  A    between atoms: N_4  and  C_5
REMARK    5  A    between atoms: N_4  and  C_11
REMARK    6  A    between atoms: C_5  and  C_6
REMARK    7  A    between atoms: C_6  and  N_7
REMARK    8  A    between atoms: C_8  and  C_9
REMARK    9  A    between atoms: C_18  and  O_19
REMARK   10  A    between atoms: O_19  and  C_20
REMARK                            x       y       z     vdW  Elec       q    Type
REMARK                         _______ _______ _______ _____ _____    ______ ____
ROOT
ATOM      1  C   UNL     1       5.078   4.731  18.320  0.00  0.00    +0.000 C 
ATOM      2  C   UNL     1       5.135   3.193  18.271  0.00  0.00    +0.000 C 
ATOM      3  O   UNL     1       3.877   2.644  17.876  0.00  0.00    +0.000 OA
ATOM      4  C   UNL     1       2.822   3.094  18.641  0.00  0.00    +0.000 A 
ATOM      5  C   UNL     1       1.641   2.371  18.464  0.00  0.00    +0.000 A 
ATOM      6  C   UNL     1       0.524   2.681  19.222  0.00  0.00    +0.000 A 
ATOM      7  C   UNL     1       0.601   3.716  20.150  0.00  0.00    +0.000 A 
ATOM      8  C   UNL     1       1.771   4.479  20.324  0.00  0.00    +0.000 A 
ATOM      9  C   UNL     1       2.900   4.192  19.535  0.00  0.00    +0.000 A 
ATOM     10  C   UNL     1       4.216   4.932  19.599  0.00  0.00    +0.000 C 
ENDROOT
BRANCH   8  11
ATOM     11  O   UNL     1       1.578   5.421  21.294  0.00  0.00    +0.000 OA
ATOM     12  C   UNL     1       1.160   6.736  20.994  0.00  0.00    +0.000 C 
ENDBRANCH   8  11
BRANCH   1  13
ATOM     13  N   UNL     1       4.537   5.473  17.118  0.00  0.00    +0.000 NA
BRANCH  13  14
ATOM     14  C   UNL     1       4.112   6.851  17.521  0.00  0.00    +0.000 C 
BRANCH  14  16
ATOM     15  C   UNL     1       2.211   8.525  17.825  0.00  0.00    +0.000 C 
ATOM     16  C   UNL     1       2.596   7.073  17.585  0.00  0.00    +0.000 C 
ENDBRANCH  14  16
ENDBRANCH  13  14
BRANCH  13  17
ATOM     17  C   UNL     1       5.490   5.573  15.971  0.00  0.00    +0.000 C 
BRANCH  17  18
ATOM     18  C   UNL     1       6.992   5.813  16.244  0.00  0.00    +0.000 C 
BRANCH  18  19
ATOM     19  N   UNL     1       7.321   7.147  16.741  0.00  0.00    +0.000 N 
ATOM     20  C   UNL     1       7.876   7.303  17.995  0.00  0.00    +0.000 C 
ATOM     21  C   UNL     1       8.442   8.672  18.260  0.00  0.00    +0.000 C 
ATOM     22  O   UNL     1       7.912   6.418  18.844  0.00  0.00    +0.000 OA
ATOM     23  H   UNL     1       7.581   7.825  16.038  0.00  0.00    +0.000 HD
ENDBRANCH  18  19
ENDBRANCH  17  18
ENDBRANCH  13  17
ENDBRANCH   1  13
TORSDOF 7
ENDMDL
MODEL 9
REMARK VINA RESULT:      -6.3      2.778      7.025
REMARK  Name = 
REMARK  10 active torsions:
REMARK  status: ('A' for Active; 'I' for Inactive)
REMARK    1  A    between atoms: C_1  and  C_2
REMARK    2  A    between atoms: C_2  and  C_3
REMARK    3  A    between atoms: C_3  and  N_4
REMARK    4  A    between atoms: N_4  and  C_5
REMARK    5  A    between atoms: N_4  and  C_11
REMARK    6  A    between atoms: C_5  and  C_6
REMARK    7  A    between atoms: C_6  and  N_7
REMARK    8  A    between atoms: C_8  and  C_9
REMARK    9  A    between atoms: C_18  and  O_19
REMARK   10  A    between atoms: O_19  and  C_20
REMARK                            x       y       z     vdW  Elec       q    Type
REMARK                         _______ _______ _______ _____ _____    ______ ____
ROOT
ATOM      1  C   UNL     1       2.613   5.650  18.836  0.00  0.00    +0.000 C 
ATOM      2  C   UNL     1       3.283   4.589  19.729  0.00  0.00    +0.000 C 
ATOM      3  O   UNL     1       4.587   5.009  20.136  0.00  0.00    +0.000 OA
ATOM      4  C   UNL     1       5.394   5.376  19.082  0.00  0.00    +0.000 A 
ATOM      5  C   UNL     1       6.742   5.518  19.418  0.00  0.00    +0.000 A 
ATOM      6  C   UNL     1       7.669   5.821  18.435  0.00  0.00    +0.000 A 
ATOM      7  C   UNL     1       7.237   5.981  17.121  0.00  0.00    +0.000 A 
ATOM      8  C   UNL     1       5.879   5.874  16.763  0.00  0.00    +0.000 A 
ATOM      9  C   UNL     1       4.927   5.599  17.761  0.00  0.00    +0.000 A 
ATOM     10  C   UNL     1       3.439   5.470  17.530  0.00  0.00    +0.000 C 
ENDROOT
BRANCH   8  11
ATOM     11  O   UNL     1       5.731   6.070  15.419  0.00  0.00    +0.000 OA
ATOM     12  C   UNL     1       5.910   5.030  14.482  0.00  0.00    +0.000 C 
ENDBRANCH   8  11
BRANCH   1  13
ATOM     13  N   UNL     1       2.575   7.083  19.320  0.00  0.00    +0.000 NA
BRANCH  13  14
ATOM     14  C   UNL     1       2.714   8.015  18.157  0.00  0.00    +0.000 C 
BRANCH  14  16
ATOM     15  C   UNL     1       1.841  10.408  18.023  0.00  0.00    +0.000 C 
ATOM     16  C   UNL     1       1.509   8.928  17.905  0.00  0.00    +0.000 C 
ENDBRANCH  14  16
ENDBRANCH  13  14
BRANCH  13  17
ATOM     17  C   UNL     1       1.346   7.444  20.090  0.00  0.00    +0.000 C 
BRANCH  17  18
ATOM     18  C   UNL     1       1.453   8.404  21.296  0.00  0.00    +0.000 C 
BRANCH  18  19
ATOM     19  N   UNL     1       0.270   9.228  21.532  0.00  0.00    +0.000 N 
ATOM     20  C   UNL     1       0.069   9.816  22.765  0.00  0.00    +0.000 C 
ATOM     21  C   UNL     1      -1.006  10.870  22.784  0.00  0.00    +0.000 C 
ATOM     22  O   UNL     1       0.696   9.519  23.777  0.00  0.00    +0.000 OA
ATOM     23  H   UNL     1      -0.090   9.720  20.726  0.00  0.00    +0.000 HD
ENDBRANCH  18  19
ENDBRANCH  17  18
ENDBRANCH  13  17
ENDBRANCH   1  13
TORSDOF 7
ENDMDL
