MODEL 1
REMARK VINA RESULT:      -9.4      0.000      0.000
REMARK  Name = 
REMARK  9 active torsions:
REMARK  status: ('A' for Active; 'I' for Inactive)
REMARK    1  A    between atoms: C_1  and  O_2
REMARK    2  A    between atoms: O_2  and  C_3
REMARK    3  A    between atoms: C_5  and  N_6
REMARK    4  A    between atoms: C_21  and  C_22
REMARK    5  A    between atoms: C_22  and  C_23
REMARK    6  A    between atoms: C_29  and  C_30
REMARK    7  A    between atoms: C_30  and  C_31
REMARK    8  A    between atoms: C_30  and  C_32
REMARK    9  A    between atoms: C_30  and  O_33
REMARK                            x       y       z     vdW  Elec       q    Type
REMARK                         _______ _______ _______ _____ _____    ______ ____
ROOT
ATOM      1  C   UNL     1       1.468   8.882  20.025  0.00  0.00    +0.000 A 
ATOM      2  C   UNL     1       2.224   7.699  19.981  0.00  0.00    +0.000 A 
ATOM      3  C   UNL     1       2.789   7.240  18.789  0.00  0.00    +0.000 A 
ATOM      4  C   UNL     1       2.623   8.009  17.632  0.00  0.00    +0.000 A 
ATOM      5  C   UNL     1       1.936   9.226  17.681  0.00  0.00    +0.000 A 
ATOM      6  C   UNL     1       1.378   9.695  18.883  0.00  0.00    +0.000 A 
ENDROOT
BRANCH   3   7
ATOM      7  N   UNL     1       3.574   6.045  18.767  0.00  0.00    +0.000 N 
ATOM      8  C   UNL     1       4.763   5.913  18.084  0.00  0.00    +0.000 A 
ATOM      9  C   UNL     1       5.332   4.701  18.348  0.00  0.00    +0.000 A 
ATOM     10  C   UNL     1       4.483   4.001  19.191  0.00  0.00    +0.000 A 
ATOM     11  N   UNL     1       4.656   2.765  19.695  0.00  0.00    +0.000 NA
ATOM     12  C   UNL     1       3.649   2.367  20.468  0.00  0.00    +0.000 A 
ATOM     13  N   UNL     1       2.533   3.046  20.763  0.00  0.00    +0.000 NA
ATOM     14  C   UNL     1       2.359   4.279  20.251  0.00  0.00    +0.000 A 
ATOM     15  N   UNL     1       1.134   4.857  20.555  0.00  0.00    +0.000 N 
ATOM     16  C   UNL     1       3.371   4.824  19.453  0.00  0.00    +0.000 A 
ATOM     17  C   UNL     1       6.660   4.550  17.728  0.00  0.00    +0.000 C 
ATOM     18  C   UNL     1       7.000   6.030  17.365  0.00  0.00    +0.000 C 
ATOM     19  C   UNL     1       5.641   6.805  17.288  0.00  0.00    +0.000 C 
ATOM     20  H   UNL     1       0.543   4.144  20.974  0.00  0.00    +0.000 HD
ATOM     21  H   UNL     1       0.712   5.342  19.773  0.00  0.00    +0.000 HD
ENDBRANCH   3   7
BRANCH   1  23
ATOM     22  C   UNL     1      -0.351   8.594  21.513  0.00  0.00    +0.000 C 
ATOM     23  O   UNL     1       0.838   9.313  21.165  0.00  0.00    +0.000 OA
ENDBRANCH   1  23
BRANCH   6  24
ATOM     24  C   UNL     1       0.712  11.059  18.890  0.00  0.00    +0.000 C 
BRANCH  24  25
ATOM     25  C   UNL     1      -0.787  11.002  18.569  0.00  0.00    +0.000 C 
ATOM     26  O   UNL     1      -1.198  10.274  17.668  0.00  0.00    +0.000 OA
ATOM     27  N   UNL     1      -1.544  11.815  19.393  0.00  0.00    +0.000 N 
ATOM     28  C   UNL     1      -2.939  11.962  19.370  0.00  0.00    +0.000 A 
ATOM     29  C   UNL     1      -3.489  12.898  20.239  0.00  0.00    +0.000 A 
ATOM     30  C   UNL     1      -4.874  13.090  20.265  0.00  0.00    +0.000 A 
ATOM     31  C   UNL     1      -5.709  12.348  19.423  0.00  0.00    +0.000 A 
ATOM     32  C   UNL     1      -5.062  11.429  18.600  0.00  0.00    +0.000 A 
ATOM     33  N   UNL     1      -3.718  11.230  18.556  0.00  0.00    +0.000 NA
ATOM     34  H   UNL     1      -1.036  12.392  20.049  0.00  0.00    +0.000 HD
BRANCH  31  35
ATOM     35  C   UNL     1      -7.222  12.524  19.407  0.00  0.00    +0.000 C 
ATOM     36  C   UNL     1      -7.709  13.450  20.531  0.00  0.00    +0.000 C 
ATOM     37  C   UNL     1      -7.716  13.046  18.053  0.00  0.00    +0.000 C 
BRANCH  35  38
ATOM     38  O   UNL     1      -7.871  11.258  19.597  0.00  0.00    +0.000 OA
ATOM     39  H   UNL     1      -7.618  10.926  20.478  0.00  0.00    +0.000 HD
ENDBRANCH  35  38
ENDBRANCH  31  35
ENDBRANCH  24  25
ENDBRANCH   6  24
TORSDOF 6
ENDMDL
MODEL 2
REMARK VINA RESULT:      -9.2      3.768      6.131
REMARK  Name = 
REMARK  9 active torsions:
REMARK  status: ('A' for Active; 'I' for Inactive)
REMARK    1  A    between atoms: C_1  and  O_2
REMARK    2  A    between atoms: O_2  and  C_3
REMARK    3  A    between atoms: C_5  and  N_6
REMARK    4  A    between atoms: C_21  and  C_22
REMARK    5  A    between atoms: C_22  and  C_23
REMARK    6  A    between atoms: C_29  and  C_30
REMARK    7  A    between atoms: C_30  and  C_31
REMARK    8  A    between atoms: C_30  and  C_32
REMARK    9  A    between atoms: C_30  and  O_33
REMARK                            x       y       z     vdW  Elec       q    Type
REMARK                         _______ _______ _______ _____ _____    ______ ____
ROOT
ATOM      1  C   UNL     1       1.357   8.635  20.335  0.00  0.00    +0.000 A 
ATOM      2  C   UNL     1       2.191   7.512  20.208  0.00  0.00    +0.000 A 
ATOM      3  C   UNL     1       2.686   7.111  18.965  0.00  0.00    +0.000 A 
ATOM      4  C   UNL     1       2.368   7.878  17.840  0.00  0.00    +0.000 A 
ATOM      5  C   UNL     1       1.600   9.041  17.968  0.00  0.00    +0.000 A 
ATOM      6  C   UNL     1       1.113   9.453  19.220  0.00  0.00    +0.000 A 
ENDROOT
BRANCH   3   7
ATOM      7  N   UNL     1       3.551   5.978  18.856  0.00  0.00    +0.000 N 
ATOM      8  C   UNL     1       4.716   5.961  18.122  0.00  0.00    +0.000 A 
ATOM      9  C   UNL     1       5.379   4.783  18.307  0.00  0.00    +0.000 A 
ATOM     10  C   UNL     1       4.618   3.988  19.148  0.00  0.00    +0.000 A 
ATOM     11  N   UNL     1       4.899   2.746  19.586  0.00  0.00    +0.000 NA
ATOM     12  C   UNL     1       3.955   2.242  20.378  0.00  0.00    +0.000 A 
ATOM     13  N   UNL     1       2.808   2.826  20.748  0.00  0.00    +0.000 NA
ATOM     14  C   UNL     1       2.526   4.064  20.301  0.00  0.00    +0.000 A 
ATOM     15  N   UNL     1       1.278   4.539  20.680  0.00  0.00    +0.000 N 
ATOM     16  C   UNL     1       3.463   4.716  19.491  0.00  0.00    +0.000 A 
ATOM     17  C   UNL     1       6.688   4.756  17.629  0.00  0.00    +0.000 C 
ATOM     18  C   UNL     1       6.908   6.271  17.323  0.00  0.00    +0.000 C 
ATOM     19  C   UNL     1       5.496   6.949  17.335  0.00  0.00    +0.000 C 
ATOM     20  H   UNL     1       0.756   3.767  21.087  0.00  0.00    +0.000 HD
ATOM     21  H   UNL     1       0.790   5.026  19.938  0.00  0.00    +0.000 HD
ENDBRANCH   3   7
BRANCH   1  23
ATOM     22  C   UNL     1      -0.510   8.472  21.782  0.00  0.00    +0.000 C 
ATOM     23  O   UNL     1       0.796   9.005  21.532  0.00  0.00    +0.000 OA
ENDBRANCH   1  23
BRANCH   6  24
ATOM     24  C   UNL     1       0.352  10.764  19.307  0.00  0.00    +0.000 C 
BRANCH  24  25
ATOM     25  C   UNL     1       1.169  11.896  19.945  0.00  0.00    +0.000 C 
ATOM     26  O   UNL     1       1.120  12.084  21.158  0.00  0.00    +0.000 OA
ATOM     27  N   UNL     1       1.919  12.601  19.022  0.00  0.00    +0.000 N 
ATOM     28  C   UNL     1       2.787  13.670  19.292  0.00  0.00    +0.000 A 
ATOM     29  C   UNL     1       3.384  14.288  18.199  0.00  0.00    +0.000 A 
ATOM     30  C   UNL     1       4.261  15.359  18.402  0.00  0.00    +0.000 A 
ATOM     31  C   UNL     1       4.539  15.812  19.696  0.00  0.00    +0.000 A 
ATOM     32  C   UNL     1       3.901  15.119  20.722  0.00  0.00    +0.000 A 
ATOM     33  N   UNL     1       3.043  14.080  20.545  0.00  0.00    +0.000 NA
ATOM     34  H   UNL     1       1.798  12.346  18.051  0.00  0.00    +0.000 HD
BRANCH  31  35
ATOM     35  C   UNL     1       5.480  16.979  19.971  0.00  0.00    +0.000 C 
ATOM     36  C   UNL     1       4.818  18.065  20.832  0.00  0.00    +0.000 C 
ATOM     37  C   UNL     1       6.780  16.511  20.635  0.00  0.00    +0.000 C 
BRANCH  35  38
ATOM     38  O   UNL     1       5.873  17.601  18.739  0.00  0.00    +0.000 OA
ATOM     39  H   UNL     1       5.078  17.674  18.180  0.00  0.00    +0.000 HD
ENDBRANCH  35  38
ENDBRANCH  31  35
ENDBRANCH  24  25
ENDBRANCH   6  24
TORSDOF 6
ENDMDL
MODEL 3
REMARK VINA RESULT:      -9.1      1.615      3.013
REMARK  Name = 
REMARK  9 active torsions:
REMARK  status: ('A' for Active; 'I' for Inactive)
REMARK    1  A    between atoms: C_1  and  O_2
REMARK    2  A    between atoms: O_2  and  C_3
REMARK    3  A    between atoms: C_5  and  N_6
REMARK    4  A    between atoms: C_21  and  C_22
REMARK    5  A    between atoms: C_22  and  C_23
REMARK    6  A    between atoms: C_29  and  C_30
REMARK    7  A    between atoms: C_30  and  C_31
REMARK    8  A    between atoms: C_30  and  C_32
REMARK    9  A    between atoms: C_30  and  O_33
REMARK                            x       y       z     vdW  Elec       q    Type
REMARK                         _______ _______ _______ _____ _____    ______ ____
ROOT
ATOM      1  C   UNL     1       1.379   9.207  20.236  0.00  0.00    +0.000 A 
ATOM      2  C   UNL     1       1.833   7.884  20.102  0.00  0.00    +0.000 A 
ATOM      3  C   UNL     1       2.146   7.346  18.853  0.00  0.00    +0.000 A 
ATOM      4  C   UNL     1       2.038   8.167  17.725  0.00  0.00    +0.000 A 
ATOM      5  C   UNL     1       1.658   9.506  17.857  0.00  0.00    +0.000 A 
ATOM      6  C   UNL     1       1.355  10.053  19.116  0.00  0.00    +0.000 A 
ENDROOT
BRANCH   3   7
ATOM      7  N   UNL     1       2.629   6.005  18.737  0.00  0.00    +0.000 N 
ATOM      8  C   UNL     1       2.136   4.940  19.458  0.00  0.00    +0.000 A 
ATOM      9  C   UNL     1       2.716   3.776  19.045  0.00  0.00    +0.000 A 
ATOM     10  C   UNL     1       3.640   4.081  18.058  0.00  0.00    +0.000 A 
ATOM     11  N   UNL     1       4.436   3.231  17.383  0.00  0.00    +0.000 NA
ATOM     12  C   UNL     1       5.227   3.839  16.502  0.00  0.00    +0.000 A 
ATOM     13  N   UNL     1       5.305   5.153  16.252  0.00  0.00    +0.000 NA
ATOM     14  C   UNL     1       4.514   6.001  16.935  0.00  0.00    +0.000 A 
ATOM     15  N   UNL     1       4.735   7.342  16.654  0.00  0.00    +0.000 N 
ATOM     16  C   UNL     1       3.608   5.475  17.862  0.00  0.00    +0.000 A 
ATOM     17  C   UNL     1       2.144   2.591  19.709  0.00  0.00    +0.000 C 
ATOM     18  C   UNL     1       0.830   3.179  20.312  0.00  0.00    +0.000 C 
ATOM     19  C   UNL     1       1.034   4.727  20.429  0.00  0.00    +0.000 C 
ATOM     20  H   UNL     1       5.583   7.413  16.098  0.00  0.00    +0.000 HD
ATOM     21  H   UNL     1       4.723   7.933  17.475  0.00  0.00    +0.000 HD
ENDBRANCH   3   7
BRANCH   1  23
ATOM     22  C   UNL     1      -0.093   9.053  22.086  0.00  0.00    +0.000 C 
ATOM     23  O   UNL     1       0.991   9.735  21.442  0.00  0.00    +0.000 OA
ENDBRANCH   1  23
BRANCH   6  24
ATOM     24  C   UNL     1       1.025  11.532  19.205  0.00  0.00    +0.000 C 
BRANCH  24  25
ATOM     25  C   UNL     1      -0.482  11.818  19.185  0.00  0.00    +0.000 C 
ATOM     26  O   UNL     1      -1.094  11.834  18.119  0.00  0.00    +0.000 OA
ATOM     27  N   UNL     1      -1.006  12.020  20.449  0.00  0.00    +0.000 N 
ATOM     28  C   UNL     1      -2.350  12.275  20.766  0.00  0.00    +0.000 A 
ATOM     29  C   UNL     1      -2.645  12.528  22.101  0.00  0.00    +0.000 A 
ATOM     30  C   UNL     1      -3.965  12.787  22.482  0.00  0.00    +0.000 A 
ATOM     31  C   UNL     1      -4.990  12.793  21.530  0.00  0.00    +0.000 A 
ATOM     32  C   UNL     1      -4.592  12.516  20.223  0.00  0.00    +0.000 A 
ATOM     33  N   UNL     1      -3.315  12.267  19.832  0.00  0.00    +0.000 NA
ATOM     34  H   UNL     1      -0.348  12.027  21.216  0.00  0.00    +0.000 HD
BRANCH  31  35
ATOM     35  C   UNL     1      -6.443  13.076  21.890  0.00  0.00    +0.000 C 
ATOM     36  C   UNL     1      -6.580  14.270  22.846  0.00  0.00    +0.000 C 
ATOM     37  C   UNL     1      -7.300  13.310  20.641  0.00  0.00    +0.000 C 
BRANCH  35  38
ATOM     38  O   UNL     1      -7.020  11.941  22.552  0.00  0.00    +0.000 OA
ATOM     39  H   UNL     1      -7.424  11.375  21.869  0.00  0.00    +0.000 HD
ENDBRANCH  35  38
ENDBRANCH  31  35
ENDBRANCH  24  25
ENDBRANCH   6  24
TORSDOF 6
ENDMDL
MODEL 4
REMARK VINA RESULT:      -9.0      1.571      2.869
REMARK  Name = 
REMARK  9 active torsions:
REMARK  status: ('A' for Active; 'I' for Inactive)
REMARK    1  A    between atoms: C_1  and  O_2
REMARK    2  A    between atoms: O_2  and  C_3
REMARK    3  A    between atoms: C_5  and  N_6
REMARK    4  A    between atoms: C_21  and  C_22
REMARK    5  A    between atoms: C_22  and  C_23
REMARK    6  A    between atoms: C_29  and  C_30
REMARK    7  A    between atoms: C_30  and  C_31
REMARK    8  A    between atoms: C_30  and  C_32
REMARK    9  A    between atoms: C_30  and  O_33
REMARK                            x       y       z     vdW  Elec       q    Type
REMARK                         _______ _______ _______ _____ _____    ______ ____
ROOT
ATOM      1  C   UNL     1       1.654   8.408  20.044  0.00  0.00    +0.000 A 
ATOM      2  C   UNL     1       2.278   7.204  19.681  0.00  0.00    +0.000 A 
ATOM      3  C   UNL     1       2.635   6.939  18.357  0.00  0.00    +0.000 A 
ATOM      4  C   UNL     1       2.394   7.922  17.391  0.00  0.00    +0.000 A 
ATOM      5  C   UNL     1       1.840   9.154  17.756  0.00  0.00    +0.000 A 
ATOM      6  C   UNL     1       1.494   9.426  19.090  0.00  0.00    +0.000 A 
ENDROOT
BRANCH   3   7
ATOM      7  N   UNL     1       3.290   5.717  18.009  0.00  0.00    +0.000 N 
ATOM      8  C   UNL     1       2.786   4.464  18.277  0.00  0.00    +0.000 A 
ATOM      9  C   UNL     1       3.578   3.502  17.722  0.00  0.00    +0.000 A 
ATOM     10  C   UNL     1       4.651   4.129  17.108  0.00  0.00    +0.000 A 
ATOM     11  N   UNL     1       5.672   3.555  16.445  0.00  0.00    +0.000 NA
ATOM     12  C   UNL     1       6.556   4.434  15.979  0.00  0.00    +0.000 A 
ATOM     13  N   UNL     1       6.527   5.766  16.114  0.00  0.00    +0.000 NA
ATOM     14  C   UNL     1       5.508   6.336  16.786  0.00  0.00    +0.000 A 
ATOM     15  N   UNL     1       5.621   7.712  16.935  0.00  0.00    +0.000 N 
ATOM     16  C   UNL     1       4.493   5.516  17.290  0.00  0.00    +0.000 A 
ATOM     17  C   UNL     1       3.024   2.146  17.886  0.00  0.00    +0.000 C 
ATOM     18  C   UNL     1       1.548   2.462  18.286  0.00  0.00    +0.000 C 
ATOM     19  C   UNL     1       1.533   3.920  18.858  0.00  0.00    +0.000 C 
ATOM     20  H   UNL     1       6.555   7.987  16.642  0.00  0.00    +0.000 HD
ATOM     21  H   UNL     1       5.359   8.040  17.856  0.00  0.00    +0.000 HD
ENDBRANCH   3   7
BRANCH   1  23
ATOM     22  C   UNL     1      -0.144   8.325  21.584  0.00  0.00    +0.000 C 
ATOM     23  O   UNL     1       1.224   8.660  21.323  0.00  0.00    +0.000 OA
ENDBRANCH   1  23
BRANCH   6  24
ATOM     24  C   UNL     1       0.970  10.809  19.437  0.00  0.00    +0.000 C 
BRANCH  24  25
ATOM     25  C   UNL     1      -0.491  11.024  19.021  0.00  0.00    +0.000 C 
ATOM     26  O   UNL     1      -0.926  10.496  18.000  0.00  0.00    +0.000 OA
ATOM     27  N   UNL     1      -1.189  11.823  19.908  0.00  0.00    +0.000 N 
ATOM     28  C   UNL     1      -2.543  12.182  19.822  0.00  0.00    +0.000 A 
ATOM     29  C   UNL     1      -3.023  13.064  20.784  0.00  0.00    +0.000 A 
ATOM     30  C   UNL     1      -4.365  13.459  20.754  0.00  0.00    +0.000 A 
ATOM     31  C   UNL     1      -5.225  12.973  19.764  0.00  0.00    +0.000 A 
ATOM     32  C   UNL     1      -4.650  12.087  18.855  0.00  0.00    +0.000 A 
ATOM     33  N   UNL     1      -3.349  11.695  18.864  0.00  0.00    +0.000 NA
ATOM     34  H   UNL     1      -0.659  12.222  20.671  0.00  0.00    +0.000 HD
BRANCH  31  35
ATOM     35  C   UNL     1      -6.692  13.377  19.682  0.00  0.00    +0.000 C 
ATOM     36  C   UNL     1      -6.864  14.873  19.376  0.00  0.00    +0.000 C 
ATOM     37  C   UNL     1      -7.450  12.544  18.643  0.00  0.00    +0.000 C 
BRANCH  35  38
ATOM     38  O   UNL     1      -7.346  13.128  20.935  0.00  0.00    +0.000 OA
ATOM     39  H   UNL     1      -8.102  13.741  21.000  0.00  0.00    +0.000 HD
ENDBRANCH  35  38
ENDBRANCH  31  35
ENDBRANCH  24  25
ENDBRANCH   6  24
TORSDOF 6
ENDMDL
MODEL 5
REMARK VINA RESULT:      -8.9      2.442     10.720
REMARK  Name = 
REMARK  9 active torsions:
REMARK  status: ('A' for Active; 'I' for Inactive)
REMARK    1  A    between atoms: C_1  and  O_2
REMARK    2  A    between atoms: O_2  and  C_3
REMARK    3  A    between atoms: C_5  and  N_6
REMARK    4  A    between atoms: C_21  and  C_22
REMARK    5  A    between atoms: C_22  and  C_23
REMARK    6  A    between atoms: C_29  and  C_30
REMARK    7  A    between atoms: C_30  and  C_31
REMARK    8  A    between atoms: C_30  and  C_32
REMARK    9  A    between atoms: C_30  and  O_33
REMARK                            x       y       z     vdW  Elec       q    Type
REMARK                         _______ _______ _______ _____ _____    ______ ____
ROOT
ATOM      1  C   UNL     1      -0.263  12.259  19.075  0.00  0.00    +0.000 A 
ATOM      2  C   UNL     1      -1.546  12.668  19.474  0.00  0.00    +0.000 A 
ATOM      3  C   UNL     1      -2.669  11.870  19.244  0.00  0.00    +0.000 A 
ATOM      4  C   UNL     1      -2.489  10.623  18.638  0.00  0.00    +0.000 A 
ATOM      5  C   UNL     1      -1.206  10.175  18.303  0.00  0.00    +0.000 A 
ATOM      6  C   UNL     1      -0.075  10.971  18.547  0.00  0.00    +0.000 A 
ENDROOT
BRANCH   3   7
ATOM      7  N   UNL     1      -3.965  12.292  19.678  0.00  0.00    +0.000 N 
ATOM      8  C   UNL     1      -5.036  12.491  18.836  0.00  0.00    +0.000 A 
ATOM      9  C   UNL     1      -6.160  12.777  19.554  0.00  0.00    +0.000 A 
ATOM     10  C   UNL     1      -5.817  12.806  20.897  0.00  0.00    +0.000 A 
ATOM     11  N   UNL     1      -6.621  13.054  21.948  0.00  0.00    +0.000 NA
ATOM     12  C   UNL     1      -5.984  13.022  23.116  0.00  0.00    +0.000 A 
ATOM     13  N   UNL     1      -4.682  12.789  23.325  0.00  0.00    +0.000 NA
ATOM     14  C   UNL     1      -3.879  12.550  22.271  0.00  0.00    +0.000 A 
ATOM     15  N   UNL     1      -2.538  12.403  22.596  0.00  0.00    +0.000 N 
ATOM     16  C   UNL     1      -4.442  12.518  20.991  0.00  0.00    +0.000 A 
ATOM     17  C   UNL     1      -7.361  12.891  18.708  0.00  0.00    +0.000 C 
ATOM     18  C   UNL     1      -6.868  12.231  17.382  0.00  0.00    +0.000 C 
ATOM     19  C   UNL     1      -5.303  12.309  17.388  0.00  0.00    +0.000 C 
ATOM     20  H   UNL     1      -2.415  12.678  23.567  0.00  0.00    +0.000 HD
ATOM     21  H   UNL     1      -1.913  12.868  21.949  0.00  0.00    +0.000 HD
ENDBRANCH   3   7
BRANCH   1  23
ATOM     22  C   UNL     1       0.658  14.430  18.852  0.00  0.00    +0.000 C 
ATOM     23  O   UNL     1       0.844  13.057  19.219  0.00  0.00    +0.000 OA
ENDBRANCH   1  23
BRANCH   6  24
ATOM     24  C   UNL     1       1.297  10.399  18.235  0.00  0.00    +0.000 C 
BRANCH  24  25
ATOM     25  C   UNL     1       1.586   9.085  18.972  0.00  0.00    +0.000 C 
ATOM     26  O   UNL     1       1.240   8.945  20.143  0.00  0.00    +0.000 OA
ATOM     27  N   UNL     1       2.227   8.154  18.176  0.00  0.00    +0.000 N 
ATOM     28  C   UNL     1       2.602   6.853  18.547  0.00  0.00    +0.000 A 
ATOM     29  C   UNL     1       3.311   6.110  17.610  0.00  0.00    +0.000 A 
ATOM     30  C   UNL     1       3.712   4.806  17.919  0.00  0.00    +0.000 A 
ATOM     31  C   UNL     1       3.405   4.246  19.164  0.00  0.00    +0.000 A 
ATOM     32  C   UNL     1       2.682   5.067  20.026  0.00  0.00    +0.000 A 
ATOM     33  N   UNL     1       2.287   6.337  19.747  0.00  0.00    +0.000 NA
ATOM     34  H   UNL     1       2.489   8.456  17.248  0.00  0.00    +0.000 HD
BRANCH  31  35
ATOM     35  C   UNL     1       3.824   2.833  19.553  0.00  0.00    +0.000 C 
ATOM     36  C   UNL     1       3.275   2.425  20.928  0.00  0.00    +0.000 C 
ATOM     37  C   UNL     1       3.397   1.807  18.498  0.00  0.00    +0.000 C 
BRANCH  35  38
ATOM     38  O   UNL     1       5.254   2.743  19.629  0.00  0.00    +0.000 OA
ATOM     39  H   UNL     1       5.619   3.184  18.840  0.00  0.00    +0.000 HD
ENDBRANCH  35  38
ENDBRANCH  31  35
ENDBRANCH  24  25
ENDBRANCH   6  24
TORSDOF 6
ENDMDL
MODEL 6
REMARK VINA RESULT:      -8.9      2.389     10.922
REMARK  Name = 
REMARK  9 active torsions:
REMARK  status: ('A' for Active; 'I' for Inactive)
REMARK    1  A    between atoms: C_1  and  O_2
REMARK    2  A    between atoms: O_2  and  C_3
REMARK    3  A    between atoms: C_5  and  N_6
REMARK    4  A    between atoms: C_21  and  C_22
REMARK    5  A    between atoms: C_22  and  C_23
REMARK    6  A    between atoms: C_29  and  C_30
REMARK    7  A    between atoms: C_30  and  C_31
REMARK    8  A    between atoms: C_30  and  C_32
REMARK    9  A    between atoms: C_30  and  O_33
REMARK                            x       y       z     vdW  Elec       q    Type
REMARK                         _______ _______ _______ _____ _____    ______ ____
ROOT
ATOM      1  C   UNL     1      -0.363  12.374  19.069  0.00  0.00    +0.000 A 
ATOM      2  C   UNL     1      -1.667  12.747  19.433  0.00  0.00    +0.000 A 
ATOM      3  C   UNL     1      -2.758  11.911  19.188  0.00  0.00    +0.000 A 
ATOM      4  C   UNL     1      -2.525  10.663  18.603  0.00  0.00    +0.000 A 
ATOM      5  C   UNL     1      -1.222  10.252  18.304  0.00  0.00    +0.000 A 
ATOM      6  C   UNL     1      -0.122  11.086  18.563  0.00  0.00    +0.000 A 
ENDROOT
BRANCH   3   7
ATOM      7  N   UNL     1      -4.076  12.298  19.587  0.00  0.00    +0.000 N 
ATOM      8  C   UNL     1      -4.440  12.588  20.883  0.00  0.00    +0.000 A 
ATOM      9  C   UNL     1      -5.728  13.035  20.928  0.00  0.00    +0.000 A 
ATOM     10  C   UNL     1      -6.241  13.002  19.641  0.00  0.00    +0.000 A 
ATOM     11  N   UNL     1      -7.475  13.354  19.236  0.00  0.00    +0.000 NA
ATOM     12  C   UNL     1      -7.665  13.195  17.928  0.00  0.00    +0.000 A 
ATOM     13  N   UNL     1      -6.787  12.729  17.031  0.00  0.00    +0.000 NA
ATOM     14  C   UNL     1      -5.556  12.370  17.440  0.00  0.00    +0.000 A 
ATOM     15  N   UNL     1      -4.757  11.827  16.444  0.00  0.00    +0.000 N 
ATOM     16  C   UNL     1      -5.223  12.530  18.790  0.00  0.00    +0.000 A 
ATOM     17  C   UNL     1      -6.133  13.464  22.278  0.00  0.00    +0.000 C 
ATOM     18  C   UNL     1      -4.749  13.587  22.991  0.00  0.00    +0.000 C 
ATOM     19  C   UNL     1      -3.742  12.696  22.188  0.00  0.00    +0.000 C 
ATOM     20  H   UNL     1      -5.340  11.657  15.628  0.00  0.00    +0.000 HD
ATOM     21  H   UNL     1      -4.222  11.023  16.749  0.00  0.00    +0.000 HD
ENDBRANCH   3   7
BRANCH   1  23
ATOM     22  C   UNL     1       0.404  14.607  19.259  0.00  0.00    +0.000 C 
ATOM     23  O   UNL     1       0.715  13.209  19.228  0.00  0.00    +0.000 OA
ENDBRANCH   1  23
BRANCH   6  24
ATOM     24  C   UNL     1       1.274  10.554  18.291  0.00  0.00    +0.000 C 
BRANCH  24  25
ATOM     25  C   UNL     1       1.551   9.206  18.970  0.00  0.00    +0.000 C 
ATOM     26  O   UNL     1       1.133   8.990  20.106  0.00  0.00    +0.000 OA
ATOM     27  N   UNL     1       2.269   8.339  18.168  0.00  0.00    +0.000 N 
ATOM     28  C   UNL     1       2.655   7.028  18.490  0.00  0.00    +0.000 A 
ATOM     29  C   UNL     1       3.445   6.358  17.562  0.00  0.00    +0.000 A 
ATOM     30  C   UNL     1       3.861   5.049  17.823  0.00  0.00    +0.000 A 
ATOM     31  C   UNL     1       3.488   4.409  19.011  0.00  0.00    +0.000 A 
ATOM     32  C   UNL     1       2.687   5.161  19.868  0.00  0.00    +0.000 A 
ATOM     33  N   UNL     1       2.277   6.436  19.635  0.00  0.00    +0.000 NA
ATOM     34  H   UNL     1       2.583   8.700  17.278  0.00  0.00    +0.000 HD
BRANCH  31  35
ATOM     35  C   UNL     1       3.920   2.988  19.347  0.00  0.00    +0.000 C 
ATOM     36  C   UNL     1       3.378   2.524  20.707  0.00  0.00    +0.000 C 
ATOM     37  C   UNL     1       3.500   1.997  18.255  0.00  0.00    +0.000 C 
BRANCH  35  38
ATOM     38  O   UNL     1       5.351   2.907  19.418  0.00  0.00    +0.000 OA
ATOM     39  H   UNL     1       5.713   3.717  19.011  0.00  0.00    +0.000 HD
ENDBRANCH  35  38
ENDBRANCH  31  35
ENDBRANCH  24  25
ENDBRANCH   6  24
TORSDOF 6
ENDMDL
MODEL 7
REMARK VINA RESULT:      -8.9      1.476      2.927
REMARK  Name = 
REMARK  9 active torsions:
REMARK  status: ('A' for Active; 'I' for Inactive)
REMARK    1  A    between atoms: C_1  and  O_2
REMARK    2  A    between atoms: O_2  and  C_3
REMARK    3  A    between atoms: C_5  and  N_6
REMARK    4  A    between atoms: C_21  and  C_22
REMARK    5  A    between atoms: C_22  and  C_23
REMARK    6  A    between atoms: C_29  and  C_30
REMARK    7  A    between atoms: C_30  and  C_31
REMARK    8  A    between atoms: C_30  and  C_32
REMARK    9  A    between atoms: C_30  and  O_33
REMARK                            x       y       z     vdW  Elec       q    Type
REMARK                         _______ _______ _______ _____ _____    ______ ____
ROOT
ATOM      1  C   UNL     1       1.495   9.119  20.227  0.00  0.00    +0.000 A 
ATOM      2  C   UNL     1       1.922   7.786  20.114  0.00  0.00    +0.000 A 
ATOM      3  C   UNL     1       2.194   7.212  18.871  0.00  0.00    +0.000 A 
ATOM      4  C   UNL     1       2.073   8.007  17.726  0.00  0.00    +0.000 A 
ATOM      5  C   UNL     1       1.720   9.356  17.835  0.00  0.00    +0.000 A 
ATOM      6  C   UNL     1       1.459   9.939  19.087  0.00  0.00    +0.000 A 
ENDROOT
BRANCH   3   7
ATOM      7  N   UNL     1       2.650   5.859  18.776  0.00  0.00    +0.000 N 
ATOM      8  C   UNL     1       2.111   4.809  19.486  0.00  0.00    +0.000 A 
ATOM      9  C   UNL     1       2.677   3.631  19.096  0.00  0.00    +0.000 A 
ATOM     10  C   UNL     1       3.638   3.910  18.137  0.00  0.00    +0.000 A 
ATOM     11  N   UNL     1       4.435   3.039  17.491  0.00  0.00    +0.000 NA
ATOM     12  C   UNL     1       5.267   3.625  16.633  0.00  0.00    +0.000 A 
ATOM     13  N   UNL     1       5.382   4.935  16.379  0.00  0.00    +0.000 NA
ATOM     14  C   UNL     1       4.589   5.804  17.034  0.00  0.00    +0.000 A 
ATOM     15  N   UNL     1       4.849   7.138  16.753  0.00  0.00    +0.000 N 
ATOM     16  C   UNL     1       3.644   5.303  17.934  0.00  0.00    +0.000 A 
ATOM     17  C   UNL     1       2.059   2.462  19.747  0.00  0.00    +0.000 C 
ATOM     18  C   UNL     1       0.740   3.082  20.307  0.00  0.00    +0.000 C 
ATOM     19  C   UNL     1       0.976   4.626  20.423  0.00  0.00    +0.000 C 
ATOM     20  H   UNL     1       5.716   7.188  16.224  0.00  0.00    +0.000 HD
ATOM     21  H   UNL     1       4.825   7.734  17.571  0.00  0.00    +0.000 HD
ENDBRANCH   3   7
BRANCH   1  23
ATOM     22  C   UNL     1       0.227   8.919  22.217  0.00  0.00    +0.000 C 
ATOM     23  O   UNL     1       1.148   9.683  21.429  0.00  0.00    +0.000 OA
ENDBRANCH   1  23
BRANCH   6  24
ATOM     24  C   UNL     1       1.158  11.425  19.148  0.00  0.00    +0.000 C 
BRANCH  24  25
ATOM     25  C   UNL     1      -0.280  11.734  19.587  0.00  0.00    +0.000 C 
ATOM     26  O   UNL     1      -0.500  12.170  20.715  0.00  0.00    +0.000 OA
ATOM     27  N   UNL     1      -1.210  11.483  18.595  0.00  0.00    +0.000 N 
ATOM     28  C   UNL     1      -2.596  11.688  18.676  0.00  0.00    +0.000 A 
ATOM     29  C   UNL     1      -3.357  11.292  17.583  0.00  0.00    +0.000 A 
ATOM     30  C   UNL     1      -4.744  11.471  17.602  0.00  0.00    +0.000 A 
ATOM     31  C   UNL     1      -5.369  12.046  18.713  0.00  0.00    +0.000 A 
ATOM     32  C   UNL     1      -4.518  12.420  19.751  0.00  0.00    +0.000 A 
ATOM     33  N   UNL     1      -3.169  12.250  19.754  0.00  0.00    +0.000 NA
ATOM     34  H   UNL     1      -0.860  11.071  17.741  0.00  0.00    +0.000 HD
BRANCH  31  35
ATOM     35  C   UNL     1      -6.876  12.257  18.788  0.00  0.00    +0.000 C 
ATOM     36  C   UNL     1      -7.279  13.144  19.976  0.00  0.00    +0.000 C 
ATOM     37  C   UNL     1      -7.429  12.851  17.487  0.00  0.00    +0.000 C 
BRANCH  35  38
ATOM     38  O   UNL     1      -7.546  11.000  18.958  0.00  0.00    +0.000 OA
ATOM     39  H   UNL     1      -7.157  10.562  19.738  0.00  0.00    +0.000 HD
ENDBRANCH  35  38
ENDBRANCH  31  35
ENDBRANCH  24  25
ENDBRANCH   6  24
TORSDOF 6
ENDMDL
MODEL 8
REMARK VINA RESULT:      -8.9      1.040      1.199
REMARK  Name = 
REMARK  9 active torsions:
REMARK  status: ('A' for Active; 'I' for Inactive)
REMARK    1  A    between atoms: C_1  and  O_2
REMARK    2  A    between atoms: O_2  and  C_3
REMARK    3  A    between atoms: C_5  and  N_6
REMARK    4  A    between atoms: C_21  and  C_22
REMARK    5  A    between atoms: C_22  and  C_23
REMARK    6  A    between atoms: C_29  and  C_30
REMARK    7  A    between atoms: C_30  and  C_31
REMARK    8  A    between atoms: C_30  and  C_32
REMARK    9  A    between atoms: C_30  and  O_33
REMARK                            x       y       z     vdW  Elec       q    Type
REMARK                         _______ _______ _______ _____ _____    ______ ____
ROOT
ATOM      1  C   UNL     1       1.508   8.566  20.169  0.00  0.00    +0.000 A 
ATOM      2  C   UNL     1       2.132   7.353  19.838  0.00  0.00    +0.000 A 
ATOM      3  C   UNL     1       2.456   7.038  18.516  0.00  0.00    +0.000 A 
ATOM      4  C   UNL     1       2.182   7.979  17.519  0.00  0.00    +0.000 A 
ATOM      5  C   UNL     1       1.628   9.221  17.848  0.00  0.00    +0.000 A 
ATOM      6  C   UNL     1       1.315   9.544  19.179  0.00  0.00    +0.000 A 
ENDROOT
BRANCH   3   7
ATOM      7  N   UNL     1       3.112   5.807  18.200  0.00  0.00    +0.000 N 
ATOM      8  C   UNL     1       4.184   5.699  17.342  0.00  0.00    +0.000 A 
ATOM      9  C   UNL     1       4.662   4.421  17.334  0.00  0.00    +0.000 A 
ATOM     10  C   UNL     1       3.865   3.658  18.173  0.00  0.00    +0.000 A 
ATOM     11  N   UNL     1       3.981   2.347  18.452  0.00  0.00    +0.000 NA
ATOM     12  C   UNL     1       3.048   1.903  19.291  0.00  0.00    +0.000 A 
ATOM     13  N   UNL     1       2.051   2.607  19.843  0.00  0.00    +0.000 NA
ATOM     14  C   UNL     1       1.933   3.917  19.555  0.00  0.00    +0.000 A 
ATOM     15  N   UNL     1       0.820   4.528  20.116  0.00  0.00    +0.000 N 
ATOM     16  C   UNL     1       2.881   4.508  18.714  0.00  0.00    +0.000 A 
ATOM     17  C   UNL     1       5.878   4.275  16.515  0.00  0.00    +0.000 C 
ATOM     18  C   UNL     1       6.310   5.765  16.336  0.00  0.00    +0.000 C 
ATOM     19  C   UNL     1       5.034   6.642  16.574  0.00  0.00    +0.000 C 
ATOM     20  H   UNL     1       0.221   3.802  20.502  0.00  0.00    +0.000 HD
ATOM     21  H   UNL     1       0.350   5.165  19.486  0.00  0.00    +0.000 HD
ENDBRANCH   3   7
BRANCH   1  23
ATOM     22  C   UNL     1      -0.239   8.504  21.766  0.00  0.00    +0.000 C 
ATOM     23  O   UNL     1       1.110   8.867  21.447  0.00  0.00    +0.000 OA
ENDBRANCH   1  23
BRANCH   6  24
ATOM     24  C   UNL     1       0.790  10.936  19.484  0.00  0.00    +0.000 C 
BRANCH  24  25
ATOM     25  C   UNL     1      -0.672  11.136  19.062  0.00  0.00    +0.000 C 
ATOM     26  O   UNL     1      -1.099  10.601  18.041  0.00  0.00    +0.000 OA
ATOM     27  N   UNL     1      -1.381  11.932  19.944  0.00  0.00    +0.000 N 
ATOM     28  C   UNL     1      -2.738  12.278  19.852  0.00  0.00    +0.000 A 
ATOM     29  C   UNL     1      -3.229  13.158  20.810  0.00  0.00    +0.000 A 
ATOM     30  C   UNL     1      -4.574  13.541  20.774  0.00  0.00    +0.000 A 
ATOM     31  C   UNL     1      -5.427  13.044  19.782  0.00  0.00    +0.000 A 
ATOM     32  C   UNL     1      -4.840  12.160  18.879  0.00  0.00    +0.000 A 
ATOM     33  N   UNL     1      -3.536  11.780  18.893  0.00  0.00    +0.000 NA
ATOM     34  H   UNL     1      -0.857  12.338  20.707  0.00  0.00    +0.000 HD
BRANCH  31  35
ATOM     35  C   UNL     1      -6.897  13.434  19.694  0.00  0.00    +0.000 C 
ATOM     36  C   UNL     1      -7.552  12.932  18.399  0.00  0.00    +0.000 C 
ATOM     37  C   UNL     1      -7.688  12.931  20.906  0.00  0.00    +0.000 C 
BRANCH  35  38
ATOM     38  O   UNL     1      -7.033  14.863  19.705  0.00  0.00    +0.000 OA
ATOM     39  H   UNL     1      -7.275  15.129  20.611  0.00  0.00    +0.000 HD
ENDBRANCH  35  38
ENDBRANCH  31  35
ENDBRANCH  24  25
ENDBRANCH   6  24
TORSDOF 6
ENDMDL
MODEL 9
REMARK VINA RESULT:      -8.9      1.228      2.754
REMARK  Name = 
REMARK  9 active torsions:
REMARK  status: ('A' for Active; 'I' for Inactive)
REMARK    1  A    between atoms: C_1  and  O_2
REMARK    2  A    between atoms: O_2  and  C_3
REMARK    3  A    between atoms: C_5  and  N_6
REMARK    4  A    between atoms: C_21  and  C_22
REMARK    5  A    between atoms: C_22  and  C_23
REMARK    6  A    between atoms: C_29  and  C_30
REMARK    7  A    between atoms: C_30  and  C_31
REMARK    8  A    between atoms: C_30  and  C_32
REMARK    9  A    between atoms: C_30  and  O_33
REMARK                            x       y       z     vdW  Elec       q    Type
REMARK                         _______ _______ _______ _____ _____    ______ ____
ROOT
ATOM      1  C   UNL     1       1.190   9.340  20.198  0.00  0.00    +0.000 A 
ATOM      2  C   UNL     1       1.796   8.074  20.248  0.00  0.00    +0.000 A 
ATOM      3  C   UNL     1       2.239   7.434  19.089  0.00  0.00    +0.000 A 
ATOM      4  C   UNL     1       2.105   8.098  17.866  0.00  0.00    +0.000 A 
ATOM      5  C   UNL     1       1.570   9.389  17.815  0.00  0.00    +0.000 A 
ATOM      6  C   UNL     1       1.136  10.040  18.982  0.00  0.00    +0.000 A 
ENDROOT
BRANCH   3   7
ATOM      7  N   UNL     1       2.876   6.154  19.161  0.00  0.00    +0.000 N 
ATOM      8  C   UNL     1       2.369   5.075  19.850  0.00  0.00    +0.000 A 
ATOM      9  C   UNL     1       3.138   3.969  19.636  0.00  0.00    +0.000 A 
ATOM     10  C   UNL     1       4.198   4.333  18.820  0.00  0.00    +0.000 A 
ATOM     11  N   UNL     1       5.195   3.551  18.367  0.00  0.00    +0.000 NA
ATOM     12  C   UNL     1       6.072   4.204  17.609  0.00  0.00    +0.000 A 
ATOM     13  N   UNL     1       6.057   5.504  17.285  0.00  0.00    +0.000 NA
ATOM     14  C   UNL     1       5.063   6.285  17.747  0.00  0.00    +0.000 A 
ATOM     15  N   UNL     1       5.190   7.627  17.418  0.00  0.00    +0.000 N 
ATOM     16  C   UNL     1       4.056   5.702  18.524  0.00  0.00    +0.000 A 
ATOM     17  C   UNL     1       2.579   2.759  20.264  0.00  0.00    +0.000 C 
ATOM     18  C   UNL     1       1.117   3.217  20.568  0.00  0.00    +0.000 C 
ATOM     19  C   UNL     1       1.129   4.782  20.612  0.00  0.00    +0.000 C 
ATOM     20  H   UNL     1       6.117   7.771  17.026  0.00  0.00    +0.000 HD
ATOM     21  H   UNL     1       4.957   8.253  18.179  0.00  0.00    +0.000 HD
ENDBRANCH   3   7
BRANCH   1  23
ATOM     22  C   UNL     1      -0.299   9.195  22.034  0.00  0.00    +0.000 C 
ATOM     23  O   UNL     1       0.677   9.956  21.312  0.00  0.00    +0.000 OA
ENDBRANCH   1  23
BRANCH   6  24
ATOM     24  C   UNL     1       0.638  11.470  18.874  0.00  0.00    +0.000 C 
BRANCH  24  25
ATOM     25  C   UNL     1      -0.882  11.568  18.688  0.00  0.00    +0.000 C 
ATOM     26  O   UNL     1      -1.397  11.228  17.624  0.00  0.00    +0.000 OA
ATOM     27  N   UNL     1      -1.531  12.042  19.813  0.00  0.00    +0.000 N 
ATOM     28  C   UNL     1      -2.915  12.219  19.968  0.00  0.00    +0.000 A 
ATOM     29  C   UNL     1      -3.348  12.786  21.161  0.00  0.00    +0.000 A 
ATOM     30  C   UNL     1      -4.715  12.987  21.378  0.00  0.00    +0.000 A 
ATOM     31  C   UNL     1      -5.648  12.622  20.401  0.00  0.00    +0.000 A 
ATOM     32  C   UNL     1      -5.114  12.052  19.248  0.00  0.00    +0.000 A 
ATOM     33  N   UNL     1      -3.790  11.853  19.017  0.00  0.00    +0.000 NA
ATOM     34  H   UNL     1      -0.946  12.329  20.586  0.00  0.00    +0.000 HD
BRANCH  31  35
ATOM     35  C   UNL     1      -7.147  12.826  20.583  0.00  0.00    +0.000 C 
ATOM     36  C   UNL     1      -7.790  11.696  21.401  0.00  0.00    +0.000 C 
ATOM     37  C   UNL     1      -7.458  14.179  21.234  0.00  0.00    +0.000 C 
BRANCH  35  38
ATOM     38  O   UNL     1      -7.804  12.847  19.308  0.00  0.00    +0.000 OA
ATOM     39  H   UNL     1      -7.189  13.246  18.666  0.00  0.00    +0.000 HD
ENDBRANCH  35  38
ENDBRANCH  31  35
ENDBRANCH  24  25
ENDBRANCH   6  24
TORSDOF 6
ENDMDL
