MODEL 1
REMARK VINA RESULT:      -6.1      0.000      0.000
REMARK  Name = 
REMARK  14 active torsions:
REMARK  status: ('A' for Active; 'I' for Inactive)
REMARK    1  A    between atoms: C_1  and  O_2
REMARK    2  A    between atoms: O_2  and  C_3
REMARK    3  A    between atoms: C_3  and  C_4
REMARK    4  A    between atoms: C_3  and  C_8
REMARK    5  A    between atoms: C_5  and  C_6
REMARK    6  A    between atoms: C_5  and  C_7
REMARK    7  A    between atoms: C_8  and  C_9
REMARK    8  A    between atoms: C_9  and  C_10
REMARK    9  A    between atoms: C_9  and  C_11
REMARK   10  A    between atoms: C_14  and  C_15
REMARK   11  A    between atoms: C_20  and  C_21
REMARK   12  A    between atoms: C_20  and  C_22
REMARK   13  A    between atoms: C_27  and  C_28
REMARK   14  A    between atoms: C_32  and  C_33
REMARK                            x       y       z     vdW  Elec       q    Type
REMARK                         _______ _______ _______ _____ _____    ______ ____
ROOT
ATOM      1  C   UNL     1       0.686   9.276  19.644  0.00  0.00    +0.000 C 
ATOM      2  C   UNL     1       1.149   9.763  18.238  0.00  0.00    +0.000 C 
ATOM      3  C   UNL     1       0.211  10.909  17.893  0.00  0.00    +0.000 C 
ATOM      4  C   UNL     1      -0.415  11.385  19.242  0.00  0.00    +0.000 C 
ATOM      5  C   UNL     1      -1.906  10.913  19.196  0.00  0.00    +0.000 C 
ATOM      6  C   UNL     1      -0.482  12.888  19.501  0.00  0.00    +0.000 C 
ATOM      7  C   UNL     1      -0.499  13.710  18.447  0.00  0.00    +0.000 C 
ATOM      8  C   UNL     1      -0.263  15.159  18.576  0.00  0.00    +0.000 C 
ATOM      9  C   UNL     1       0.328  15.468  19.946  0.00  0.00    +0.000 C 
ATOM     10  C   UNL     1       1.879  15.043  20.272  0.00  0.00    +0.000 C 
ATOM     11  C   UNL     1       2.348  14.308  21.614  0.00  0.00    +0.000 C 
ATOM     12  C   UNL     1       2.580  14.337  19.132  0.00  0.00    +0.000 C 
ATOM     13  C   UNL     1       2.274  16.420  20.719  0.00  0.00    +0.000 C 
ATOM     14  O   UNL     1       3.177  17.089  20.181  0.00  0.00    +0.000 OA
ATOM     15  C   UNL     1       1.411  16.908  21.904  0.00  0.00    +0.000 C 
ATOM     16  C   UNL     1       0.156  15.929  22.294  0.00  0.00    +0.000 C 
ATOM     17  C   UNL     1      -0.524  14.998  21.119  0.00  0.00    +0.000 C 
ATOM     18  C   UNL     1      -2.024  15.379  21.105  0.00  0.00    +0.000 C 
ATOM     19  C   UNL     1      -0.521  13.384  20.927  0.00  0.00    +0.000 C 
ATOM     20  C   UNL     1      -0.553  12.440  21.904  0.00  0.00    +0.000 C 
ATOM     21  C   UNL     1      -0.321  10.909  21.675  0.00  0.00    +0.000 C 
ATOM     22  C   UNL     1       0.455  10.662  20.346  0.00  0.00    +0.000 C 
ATOM     23  C   UNL     1       1.894  11.175  20.646  0.00  0.00    +0.000 C 
ENDROOT
BRANCH   1  24
ATOM     24  C   UNL     1       1.695   8.253  20.251  0.00  0.00    +0.000 C 
ATOM     25  C   UNL     1       1.035   7.488  21.396  0.00  0.00    +0.000 C 
BRANCH  24  26
ATOM     26  C   UNL     1       2.219   7.300  19.149  0.00  0.00    +0.000 C 
BRANCH  26  27
ATOM     27  C   UNL     1       3.087   6.083  19.542  0.00  0.00    +0.000 C 
BRANCH  27  28
ATOM     28  C   UNL     1       2.262   4.873  19.145  0.00  0.00    +0.000 C 
ATOM     29  C   UNL     1       1.721   3.920  19.930  0.00  0.00    +0.000 C 
ATOM     30  C   UNL     1       1.979   3.767  21.401  0.00  0.00    +0.000 C 
ATOM     31  C   UNL     1       0.713   2.950  19.368  0.00  0.00    +0.000 C 
ENDBRANCH  27  28
BRANCH  27  33
ATOM     32  C   UNL     1       5.181   4.965  19.146  0.00  0.00    +0.000 C 
ATOM     33  O   UNL     1       4.284   5.997  18.764  0.00  0.00    +0.000 OA
ENDBRANCH  27  33
ENDBRANCH  26  27
ENDBRANCH  24  26
ENDBRANCH   1  24
TORSDOF 5
ENDMDL
MODEL 2
REMARK VINA RESULT:      -6.1      1.154      1.300
REMARK  Name = 
REMARK  14 active torsions:
REMARK  status: ('A' for Active; 'I' for Inactive)
REMARK    1  A    between atoms: C_1  and  O_2
REMARK    2  A    between atoms: O_2  and  C_3
REMARK    3  A    between atoms: C_3  and  C_4
REMARK    4  A    between atoms: C_3  and  C_8
REMARK    5  A    between atoms: C_5  and  C_6
REMARK    6  A    between atoms: C_5  and  C_7
REMARK    7  A    between atoms: C_8  and  C_9
REMARK    8  A    between atoms: C_9  and  C_10
REMARK    9  A    between atoms: C_9  and  C_11
REMARK   10  A    between atoms: C_14  and  C_15
REMARK   11  A    between atoms: C_20  and  C_21
REMARK   12  A    between atoms: C_20  and  C_22
REMARK   13  A    between atoms: C_27  and  C_28
REMARK   14  A    between atoms: C_32  and  C_33
REMARK                            x       y       z     vdW  Elec       q    Type
REMARK                         _______ _______ _______ _____ _____    ______ ____
ROOT
ATOM      1  C   UNL     1       0.109  10.283  19.768  0.00  0.00    +0.000 C 
ATOM      2  C   UNL     1       0.320  10.797  18.312  0.00  0.00    +0.000 C 
ATOM      3  C   UNL     1      -0.553  12.038  18.206  0.00  0.00    +0.000 C 
ATOM      4  C   UNL     1      -0.841  12.499  19.670  0.00  0.00    +0.000 C 
ATOM      5  C   UNL     1      -2.349  12.163  19.920  0.00  0.00    +0.000 C 
ATOM      6  C   UNL     1      -0.708  13.986  19.984  0.00  0.00    +0.000 C 
ATOM      7  C   UNL     1      -0.860  14.859  18.982  0.00  0.00    +0.000 C 
ATOM      8  C   UNL     1      -0.463  16.273  19.104  0.00  0.00    +0.000 C 
ATOM      9  C   UNL     1       0.422  16.459  20.330  0.00  0.00    +0.000 C 
ATOM     10  C   UNL     1       1.958  15.883  20.313  0.00  0.00    +0.000 C 
ATOM     11  C   UNL     1       2.618  15.042  21.504  0.00  0.00    +0.000 C 
ATOM     12  C   UNL     1       2.340  15.176  19.031  0.00  0.00    +0.000 C 
ATOM     13  C   UNL     1       2.569  17.196  20.710  0.00  0.00    +0.000 C 
ATOM     14  O   UNL     1       3.402  17.808  20.017  0.00  0.00    +0.000 OA
ATOM     15  C   UNL     1       2.017  17.698  22.064  0.00  0.00    +0.000 C 
ATOM     16  C   UNL     1       0.779  16.815  22.675  0.00  0.00    +0.000 C 
ATOM     17  C   UNL     1      -0.213  16.008  21.639  0.00  0.00    +0.000 C 
ATOM     18  C   UNL     1      -1.641  16.521  21.949  0.00  0.00    +0.000 C 
ATOM     19  C   UNL     1      -0.406  14.412  21.401  0.00  0.00    +0.000 C 
ATOM     20  C   UNL     1      -0.329  13.426  22.334  0.00  0.00    +0.000 C 
ATOM     21  C   UNL     1      -0.299  11.894  22.014  0.00  0.00    +0.000 C 
ATOM     22  C   UNL     1       0.162  11.647  20.546  0.00  0.00    +0.000 C 
ATOM     23  C   UNL     1       1.674  12.015  20.556  0.00  0.00    +0.000 C 
ENDROOT
BRANCH   1  24
ATOM     24  C   UNL     1       1.116   9.145  20.120  0.00  0.00    +0.000 C 
ATOM     25  C   UNL     1       0.568   8.302  21.269  0.00  0.00    +0.000 C 
BRANCH  24  26
ATOM     26  C   UNL     1       1.414   8.287  18.867  0.00  0.00    +0.000 C 
BRANCH  26  27
ATOM     27  C   UNL     1       2.714   7.454  18.804  0.00  0.00    +0.000 C 
BRANCH  27  28
ATOM     28  C   UNL     1       2.260   6.054  18.433  0.00  0.00    +0.000 C 
ATOM     29  C   UNL     1       1.969   5.015  19.241  0.00  0.00    +0.000 C 
ATOM     30  C   UNL     1       2.205   4.983  20.722  0.00  0.00    +0.000 C 
ATOM     31  C   UNL     1       1.280   3.792  18.691  0.00  0.00    +0.000 C 
ENDBRANCH  27  28
BRANCH  27  33
ATOM     32  C   UNL     1       4.476   6.879  17.270  0.00  0.00    +0.000 C 
ATOM     33  O   UNL     1       3.572   7.867  17.737  0.00  0.00    +0.000 OA
ENDBRANCH  27  33
ENDBRANCH  26  27
ENDBRANCH  24  26
ENDBRANCH   1  24
TORSDOF 5
ENDMDL
MODEL 3
REMARK VINA RESULT:      -6.0      1.315      2.027
REMARK  Name = 
REMARK  14 active torsions:
REMARK  status: ('A' for Active; 'I' for Inactive)
REMARK    1  A    between atoms: C_1  and  O_2
REMARK    2  A    between atoms: O_2  and  C_3
REMARK    3  A    between atoms: C_3  and  C_4
REMARK    4  A    between atoms: C_3  and  C_8
REMARK    5  A    between atoms: C_5  and  C_6
REMARK    6  A    between atoms: C_5  and  C_7
REMARK    7  A    between atoms: C_8  and  C_9
REMARK    8  A    between atoms: C_9  and  C_10
REMARK    9  A    between atoms: C_9  and  C_11
REMARK   10  A    between atoms: C_14  and  C_15
REMARK   11  A    between atoms: C_20  and  C_21
REMARK   12  A    between atoms: C_20  and  C_22
REMARK   13  A    between atoms: C_27  and  C_28
REMARK   14  A    between atoms: C_32  and  C_33
REMARK                            x       y       z     vdW  Elec       q    Type
REMARK                         _______ _______ _______ _____ _____    ______ ____
ROOT
ATOM      1  C   UNL     1      -0.387  10.832  20.441  0.00  0.00    +0.000 C 
ATOM      2  C   UNL     1      -0.124  11.030  18.918  0.00  0.00    +0.000 C 
ATOM      3  C   UNL     1      -0.784  12.357  18.576  0.00  0.00    +0.000 C 
ATOM      4  C   UNL     1      -0.962  13.119  19.928  0.00  0.00    +0.000 C 
ATOM      5  C   UNL     1      -2.499  13.089  20.220  0.00  0.00    +0.000 C 
ATOM      6  C   UNL     1      -0.580  14.596  19.965  0.00  0.00    +0.000 C 
ATOM      7  C   UNL     1      -0.606  15.283  18.819  0.00  0.00    +0.000 C 
ATOM      8  C   UNL     1       0.020  16.610  18.683  0.00  0.00    +0.000 C 
ATOM      9  C   UNL     1       0.949  16.868  19.862  0.00  0.00    +0.000 C 
ATOM     10  C   UNL     1       2.369  16.053  19.968  0.00  0.00    +0.000 C 
ATOM     11  C   UNL     1       2.906  15.346  21.299  0.00  0.00    +0.000 C 
ATOM     12  C   UNL     1       2.602  15.070  18.840  0.00  0.00    +0.000 C 
ATOM     13  C   UNL     1       3.195  17.296  20.123  0.00  0.00    +0.000 C 
ATOM     14  O   UNL     1       4.103  17.625  19.338  0.00  0.00    +0.000 OA
ATOM     15  C   UNL     1       2.761  18.122  21.356  0.00  0.00    +0.000 C 
ATOM     16  C   UNL     1       1.407  17.583  22.106  0.00  0.00    +0.000 C 
ATOM     17  C   UNL     1       0.275  16.775  21.226  0.00  0.00    +0.000 C 
ATOM     18  C   UNL     1      -1.042  17.565  21.422  0.00  0.00    +0.000 C 
ATOM     19  C   UNL     1      -0.183  15.217  21.283  0.00  0.00    +0.000 C 
ATOM     20  C   UNL     1      -0.250  14.419  22.381  0.00  0.00    +0.000 C 
ATOM     21  C   UNL     1      -0.478  12.871  22.348  0.00  0.00    +0.000 C 
ATOM     22  C   UNL     1      -0.095  12.287  20.956  0.00  0.00    +0.000 C 
ATOM     23  C   UNL     1       1.457  12.396  20.913  0.00  0.00    +0.000 C 
ENDROOT
BRANCH   1  24
ATOM     24  C   UNL     1       0.426   9.627  21.006  0.00  0.00    +0.000 C 
ATOM     25  C   UNL     1      -0.356   8.953  22.132  0.00  0.00    +0.000 C 
BRANCH  24  26
ATOM     26  C   UNL     1       0.771   8.634  19.870  0.00  0.00    +0.000 C 
BRANCH  26  27
ATOM     27  C   UNL     1       2.032   7.748  19.987  0.00  0.00    +0.000 C 
BRANCH  27  28
ATOM     28  C   UNL     1       1.505   6.363  20.313  0.00  0.00    +0.000 C 
ATOM     29  C   UNL     1       2.161   5.185  20.319  0.00  0.00    +0.000 C 
ATOM     30  C   UNL     1       3.562   4.977  19.822  0.00  0.00    +0.000 C 
ATOM     31  C   UNL     1       1.526   3.962  20.929  0.00  0.00    +0.000 C 
ENDBRANCH  27  28
BRANCH  27  33
ATOM     32  C   UNL     1       2.310   8.514  17.723  0.00  0.00    +0.000 C 
ATOM     33  O   UNL     1       2.714   7.608  18.737  0.00  0.00    +0.000 OA
ENDBRANCH  27  33
ENDBRANCH  26  27
ENDBRANCH  24  26
ENDBRANCH   1  24
TORSDOF 5
ENDMDL
MODEL 4
REMARK VINA RESULT:      -5.9      3.512      5.958
REMARK  Name = 
REMARK  14 active torsions:
REMARK  status: ('A' for Active; 'I' for Inactive)
REMARK    1  A    between atoms: C_1  and  O_2
REMARK    2  A    between atoms: O_2  and  C_3
REMARK    3  A    between atoms: C_3  and  C_4
REMARK    4  A    between atoms: C_3  and  C_8
REMARK    5  A    between atoms: C_5  and  C_6
REMARK    6  A    between atoms: C_5  and  C_7
REMARK    7  A    between atoms: C_8  and  C_9
REMARK    8  A    between atoms: C_9  and  C_10
REMARK    9  A    between atoms: C_9  and  C_11
REMARK   10  A    between atoms: C_14  and  C_15
REMARK   11  A    between atoms: C_20  and  C_21
REMARK   12  A    between atoms: C_20  and  C_22
REMARK   13  A    between atoms: C_27  and  C_28
REMARK   14  A    between atoms: C_32  and  C_33
REMARK                            x       y       z     vdW  Elec       q    Type
REMARK                         _______ _______ _______ _____ _____    ______ ____
ROOT
ATOM      1  C   UNL     1      -0.967  12.141  20.294  0.00  0.00    +0.000 C 
ATOM      2  C   UNL     1      -1.188  11.224  21.534  0.00  0.00    +0.000 C 
ATOM      3  C   UNL     1      -1.062  12.151  22.733  0.00  0.00    +0.000 C 
ATOM      4  C   UNL     1      -1.272  13.600  22.191  0.00  0.00    +0.000 C 
ATOM      5  C   UNL     1       0.139  14.273  22.251  0.00  0.00    +0.000 C 
ATOM      6  C   UNL     1      -2.188  14.527  22.985  0.00  0.00    +0.000 C 
ATOM      7  C   UNL     1      -2.353  14.287  24.290  0.00  0.00    +0.000 C 
ATOM      8  C   UNL     1      -3.426  14.919  25.077  0.00  0.00    +0.000 C 
ATOM      9  C   UNL     1      -4.456  15.542  24.144  0.00  0.00    +0.000 C 
ATOM     10  C   UNL     1      -5.463  14.571  23.287  0.00  0.00    +0.000 C 
ATOM     11  C   UNL     1      -5.775  14.747  21.727  0.00  0.00    +0.000 C 
ATOM     12  C   UNL     1      -5.234  13.092  23.511  0.00  0.00    +0.000 C 
ATOM     13  C   UNL     1      -6.707  15.264  23.760  0.00  0.00    +0.000 C 
ATOM     14  O   UNL     1      -7.621  14.693  24.385  0.00  0.00    +0.000 OA
ATOM     15  C   UNL     1      -6.699  16.766  23.399  0.00  0.00    +0.000 C 
ATOM     16  C   UNL     1      -5.292  17.315  22.761  0.00  0.00    +0.000 C 
ATOM     17  C   UNL     1      -3.885  16.567  23.171  0.00  0.00    +0.000 C 
ATOM     18  C   UNL     1      -2.982  17.678  23.759  0.00  0.00    +0.000 C 
ATOM     19  C   UNL     1      -2.874  15.668  22.270  0.00  0.00    +0.000 C 
ATOM     20  C   UNL     1      -2.579  15.831  20.954  0.00  0.00    +0.000 C 
ATOM     21  C   UNL     1      -1.778  14.806  20.083  0.00  0.00    +0.000 C 
ATOM     22  C   UNL     1      -1.822  13.387  20.724  0.00  0.00    +0.000 C 
ATOM     23  C   UNL     1      -3.293  12.922  20.517  0.00  0.00    +0.000 C 
ENDROOT
BRANCH   1  24
ATOM     24  C   UNL     1      -1.296  11.391  18.967  0.00  0.00    +0.000 C 
ATOM     25  C   UNL     1      -1.183  12.351  17.784  0.00  0.00    +0.000 C 
BRANCH  24  26
ATOM     26  C   UNL     1      -0.368  10.163  18.802  0.00  0.00    +0.000 C 
BRANCH  26  27
ATOM     27  C   UNL     1       1.131  10.286  19.157  0.00  0.00    +0.000 C 
BRANCH  27  28
ATOM     28  C   UNL     1       1.595   8.858  19.383  0.00  0.00    +0.000 C 
ATOM     29  C   UNL     1       1.563   8.125  20.513  0.00  0.00    +0.000 C 
ATOM     30  C   UNL     1       1.202   8.651  21.872  0.00  0.00    +0.000 C 
ATOM     31  C   UNL     1       1.823   6.640  20.467  0.00  0.00    +0.000 C 
ENDBRANCH  27  28
BRANCH  27  33
ATOM     32  C   UNL     1       2.397  12.092  18.197  0.00  0.00    +0.000 C 
ATOM     33  O   UNL     1       1.911  10.766  18.059  0.00  0.00    +0.000 OA
ENDBRANCH  27  33
ENDBRANCH  26  27
ENDBRANCH  24  26
ENDBRANCH   1  24
TORSDOF 5
ENDMDL
MODEL 5
REMARK VINA RESULT:      -5.8      4.822      8.157
REMARK  Name = 
REMARK  14 active torsions:
REMARK  status: ('A' for Active; 'I' for Inactive)
REMARK    1  A    between atoms: C_1  and  O_2
REMARK    2  A    between atoms: O_2  and  C_3
REMARK    3  A    between atoms: C_3  and  C_4
REMARK    4  A    between atoms: C_3  and  C_8
REMARK    5  A    between atoms: C_5  and  C_6
REMARK    6  A    between atoms: C_5  and  C_7
REMARK    7  A    between atoms: C_8  and  C_9
REMARK    8  A    between atoms: C_9  and  C_10
REMARK    9  A    between atoms: C_9  and  C_11
REMARK   10  A    between atoms: C_14  and  C_15
REMARK   11  A    between atoms: C_20  and  C_21
REMARK   12  A    between atoms: C_20  and  C_22
REMARK   13  A    between atoms: C_27  and  C_28
REMARK   14  A    between atoms: C_32  and  C_33
REMARK                            x       y       z     vdW  Elec       q    Type
REMARK                         _______ _______ _______ _____ _____    ______ ____
ROOT
ATOM      1  C   UNL     1       0.271  14.122  20.612  0.00  0.00    +0.000 C 
ATOM      2  C   UNL     1      -0.446  13.852  19.255  0.00  0.00    +0.000 C 
ATOM      3  C   UNL     1      -1.606  12.931  19.602  0.00  0.00    +0.000 C 
ATOM      4  C   UNL     1      -1.844  13.085  21.138  0.00  0.00    +0.000 C 
ATOM      5  C   UNL     1      -1.343  11.744  21.771  0.00  0.00    +0.000 C 
ATOM      6  C   UNL     1      -3.283  13.238  21.620  0.00  0.00    +0.000 C 
ATOM      7  C   UNL     1      -4.262  12.746  20.853  0.00  0.00    +0.000 C 
ATOM      8  C   UNL     1      -5.678  13.095  21.065  0.00  0.00    +0.000 C 
ATOM      9  C   UNL     1      -5.782  14.303  21.986  0.00  0.00    +0.000 C 
ATOM     10  C   UNL     1      -5.354  15.786  21.427  0.00  0.00    +0.000 C 
ATOM     11  C   UNL     1      -4.429  16.818  22.226  0.00  0.00    +0.000 C 
ATOM     12  C   UNL     1      -4.858  15.788  19.997  0.00  0.00    +0.000 C 
ATOM     13  C   UNL     1      -6.654  16.427  21.819  0.00  0.00    +0.000 C 
ATOM     14  O   UNL     1      -7.424  16.978  21.011  0.00  0.00    +0.000 OA
ATOM     15  C   UNL     1      -6.923  16.294  23.335  0.00  0.00    +0.000 C 
ATOM     16  C   UNL     1      -5.860  15.346  24.145  0.00  0.00    +0.000 C 
ATOM     17  C   UNL     1      -5.108  14.123  23.341  0.00  0.00    +0.000 C 
ATOM     18  C   UNL     1      -5.445  12.837  24.135  0.00  0.00    +0.000 C 
ATOM     19  C   UNL     1      -3.546  13.940  22.931  0.00  0.00    +0.000 C 
ATOM     20  C   UNL     1      -2.458  14.346  23.638  0.00  0.00    +0.000 C 
ATOM     21  C   UNL     1      -0.990  14.348  23.095  0.00  0.00    +0.000 C 
ATOM     22  C   UNL     1      -0.979  14.347  21.537  0.00  0.00    +0.000 C 
ATOM     23  C   UNL     1      -1.478  15.770  21.153  0.00  0.00    +0.000 C 
ENDROOT
BRANCH   1  24
ATOM     24  C   UNL     1       1.349  15.240  20.472  0.00  0.00    +0.000 C 
ATOM     25  C   UNL     1       2.359  15.135  21.613  0.00  0.00    +0.000 C 
BRANCH  24  26
ATOM     26  C   UNL     1       2.034  15.153  19.087  0.00  0.00    +0.000 C 
BRANCH  26  27
ATOM     27  C   UNL     1       2.131  16.418  18.203  0.00  0.00    +0.000 C 
BRANCH  27  28
ATOM     28  C   UNL     1       0.834  17.166  18.452  0.00  0.00    +0.000 C 
ATOM     29  C   UNL     1       0.153  17.981  17.622  0.00  0.00    +0.000 C 
ATOM     30  C   UNL     1       0.648  18.464  16.290  0.00  0.00    +0.000 C 
ATOM     31  C   UNL     1      -1.251  18.415  17.961  0.00  0.00    +0.000 C 
ENDBRANCH  27  28
BRANCH  27  33
ATOM     32  C   UNL     1       4.431  16.696  18.854  0.00  0.00    +0.000 C 
ATOM     33  O   UNL     1       3.167  17.303  18.636  0.00  0.00    +0.000 OA
ENDBRANCH  27  33
ENDBRANCH  26  27
ENDBRANCH  24  26
ENDBRANCH   1  24
TORSDOF 5
ENDMDL
MODEL 6
REMARK VINA RESULT:      -5.8      4.132      7.826
REMARK  Name = 
REMARK  14 active torsions:
REMARK  status: ('A' for Active; 'I' for Inactive)
REMARK    1  A    between atoms: C_1  and  O_2
REMARK    2  A    between atoms: O_2  and  C_3
REMARK    3  A    between atoms: C_3  and  C_4
REMARK    4  A    between atoms: C_3  and  C_8
REMARK    5  A    between atoms: C_5  and  C_6
REMARK    6  A    between atoms: C_5  and  C_7
REMARK    7  A    between atoms: C_8  and  C_9
REMARK    8  A    between atoms: C_9  and  C_10
REMARK    9  A    between atoms: C_9  and  C_11
REMARK   10  A    between atoms: C_14  and  C_15
REMARK   11  A    between atoms: C_20  and  C_21
REMARK   12  A    between atoms: C_20  and  C_22
REMARK   13  A    between atoms: C_27  and  C_28
REMARK   14  A    between atoms: C_32  and  C_33
REMARK                            x       y       z     vdW  Elec       q    Type
REMARK                         _______ _______ _______ _____ _____    ______ ____
ROOT
ATOM      1  C   UNL     1      -2.931  12.582  21.469  0.00  0.00    +0.000 C 
ATOM      2  C   UNL     1      -2.197  12.925  22.800  0.00  0.00    +0.000 C 
ATOM      3  C   UNL     1      -0.768  12.445  22.593  0.00  0.00    +0.000 C 
ATOM      4  C   UNL     1      -0.570  12.310  21.050  0.00  0.00    +0.000 C 
ATOM      5  C   UNL     1      -0.516  10.770  20.773  0.00  0.00    +0.000 C 
ATOM      6  C   UNL     1       0.716  12.867  20.449  0.00  0.00    +0.000 C 
ATOM      7  C   UNL     1       1.790  12.968  21.239  0.00  0.00    +0.000 C 
ATOM      8  C   UNL     1       2.976  13.756  20.858  0.00  0.00    +0.000 C 
ATOM      9  C   UNL     1       2.639  14.663  19.682  0.00  0.00    +0.000 C 
ATOM     10  C   UNL     1       1.673  15.968  19.918  0.00  0.00    +0.000 C 
ATOM     11  C   UNL     1       0.446  16.364  18.970  0.00  0.00    +0.000 C 
ATOM     12  C   UNL     1       1.180  16.124  21.340  0.00  0.00    +0.000 C 
ATOM     13  C   UNL     1       2.645  16.933  19.303  0.00  0.00    +0.000 C 
ATOM     14  O   UNL     1       3.133  17.904  19.910  0.00  0.00    +0.000 OA
ATOM     15  C   UNL     1       2.979  16.557  17.842  0.00  0.00    +0.000 C 
ATOM     16  C   UNL     1       2.369  15.120  17.342  0.00  0.00    +0.000 C 
ATOM     17  C   UNL     1       2.114  13.932  18.452  0.00  0.00    +0.000 C 
ATOM     18  C   UNL     1       2.927  12.714  17.950  0.00  0.00    +0.000 C 
ATOM     19  C   UNL     1       0.726  13.286  18.998  0.00  0.00    +0.000 C 
ATOM     20  C   UNL     1      -0.418  13.081  18.293  0.00  0.00    +0.000 C 
ATOM     21  C   UNL     1      -1.791  12.667  18.920  0.00  0.00    +0.000 C 
ATOM     22  C   UNL     1      -1.837  13.030  20.435  0.00  0.00    +0.000 C 
ATOM     23  C   UNL     1      -1.918  14.584  20.451  0.00  0.00    +0.000 C 
ENDROOT
BRANCH   1  24
ATOM     24  C   UNL     1      -4.353  13.220  21.425  0.00  0.00    +0.000 C 
ATOM     25  C   UNL     1      -5.147  12.643  20.255  0.00  0.00    +0.000 C 
BRANCH  24  26
ATOM     26  C   UNL     1      -5.079  13.006  22.775  0.00  0.00    +0.000 C 
BRANCH  26  27
ATOM     27  C   UNL     1      -5.460  14.229  23.640  0.00  0.00    +0.000 C 
BRANCH  27  28
ATOM     28  C   UNL     1      -4.811  15.413  22.945  0.00  0.00    +0.000 C 
ATOM     29  C   UNL     1      -3.946  16.318  23.443  0.00  0.00    +0.000 C 
ATOM     30  C   UNL     1      -3.563  16.440  24.890  0.00  0.00    +0.000 C 
ATOM     31  C   UNL     1      -3.211  17.258  22.521  0.00  0.00    +0.000 C 
ENDBRANCH  27  28
BRANCH  27  33
ATOM     32  C   UNL     1      -7.687  13.478  24.157  0.00  0.00    +0.000 C 
ATOM     33  O   UNL     1      -6.864  14.498  23.611  0.00  0.00    +0.000 OA
ENDBRANCH  27  33
ENDBRANCH  26  27
ENDBRANCH  24  26
ENDBRANCH   1  24
TORSDOF 5
ENDMDL
MODEL 7
REMARK VINA RESULT:      -5.6      7.101      9.181
REMARK  Name = 
REMARK  14 active torsions:
REMARK  status: ('A' for Active; 'I' for Inactive)
REMARK    1  A    between atoms: C_1  and  O_2
REMARK    2  A    between atoms: O_2  and  C_3
REMARK    3  A    between atoms: C_3  and  C_4
REMARK    4  A    between atoms: C_3  and  C_8
REMARK    5  A    between atoms: C_5  and  C_6
REMARK    6  A    between atoms: C_5  and  C_7
REMARK    7  A    between atoms: C_8  and  C_9
REMARK    8  A    between atoms: C_9  and  C_10
REMARK    9  A    between atoms: C_9  and  C_11
REMARK   10  A    between atoms: C_14  and  C_15
REMARK   11  A    between atoms: C_20  and  C_21
REMARK   12  A    between atoms: C_20  and  C_22
REMARK   13  A    between atoms: C_27  and  C_28
REMARK   14  A    between atoms: C_32  and  C_33
REMARK                            x       y       z     vdW  Elec       q    Type
REMARK                         _______ _______ _______ _____ _____    ______ ____
ROOT
ATOM      1  C   UNL     1       7.647  15.441  19.601  0.00  0.00    +0.000 C 
ATOM      2  C   UNL     1       8.881  16.305  20.002  0.00  0.00    +0.000 C 
ATOM      3  C   UNL     1       8.342  17.316  21.002  0.00  0.00    +0.000 C 
ATOM      4  C   UNL     1       6.993  16.733  21.531  0.00  0.00    +0.000 C 
ATOM      5  C   UNL     1       5.878  17.629  20.898  0.00  0.00    +0.000 C 
ATOM      6  C   UNL     1       6.739  16.786  23.035  0.00  0.00    +0.000 C 
ATOM      7  C   UNL     1       7.370  17.724  23.749  0.00  0.00    +0.000 C 
ATOM      8  C   UNL     1       7.434  17.681  25.220  0.00  0.00    +0.000 C 
ATOM      9  C   UNL     1       7.021  16.303  25.718  0.00  0.00    +0.000 C 
ATOM     10  C   UNL     1       8.028  15.026  25.496  0.00  0.00    +0.000 C 
ATOM     11  C   UNL     1       7.565  13.598  24.944  0.00  0.00    +0.000 C 
ATOM     12  C   UNL     1       9.309  15.370  24.767  0.00  0.00    +0.000 C 
ATOM     13  C   UNL     1       8.018  14.630  26.944  0.00  0.00    +0.000 C 
ATOM     14  O   UNL     1       9.040  14.577  27.653  0.00  0.00    +0.000 OA
ATOM     15  C   UNL     1       6.588  14.322  27.443  0.00  0.00    +0.000 C 
ATOM     16  C   UNL     1       5.394  14.666  26.375  0.00  0.00    +0.000 C 
ATOM     17  C   UNL     1       5.632  15.862  25.270  0.00  0.00    +0.000 C 
ATOM     18  C   UNL     1       4.468  16.860  25.483  0.00  0.00    +0.000 C 
ATOM     19  C   UNL     1       5.797  15.782  23.655  0.00  0.00    +0.000 C 
ATOM     20  C   UNL     1       5.180  14.916  22.808  0.00  0.00    +0.000 C 
ATOM     21  C   UNL     1       5.544  14.733  21.296  0.00  0.00    +0.000 C 
ATOM     22  C   UNL     1       6.990  15.239  21.013  0.00  0.00    +0.000 C 
ATOM     23  C   UNL     1       7.903  14.185  21.704  0.00  0.00    +0.000 C 
ENDROOT
BRANCH   1  24
ATOM     24  C   UNL     1       8.073  14.203  18.754  0.00  0.00    +0.000 C 
ATOM     25  C   UNL     1       7.124  14.031  17.570  0.00  0.00    +0.000 C 
BRANCH  24  26
ATOM     26  C   UNL     1       9.544  14.347  18.296  0.00  0.00    +0.000 C 
BRANCH  26  27
ATOM     27  C   UNL     1      10.597  13.323  18.776  0.00  0.00    +0.000 C 
BRANCH  27  28
ATOM     28  C   UNL     1      10.055  11.974  18.339  0.00  0.00    +0.000 C 
ATOM     29  C   UNL     1       9.512  10.995  19.088  0.00  0.00    +0.000 C 
ATOM     30  C   UNL     1       9.487  10.971  20.589  0.00  0.00    +0.000 C 
ATOM     31  C   UNL     1       8.791   9.844  18.434  0.00  0.00    +0.000 C 
ENDBRANCH  27  28
BRANCH  27  33
ATOM     32  C   UNL     1      11.777  13.370  16.680  0.00  0.00    +0.000 C 
ATOM     33  O   UNL     1      11.845  13.467  18.094  0.00  0.00    +0.000 OA
ENDBRANCH  27  33
ENDBRANCH  26  27
ENDBRANCH  24  26
ENDBRANCH   1  24
TORSDOF 5
ENDMDL
MODEL 8
REMARK VINA RESULT:      -5.5      1.277      1.880
REMARK  Name = 
REMARK  14 active torsions:
REMARK  status: ('A' for Active; 'I' for Inactive)
REMARK    1  A    between atoms: C_1  and  O_2
REMARK    2  A    between atoms: O_2  and  C_3
REMARK    3  A    between atoms: C_3  and  C_4
REMARK    4  A    between atoms: C_3  and  C_8
REMARK    5  A    between atoms: C_5  and  C_6
REMARK    6  A    between atoms: C_5  and  C_7
REMARK    7  A    between atoms: C_8  and  C_9
REMARK    8  A    between atoms: C_9  and  C_10
REMARK    9  A    between atoms: C_9  and  C_11
REMARK   10  A    between atoms: C_14  and  C_15
REMARK   11  A    between atoms: C_20  and  C_21
REMARK   12  A    between atoms: C_20  and  C_22
REMARK   13  A    between atoms: C_27  and  C_28
REMARK   14  A    between atoms: C_32  and  C_33
REMARK                            x       y       z     vdW  Elec       q    Type
REMARK                         _______ _______ _______ _____ _____    ______ ____
ROOT
ATOM      1  C   UNL     1      -0.038  10.217  20.173  0.00  0.00    +0.000 C 
ATOM      2  C   UNL     1       0.352  10.506  18.692  0.00  0.00    +0.000 C 
ATOM      3  C   UNL     1      -0.402  11.776  18.330  0.00  0.00    +0.000 C 
ATOM      4  C   UNL     1      -0.790  12.457  19.682  0.00  0.00    +0.000 C 
ATOM      5  C   UNL     1      -2.337  12.263  19.814  0.00  0.00    +0.000 C 
ATOM      6  C   UNL     1      -0.565  13.961  19.808  0.00  0.00    +0.000 C 
ATOM      7  C   UNL     1      -0.548  14.692  18.689  0.00  0.00    +0.000 C 
ATOM      8  C   UNL     1      -0.050  16.079  18.664  0.00  0.00    +0.000 C 
ATOM      9  C   UNL     1       0.726  16.374  19.941  0.00  0.00    +0.000 C 
ATOM     10  C   UNL     1       2.204  15.698  20.163  0.00  0.00    +0.000 C 
ATOM     11  C   UNL     1       2.676  14.989  21.518  0.00  0.00    +0.000 C 
ATOM     12  C   UNL     1       2.647  14.794  19.033  0.00  0.00    +0.000 C 
ATOM     13  C   UNL     1       2.880  17.008  20.445  0.00  0.00    +0.000 C 
ATOM     14  O   UNL     1       3.824  17.459  19.769  0.00  0.00    +0.000 OA
ATOM     15  C   UNL     1       2.245  17.732  21.654  0.00  0.00    +0.000 C 
ATOM     16  C   UNL     1       0.886  17.031  22.243  0.00  0.00    +0.000 C 
ATOM     17  C   UNL     1      -0.066  16.155  21.224  0.00  0.00    +0.000 C 
ATOM     18  C   UNL     1      -1.469  16.803  21.311  0.00  0.00    +0.000 C 
ATOM     19  C   UNL     1      -0.366  14.559  21.180  0.00  0.00    +0.000 C 
ATOM     20  C   UNL     1      -0.460  13.711  22.238  0.00  0.00    +0.000 C 
ATOM     21  C   UNL     1      -0.524  12.151  22.129  0.00  0.00    +0.000 C 
ATOM     22  C   UNL     1       0.052  11.669  20.764  0.00  0.00    +0.000 C 
ATOM     23  C   UNL     1       1.581  11.931  20.885  0.00  0.00    +0.000 C 
ENDROOT
BRANCH   1  24
ATOM     24  C   UNL     1       0.833   9.073  20.777  0.00  0.00    +0.000 C 
ATOM     25  C   UNL     1      -0.060   8.051  21.476  0.00  0.00    +0.000 C 
BRANCH  24  26
ATOM     26  C   UNL     1       1.700   8.420  19.673  0.00  0.00    +0.000 C 
BRANCH  26  27
ATOM     27  C   UNL     1       1.853   6.883  19.631  0.00  0.00    +0.000 C 
BRANCH  27  28
ATOM     28  C   UNL     1       3.074   6.637  18.764  0.00  0.00    +0.000 C 
ATOM     29  C   UNL     1       3.284   5.668  17.851  0.00  0.00    +0.000 C 
ATOM     30  C   UNL     1       2.383   4.490  17.621  0.00  0.00    +0.000 C 
ATOM     31  C   UNL     1       4.455   5.753  16.905  0.00  0.00    +0.000 C 
ENDBRANCH  27  28
BRANCH  27  33
ATOM     32  C   UNL     1       1.927   4.948  21.060  0.00  0.00    +0.000 C 
ATOM     33  O   UNL     1       2.183   6.336  20.911  0.00  0.00    +0.000 OA
ENDBRANCH  27  33
ENDBRANCH  26  27
ENDBRANCH  24  26
ENDBRANCH   1  24
TORSDOF 5
ENDMDL
MODEL 9
REMARK VINA RESULT:      -5.5      4.223      7.184
REMARK  Name = 
REMARK  14 active torsions:
REMARK  status: ('A' for Active; 'I' for Inactive)
REMARK    1  A    between atoms: C_1  and  O_2
REMARK    2  A    between atoms: O_2  and  C_3
REMARK    3  A    between atoms: C_3  and  C_4
REMARK    4  A    between atoms: C_3  and  C_8
REMARK    5  A    between atoms: C_5  and  C_6
REMARK    6  A    between atoms: C_5  and  C_7
REMARK    7  A    between atoms: C_8  and  C_9
REMARK    8  A    between atoms: C_9  and  C_10
REMARK    9  A    between atoms: C_9  and  C_11
REMARK   10  A    between atoms: C_14  and  C_15
REMARK   11  A    between atoms: C_20  and  C_21
REMARK   12  A    between atoms: C_20  and  C_22
REMARK   13  A    between atoms: C_27  and  C_28
REMARK   14  A    between atoms: C_32  and  C_33
REMARK                            x       y       z     vdW  Elec       q    Type
REMARK                         _______ _______ _______ _____ _____    ______ ____
ROOT
ATOM      1  C   UNL     1      -0.767  12.190  20.104  0.00  0.00    +0.000 C 
ATOM      2  C   UNL     1      -0.950  11.227  21.315  0.00  0.00    +0.000 C 
ATOM      3  C   UNL     1      -0.844  12.119  22.543  0.00  0.00    +0.000 C 
ATOM      4  C   UNL     1      -1.103  13.578  22.049  0.00  0.00    +0.000 C 
ATOM      5  C   UNL     1       0.287  14.293  22.121  0.00  0.00    +0.000 C 
ATOM      6  C   UNL     1      -2.042  14.451  22.877  0.00  0.00    +0.000 C 
ATOM      7  C   UNL     1      -2.189  14.164  24.175  0.00  0.00    +0.000 C 
ATOM      8  C   UNL     1      -3.276  14.737  24.988  0.00  0.00    +0.000 C 
ATOM      9  C   UNL     1      -4.331  15.357  24.081  0.00  0.00    +0.000 C 
ATOM     10  C   UNL     1      -5.314  14.382  23.200  0.00  0.00    +0.000 C 
ATOM     11  C   UNL     1      -5.642  14.598  21.649  0.00  0.00    +0.000 C 
ATOM     12  C   UNL     1      -5.038  12.904  23.376  0.00  0.00    +0.000 C 
ATOM     13  C   UNL     1      -6.576  15.020  23.703  0.00  0.00    +0.000 C 
ATOM     14  O   UNL     1      -7.467  14.402  24.315  0.00  0.00    +0.000 OA
ATOM     15  C   UNL     1      -6.617  16.533  23.389  0.00  0.00    +0.000 C 
ATOM     16  C   UNL     1      -5.233  17.146  22.761  0.00  0.00    +0.000 C 
ATOM     17  C   UNL     1      -3.799  16.429  23.138  0.00  0.00    +0.000 C 
ATOM     18  C   UNL     1      -2.927  17.549  23.756  0.00  0.00    +0.000 C 
ATOM     19  C   UNL     1      -2.768  15.591  22.203  0.00  0.00    +0.000 C 
ATOM     20  C   UNL     1      -2.487  15.805  20.891  0.00  0.00    +0.000 C 
ATOM     21  C   UNL     1      -1.661  14.833  19.983  0.00  0.00    +0.000 C 
ATOM     22  C   UNL     1      -1.657  13.394  20.579  0.00  0.00    +0.000 C 
ATOM     23  C   UNL     1      -3.114  12.890  20.366  0.00  0.00    +0.000 C 
ENDROOT
BRANCH   1  24
ATOM     24  C   UNL     1      -1.081  11.472  18.755  0.00  0.00    +0.000 C 
ATOM     25  C   UNL     1      -1.030   9.958  18.947  0.00  0.00    +0.000 C 
BRANCH  24  26
ATOM     26  C   UNL     1      -2.452  11.937  18.208  0.00  0.00    +0.000 C 
BRANCH  26  27
ATOM     27  C   UNL     1      -3.184  11.078  17.152  0.00  0.00    +0.000 C 
BRANCH  27  28
ATOM     28  C   UNL     1      -4.510  11.782  16.930  0.00  0.00    +0.000 C 
ATOM     29  C   UNL     1      -5.660  11.662  17.623  0.00  0.00    +0.000 C 
ATOM     30  C   UNL     1      -5.918  10.644  18.695  0.00  0.00    +0.000 C 
ATOM     31  C   UNL     1      -6.784  12.644  17.411  0.00  0.00    +0.000 C 
ENDBRANCH  27  28
BRANCH  27  33
ATOM     32  C   UNL     1      -2.870  10.046  15.001  0.00  0.00    +0.000 C 
ATOM     33  O   UNL     1      -2.526  11.104  15.882  0.00  0.00    +0.000 OA
ENDBRANCH  27  33
ENDBRANCH  26  27
ENDBRANCH  24  26
ENDBRANCH   1  24
TORSDOF 5
ENDMDL
