MODEL 1
REMARK VINA RESULT:      -7.3      0.000      0.000
REMARK  Name = 
REMARK  8 active torsions:
REMARK  status: ('A' for Active; 'I' for Inactive)
REMARK    1  A    between atoms: C_1  and  O_2
REMARK    2  A    between atoms: O_2  and  C_3
REMARK    3  A    between atoms: C_6  and  N_7
REMARK    4  A    between atoms: N_7  and  C_8
REMARK    5  A    between atoms: C_21  and  O_22
REMARK    6  A    between atoms: O_22  and  C_23
REMARK    7  A    between atoms: C_28  and  O_29
REMARK    8  A    between atoms: O_29  and  C_30
REMARK                            x       y       z     vdW  Elec       q    Type
REMARK                         _______ _______ _______ _____ _____    ______ ____
ROOT
ATOM      1  C   UNL     1       3.267   6.123  18.403  0.00  0.00    +0.000 A 
ATOM      2  N   UNL     1       4.546   6.506  18.250  0.00  0.00    +0.000 NA
ATOM      3  C   UNL     1       5.360   5.805  17.444  0.00  0.00    +0.000 A 
ATOM      4  C   UNL     1       6.619   6.315  17.219  0.00  0.00    +0.000 A 
ATOM      5  C   UNL     1       7.465   5.745  16.269  0.00  0.00    +0.000 A 
ATOM      6  C   UNL     1       7.080   4.592  15.592  0.00  0.00    +0.000 A 
ATOM      7  C   UNL     1       5.868   3.978  15.906  0.00  0.00    +0.000 A 
ATOM      8  C   UNL     1       4.989   4.604  16.815  0.00  0.00    +0.000 A 
ATOM      9  C   UNL     1       3.737   4.148  17.173  0.00  0.00    +0.000 A 
ATOM     10  C   UNL     1       2.801   4.938  17.838  0.00  0.00    +0.000 A 
ATOM     11  C   UNL     1       1.702   4.105  18.329  0.00  0.00    +0.000 A 
ATOM     12  C   UNL     1       0.765   4.547  19.238  0.00  0.00    +0.000 A 
ATOM     13  C   UNL     1       0.901   4.004  20.504  0.00  0.00    +0.000 A 
ATOM     14  C   UNL     1       1.721   2.891  20.722  0.00  0.00    +0.000 A 
ATOM     15  C   UNL     1       2.285   2.183  19.649  0.00  0.00    +0.000 A 
ATOM     16  C   UNL     1       2.225   2.803  18.404  0.00  0.00    +0.000 A 
ATOM     17  C   UNL     1       3.349   2.726  17.425  0.00  0.00    +0.000 C 
ATOM     18  O   UNL     1       3.892   1.718  17.021  0.00  0.00    +0.000 OA
ENDROOT
BRANCH   1  19
ATOM     19  N   UNL     1       2.426   6.928  19.169  0.00  0.00    +0.000 N 
ATOM     20  H   UNL     1       1.932   6.425  19.896  0.00  0.00    +0.000 HD
BRANCH  19  24
ATOM     21  C   UNL     1       1.205  10.959  18.916  0.00  0.00    +0.000 A 
ATOM     22  C   UNL     1       1.887  10.384  17.844  0.00  0.00    +0.000 A 
ATOM     23  C   UNL     1       2.262   9.031  17.882  0.00  0.00    +0.000 A 
ATOM     24  C   UNL     1       1.948   8.241  18.993  0.00  0.00    +0.000 A 
ATOM     25  C   UNL     1       1.199   8.818  20.044  0.00  0.00    +0.000 A 
ATOM     26  C   UNL     1       0.824  10.164  19.996  0.00  0.00    +0.000 A 
BRANCH  21  28
ATOM     27  C   UNL     1       2.027  13.105  18.408  0.00  0.00    +0.000 C 
ATOM     28  O   UNL     1       0.923  12.297  18.820  0.00  0.00    +0.000 OA
ENDBRANCH  21  28
BRANCH  25  29
ATOM     29  O   UNL     1       0.924   7.969  21.094  0.00  0.00    +0.000 OA
ATOM     30  C   UNL     1      -0.223   8.281  21.876  0.00  0.00    +0.000 C 
ENDBRANCH  25  29
ENDBRANCH  19  24
ENDBRANCH   1  19
BRANCH  14  31
ATOM     31  O   UNL     1       2.034   2.735  22.044  0.00  0.00    +0.000 OA
ATOM     32  C   UNL     1       1.058   2.147  22.875  0.00  0.00    +0.000 C 
ENDBRANCH  14  31
TORSDOF 5
ENDMDL
MODEL 2
REMARK VINA RESULT:      -7.3      4.932     10.015
REMARK  Name = 
REMARK  8 active torsions:
REMARK  status: ('A' for Active; 'I' for Inactive)
REMARK    1  A    between atoms: C_1  and  O_2
REMARK    2  A    between atoms: O_2  and  C_3
REMARK    3  A    between atoms: C_6  and  N_7
REMARK    4  A    between atoms: N_7  and  C_8
REMARK    5  A    between atoms: C_21  and  O_22
REMARK    6  A    between atoms: O_22  and  C_23
REMARK    7  A    between atoms: C_28  and  O_29
REMARK    8  A    between atoms: O_29  and  C_30
REMARK                            x       y       z     vdW  Elec       q    Type
REMARK                         _______ _______ _______ _____ _____    ______ ____
ROOT
ATOM      1  C   UNL     1      -2.673  12.581  19.285  0.00  0.00    +0.000 A 
ATOM      2  N   UNL     1      -3.536  11.875  18.536  0.00  0.00    +0.000 NA
ATOM      3  C   UNL     1      -4.824  11.785  18.908  0.00  0.00    +0.000 A 
ATOM      4  C   UNL     1      -5.692  11.163  18.039  0.00  0.00    +0.000 A 
ATOM      5  C   UNL     1      -7.067  11.175  18.266  0.00  0.00    +0.000 A 
ATOM      6  C   UNL     1      -7.579  11.744  19.429  0.00  0.00    +0.000 A 
ATOM      7  C   UNL     1      -6.707  12.254  20.390  0.00  0.00    +0.000 A 
ATOM      8  C   UNL     1      -5.324  12.303  20.115  0.00  0.00    +0.000 A 
ATOM      9  C   UNL     1      -4.354  12.833  20.942  0.00  0.00    +0.000 A 
ATOM     10  C   UNL     1      -3.061  13.121  20.509  0.00  0.00    +0.000 A 
ATOM     11  C   UNL     1      -2.198  13.394  21.660  0.00  0.00    +0.000 A 
ATOM     12  C   UNL     1      -0.824  13.455  21.578  0.00  0.00    +0.000 A 
ATOM     13  C   UNL     1      -0.172  12.376  22.149  0.00  0.00    +0.000 A 
ATOM     14  C   UNL     1      -0.855  11.488  22.988  0.00  0.00    +0.000 A 
ATOM     15  C   UNL     1      -2.163  11.759  23.421  0.00  0.00    +0.000 A 
ATOM     16  C   UNL     1      -2.831  12.783  22.755  0.00  0.00    +0.000 A 
ATOM     17  C   UNL     1      -4.285  12.701  22.429  0.00  0.00    +0.000 C 
ATOM     18  O   UNL     1      -5.191  12.463  23.203  0.00  0.00    +0.000 OA
ENDROOT
BRANCH   1  19
ATOM     19  N   UNL     1      -1.369  12.734  18.818  0.00  0.00    +0.000 N 
ATOM     20  H   UNL     1      -1.159  13.672  18.499  0.00  0.00    +0.000 HD
BRANCH  19  24
ATOM     21  C   UNL     1       1.773  10.000  18.143  0.00  0.00    +0.000 A 
ATOM     22  C   UNL     1       0.454   9.547  18.105  0.00  0.00    +0.000 A 
ATOM     23  C   UNL     1      -0.612  10.445  18.278  0.00  0.00    +0.000 A 
ATOM     24  C   UNL     1      -0.364  11.806  18.482  0.00  0.00    +0.000 A 
ATOM     25  C   UNL     1       0.974  12.263  18.452  0.00  0.00    +0.000 A 
ATOM     26  C   UNL     1       2.029  11.363  18.273  0.00  0.00    +0.000 A 
BRANCH  21  28
ATOM     27  C   UNL     1       2.304   7.708  18.212  0.00  0.00    +0.000 C 
ATOM     28  O   UNL     1       2.754   9.050  18.018  0.00  0.00    +0.000 OA
ENDBRANCH  21  28
BRANCH  25  29
ATOM     29  O   UNL     1       1.129  13.618  18.650  0.00  0.00    +0.000 OA
ATOM     30  C   UNL     1       2.441  14.137  18.470  0.00  0.00    +0.000 C 
ENDBRANCH  25  29
ENDBRANCH  19  24
ENDBRANCH   1  19
BRANCH  14  31
ATOM     31  O   UNL     1      -0.184  10.307  23.144  0.00  0.00    +0.000 OA
ATOM     32  C   UNL     1       0.447   9.766  22.004  0.00  0.00    +0.000 C 
ENDBRANCH  14  31
TORSDOF 5
ENDMDL
MODEL 3
REMARK VINA RESULT:      -7.0      6.645      9.711
REMARK  Name = 
REMARK  8 active torsions:
REMARK  status: ('A' for Active; 'I' for Inactive)
REMARK    1  A    between atoms: C_1  and  O_2
REMARK    2  A    between atoms: O_2  and  C_3
REMARK    3  A    between atoms: C_6  and  N_7
REMARK    4  A    between atoms: N_7  and  C_8
REMARK    5  A    between atoms: C_21  and  O_22
REMARK    6  A    between atoms: O_22  and  C_23
REMARK    7  A    between atoms: C_28  and  O_29
REMARK    8  A    between atoms: O_29  and  C_30
REMARK                            x       y       z     vdW  Elec       q    Type
REMARK                         _______ _______ _______ _____ _____    ______ ____
ROOT
ATOM      1  C   UNL     1      -3.215  12.738  20.398  0.00  0.00    +0.000 A 
ATOM      2  N   UNL     1      -2.058  12.257  20.883  0.00  0.00    +0.000 NA
ATOM      3  C   UNL     1      -1.291  11.466  20.114  0.00  0.00    +0.000 A 
ATOM      4  C   UNL     1      -0.057  11.109  20.609  0.00  0.00    +0.000 A 
ATOM      5  C   UNL     1       0.868  10.435  19.813  0.00  0.00    +0.000 A 
ATOM      6  C   UNL     1       0.522  10.033  18.526  0.00  0.00    +0.000 A 
ATOM      7  C   UNL     1      -0.771  10.261  18.056  0.00  0.00    +0.000 A 
ATOM      8  C   UNL     1      -1.673  11.008  18.842  0.00  0.00    +0.000 A 
ATOM      9  C   UNL     1      -2.957  11.361  18.482  0.00  0.00    +0.000 A 
ATOM     10  C   UNL     1      -3.696  12.333  19.155  0.00  0.00    +0.000 A 
ATOM     11  C   UNL     1      -5.096  12.281  18.731  0.00  0.00    +0.000 A 
ATOM     12  C   UNL     1      -6.113  12.931  19.396  0.00  0.00    +0.000 A 
ATOM     13  C   UNL     1      -6.956  12.093  20.104  0.00  0.00    +0.000 A 
ATOM     14  C   UNL     1      -6.935  10.710  19.893  0.00  0.00    +0.000 A 
ATOM     15  C   UNL     1      -6.197  10.147  18.839  0.00  0.00    +0.000 A 
ATOM     16  C   UNL     1      -5.281  10.988  18.214  0.00  0.00    +0.000 A 
ATOM     17  C   UNL     1      -3.944  10.505  17.757  0.00  0.00    +0.000 C 
ATOM     18  O   UNL     1      -3.724   9.547  17.042  0.00  0.00    +0.000 OA
ENDROOT
BRANCH   1  19
ATOM     19  N   UNL     1      -3.937  13.633  21.186  0.00  0.00    +0.000 N 
ATOM     20  H   UNL     1      -4.860  13.840  20.825  0.00  0.00    +0.000 HD
BRANCH  19  24
ATOM     21  C   UNL     1      -2.600  15.912  24.476  0.00  0.00    +0.000 A 
ATOM     22  C   UNL     1      -2.340  16.363  23.182  0.00  0.00    +0.000 A 
ATOM     23  C   UNL     1      -2.816  15.650  22.070  0.00  0.00    +0.000 A 
ATOM     24  C   UNL     1      -3.564  14.481  22.247  0.00  0.00    +0.000 A 
ATOM     25  C   UNL     1      -3.876  14.070  23.563  0.00  0.00    +0.000 A 
ATOM     26  C   UNL     1      -3.404  14.790  24.665  0.00  0.00    +0.000 A 
BRANCH  21  28
ATOM     27  C   UNL     1      -1.119  15.916  26.306  0.00  0.00    +0.000 C 
ATOM     28  O   UNL     1      -2.055  16.638  25.503  0.00  0.00    +0.000 OA
ENDBRANCH  21  28
BRANCH  25  29
ATOM     29  O   UNL     1      -4.625  12.916  23.648  0.00  0.00    +0.000 OA
ATOM     30  C   UNL     1      -4.693  12.299  24.928  0.00  0.00    +0.000 C 
ENDBRANCH  25  29
ENDBRANCH  19  24
ENDBRANCH   1  19
BRANCH  14  31
ATOM     31  O   UNL     1      -7.530  10.025  20.915  0.00  0.00    +0.000 OA
ATOM     32  C   UNL     1      -7.779   8.651  20.716  0.00  0.00    +0.000 C 
ENDBRANCH  14  31
TORSDOF 5
ENDMDL
MODEL 4
REMARK VINA RESULT:      -6.9      6.538      9.748
REMARK  Name = 
REMARK  8 active torsions:
REMARK  status: ('A' for Active; 'I' for Inactive)
REMARK    1  A    between atoms: C_1  and  O_2
REMARK    2  A    between atoms: O_2  and  C_3
REMARK    3  A    between atoms: C_6  and  N_7
REMARK    4  A    between atoms: N_7  and  C_8
REMARK    5  A    between atoms: C_21  and  O_22
REMARK    6  A    between atoms: O_22  and  C_23
REMARK    7  A    between atoms: C_28  and  O_29
REMARK    8  A    between atoms: O_29  and  C_30
REMARK                            x       y       z     vdW  Elec       q    Type
REMARK                         _______ _______ _______ _____ _____    ______ ____
ROOT
ATOM      1  C   UNL     1      -2.810  12.414  20.966  0.00  0.00    +0.000 A 
ATOM      2  N   UNL     1      -1.711  11.696  21.250  0.00  0.00    +0.000 NA
ATOM      3  C   UNL     1      -1.060  11.056  20.265  0.00  0.00    +0.000 A 
ATOM      4  C   UNL     1       0.131  10.444  20.588  0.00  0.00    +0.000 A 
ATOM      5  C   UNL     1       0.952   9.905  19.599  0.00  0.00    +0.000 A 
ATOM      6  C   UNL     1       0.536   9.899  18.271  0.00  0.00    +0.000 A 
ATOM      7  C   UNL     1      -0.728  10.386  17.941  0.00  0.00    +0.000 A 
ATOM      8  C   UNL     1      -1.518  10.995  18.938  0.00  0.00    +0.000 A 
ATOM      9  C   UNL     1      -2.757  11.573  18.748  0.00  0.00    +0.000 A 
ATOM     10  C   UNL     1      -3.360  12.408  19.686  0.00  0.00    +0.000 A 
ATOM     11  C   UNL     1      -4.764  12.626  19.334  0.00  0.00    +0.000 A 
ATOM     12  C   UNL     1      -5.682  13.188  20.195  0.00  0.00    +0.000 A 
ATOM     13  C   UNL     1      -6.607  12.292  20.702  0.00  0.00    +0.000 A 
ATOM     14  C   UNL     1      -6.757  11.021  20.138  0.00  0.00    +0.000 A 
ATOM     15  C   UNL     1      -6.113  10.677  18.938  0.00  0.00    +0.000 A 
ATOM     16  C   UNL     1      -5.113  11.545  18.508  0.00  0.00    +0.000 A 
ATOM     17  C   UNL     1      -3.854  11.053  17.875  0.00  0.00    +0.000 C 
ATOM     18  O   UNL     1      -3.765  10.300  16.926  0.00  0.00    +0.000 OA
ENDROOT
BRANCH   1  19
ATOM     19  N   UNL     1      -3.403  13.144  21.995  0.00  0.00    +0.000 N 
ATOM     20  H   UNL     1      -4.407  13.242  21.897  0.00  0.00    +0.000 HD
BRANCH  19  24
ATOM     21  C   UNL     1      -1.860  15.326  25.260  0.00  0.00    +0.000 A 
ATOM     22  C   UNL     1      -1.026  15.028  24.182  0.00  0.00    +0.000 A 
ATOM     23  C   UNL     1      -1.526  14.346  23.061  0.00  0.00    +0.000 A 
ATOM     24  C   UNL     1      -2.871  13.963  23.009  0.00  0.00    +0.000 A 
ATOM     25  C   UNL     1      -3.721  14.328  24.079  0.00  0.00    +0.000 A 
ATOM     26  C   UNL     1      -3.215  15.013  25.188  0.00  0.00    +0.000 A 
BRANCH  21  28
ATOM     27  C   UNL     1      -1.234  17.371  26.242  0.00  0.00    +0.000 C 
ATOM     28  O   UNL     1      -1.278  15.946  26.335  0.00  0.00    +0.000 OA
ENDBRANCH  21  28
BRANCH  25  29
ATOM     29  O   UNL     1      -5.031  13.922  23.943  0.00  0.00    +0.000 OA
ATOM     30  C   UNL     1      -5.992  14.948  23.725  0.00  0.00    +0.000 C 
ENDBRANCH  25  29
ENDBRANCH  19  24
ENDBRANCH   1  19
BRANCH  14  31
ATOM     31  O   UNL     1      -7.412  10.161  20.976  0.00  0.00    +0.000 OA
ATOM     32  C   UNL     1      -7.614   8.841  20.520  0.00  0.00    +0.000 C 
ENDBRANCH  14  31
TORSDOF 5
ENDMDL
MODEL 5
REMARK VINA RESULT:      -6.9      6.752     11.843
REMARK  Name = 
REMARK  8 active torsions:
REMARK  status: ('A' for Active; 'I' for Inactive)
REMARK    1  A    between atoms: C_1  and  O_2
REMARK    2  A    between atoms: O_2  and  C_3
REMARK    3  A    between atoms: C_6  and  N_7
REMARK    4  A    between atoms: N_7  and  C_8
REMARK    5  A    between atoms: C_21  and  O_22
REMARK    6  A    between atoms: O_22  and  C_23
REMARK    7  A    between atoms: C_28  and  O_29
REMARK    8  A    between atoms: O_29  and  C_30
REMARK                            x       y       z     vdW  Elec       q    Type
REMARK                         _______ _______ _______ _____ _____    ______ ____
ROOT
ATOM      1  C   UNL     1      -3.580  13.194  20.317  0.00  0.00    +0.000 A 
ATOM      2  N   UNL     1      -3.025  14.259  20.918  0.00  0.00    +0.000 NA
ATOM      3  C   UNL     1      -3.642  14.832  21.964  0.00  0.00    +0.000 A 
ATOM      4  C   UNL     1      -2.968  15.835  22.625  0.00  0.00    +0.000 A 
ATOM      5  C   UNL     1      -3.459  16.366  23.816  0.00  0.00    +0.000 A 
ATOM      6  C   UNL     1      -4.690  15.948  24.313  0.00  0.00    +0.000 A 
ATOM      7  C   UNL     1      -5.455  15.037  23.586  0.00  0.00    +0.000 A 
ATOM      8  C   UNL     1      -4.915  14.453  22.421  0.00  0.00    +0.000 A 
ATOM      9  C   UNL     1      -5.529  13.496  21.638  0.00  0.00    +0.000 A 
ATOM     10  C   UNL     1      -4.849  12.746  20.680  0.00  0.00    +0.000 A 
ATOM     11  C   UNL     1      -5.805  12.036  19.829  0.00  0.00    +0.000 A 
ATOM     12  C   UNL     1      -5.455  11.426  18.644  0.00  0.00    +0.000 A 
ATOM     13  C   UNL     1      -5.905  12.084  17.513  0.00  0.00    +0.000 A 
ATOM     14  C   UNL     1      -6.873  13.089  17.605  0.00  0.00    +0.000 A 
ATOM     15  C   UNL     1      -7.549  13.338  18.811  0.00  0.00    +0.000 A 
ATOM     16  C   UNL     1      -7.011  12.746  19.950  0.00  0.00    +0.000 A 
ATOM     17  C   UNL     1      -6.976  13.446  21.267  0.00  0.00    +0.000 C 
ATOM     18  O   UNL     1      -7.915  13.960  21.842  0.00  0.00    +0.000 OA
ENDROOT
BRANCH   1  19
ATOM     19  N   UNL     1      -2.865  12.566  19.299  0.00  0.00    +0.000 N 
ATOM     20  H   UNL     1      -3.273  12.690  18.380  0.00  0.00    +0.000 HD
BRANCH  19  24
ATOM     21  C   UNL     1       0.406   9.908  19.111  0.00  0.00    +0.000 A 
ATOM     22  C   UNL     1       0.091  10.519  20.325  0.00  0.00    +0.000 A 
ATOM     23  C   UNL     1      -1.021  11.369  20.427  0.00  0.00    +0.000 A 
ATOM     24  C   UNL     1      -1.833  11.608  19.313  0.00  0.00    +0.000 A 
ATOM     25  C   UNL     1      -1.542  10.932  18.106  0.00  0.00    +0.000 A 
ATOM     26  C   UNL     1      -0.436  10.081  18.015  0.00  0.00    +0.000 A 
BRANCH  21  28
ATOM     27  C   UNL     1       1.945   8.726  17.779  0.00  0.00    +0.000 C 
ATOM     28  O   UNL     1       1.538   9.135  19.086  0.00  0.00    +0.000 OA
ENDBRANCH  21  28
BRANCH  25  29
ATOM     29  O   UNL     1      -2.396  11.214  17.062  0.00  0.00    +0.000 OA
ATOM     30  C   UNL     1      -2.494  10.230  16.040  0.00  0.00    +0.000 C 
ENDBRANCH  25  29
ENDBRANCH  19  24
ENDBRANCH   1  19
BRANCH  14  31
ATOM     31  O   UNL     1      -6.913  13.871  16.484  0.00  0.00    +0.000 OA
ATOM     32  C   UNL     1      -7.242  15.232  16.654  0.00  0.00    +0.000 C 
ENDBRANCH  14  31
TORSDOF 5
ENDMDL
MODEL 6
REMARK VINA RESULT:      -6.9      2.849      8.385
REMARK  Name = 
REMARK  8 active torsions:
REMARK  status: ('A' for Active; 'I' for Inactive)
REMARK    1  A    between atoms: C_1  and  O_2
REMARK    2  A    between atoms: O_2  and  C_3
REMARK    3  A    between atoms: C_6  and  N_7
REMARK    4  A    between atoms: N_7  and  C_8
REMARK    5  A    between atoms: C_21  and  O_22
REMARK    6  A    between atoms: O_22  and  C_23
REMARK    7  A    between atoms: C_28  and  O_29
REMARK    8  A    between atoms: O_29  and  C_30
REMARK                            x       y       z     vdW  Elec       q    Type
REMARK                         _______ _______ _______ _____ _____    ______ ____
ROOT
ATOM      1  C   UNL     1       1.221  11.080  18.615  0.00  0.00    +0.000 A 
ATOM      2  N   UNL     1       2.222  11.873  18.198  0.00  0.00    +0.000 NA
ATOM      3  C   UNL     1       2.335  13.119  18.688  0.00  0.00    +0.000 A 
ATOM      4  C   UNL     1       3.451  13.841  18.329  0.00  0.00    +0.000 A 
ATOM      5  C   UNL     1       3.732  15.071  18.921  0.00  0.00    +0.000 A 
ATOM      6  C   UNL     1       2.836  15.631  19.827  0.00  0.00    +0.000 A 
ATOM      7  C   UNL     1       1.632  14.983  20.099  0.00  0.00    +0.000 A 
ATOM      8  C   UNL     1       1.393  13.705  19.550  0.00  0.00    +0.000 A 
ATOM      9  C   UNL     1       0.279  12.923  19.779  0.00  0.00    +0.000 A 
ATOM     10  C   UNL     1       0.223  11.568  19.456  0.00  0.00    +0.000 A 
ATOM     11  C   UNL     1      -1.158  11.089  19.548  0.00  0.00    +0.000 A 
ATOM     12  C   UNL     1      -1.573   9.876  19.044  0.00  0.00    +0.000 A 
ATOM     13  C   UNL     1      -2.352   9.970  17.903  0.00  0.00    +0.000 A 
ATOM     14  C   UNL     1      -2.899  11.196  17.509  0.00  0.00    +0.000 A 
ATOM     15  C   UNL     1      -2.831  12.324  18.343  0.00  0.00    +0.000 A 
ATOM     16  C   UNL     1      -1.959  12.236  19.424  0.00  0.00    +0.000 A 
ATOM     17  C   UNL     1      -1.135  13.396  19.874  0.00  0.00    +0.000 C 
ATOM     18  O   UNL     1      -1.536  14.511  20.144  0.00  0.00    +0.000 OA
ENDROOT
BRANCH   1  19
ATOM     19  N   UNL     1       1.191   9.763  18.160  0.00  0.00    +0.000 N 
ATOM     20  H   UNL     1       0.330   9.516  17.688  0.00  0.00    +0.000 HD
BRANCH  19  24
ATOM     21  C   UNL     1       3.345   6.219  18.937  0.00  0.00    +0.000 A 
ATOM     22  C   UNL     1       3.603   6.932  17.766  0.00  0.00    +0.000 A 
ATOM     23  C   UNL     1       2.935   8.140  17.506  0.00  0.00    +0.000 A 
ATOM     24  C   UNL     1       2.009   8.648  18.424  0.00  0.00    +0.000 A 
ATOM     25  C   UNL     1       1.805   7.950  19.636  0.00  0.00    +0.000 A 
ATOM     26  C   UNL     1       2.479   6.751  19.890  0.00  0.00    +0.000 A 
BRANCH  21  28
ATOM     27  C   UNL     1       5.136   4.862  18.236  0.00  0.00    +0.000 C 
ATOM     28  O   UNL     1       4.000   5.024  19.087  0.00  0.00    +0.000 OA
ENDBRANCH  21  28
BRANCH  25  29
ATOM     29  O   UNL     1       0.886   8.523  20.488  0.00  0.00    +0.000 OA
ATOM     30  C   UNL     1       1.343   8.829  21.800  0.00  0.00    +0.000 C 
ENDBRANCH  25  29
ENDBRANCH  19  24
ENDBRANCH   1  19
BRANCH  14  31
ATOM     31  O   UNL     1      -3.298  11.184  16.201  0.00  0.00    +0.000 OA
ATOM     32  C   UNL     1      -2.775  10.169  15.374  0.00  0.00    +0.000 C 
ENDBRANCH  14  31
TORSDOF 5
ENDMDL
MODEL 7
REMARK VINA RESULT:      -6.7      7.280     10.461
REMARK  Name = 
REMARK  8 active torsions:
REMARK  status: ('A' for Active; 'I' for Inactive)
REMARK    1  A    between atoms: C_1  and  O_2
REMARK    2  A    between atoms: O_2  and  C_3
REMARK    3  A    between atoms: C_6  and  N_7
REMARK    4  A    between atoms: N_7  and  C_8
REMARK    5  A    between atoms: C_21  and  O_22
REMARK    6  A    between atoms: O_22  and  C_23
REMARK    7  A    between atoms: C_28  and  O_29
REMARK    8  A    between atoms: O_29  and  C_30
REMARK                            x       y       z     vdW  Elec       q    Type
REMARK                         _______ _______ _______ _____ _____    ______ ____
ROOT
ATOM      1  C   UNL     1      -1.138  13.166  20.502  0.00  0.00    +0.000 A 
ATOM      2  N   UNL     1      -0.962  14.016  19.476  0.00  0.00    +0.000 NA
ATOM      3  C   UNL     1      -0.182  15.098  19.633  0.00  0.00    +0.000 A 
ATOM      4  C   UNL     1       0.071  15.862  18.516  0.00  0.00    +0.000 A 
ATOM      5  C   UNL     1       1.000  16.901  18.551  0.00  0.00    +0.000 A 
ATOM      6  C   UNL     1       1.625  17.238  19.748  0.00  0.00    +0.000 A 
ATOM      7  C   UNL     1       1.279  16.570  20.921  0.00  0.00    +0.000 A 
ATOM      8  C   UNL     1       0.393  15.474  20.859  0.00  0.00    +0.000 A 
ATOM      9  C   UNL     1       0.008  14.684  21.923  0.00  0.00    +0.000 A 
ATOM     10  C   UNL     1      -0.626  13.453  21.766  0.00  0.00    +0.000 A 
ATOM     11  C   UNL     1      -1.159  12.997  23.052  0.00  0.00    +0.000 A 
ATOM     12  C   UNL     1      -2.052  11.956  23.174  0.00  0.00    +0.000 A 
ATOM     13  C   UNL     1      -3.340  12.346  23.499  0.00  0.00    +0.000 A 
ATOM     14  C   UNL     1      -3.601  13.643  23.954  0.00  0.00    +0.000 A 
ATOM     15  C   UNL     1      -2.557  14.528  24.267  0.00  0.00    +0.000 A 
ATOM     16  C   UNL     1      -1.287  14.156  23.834  0.00  0.00    +0.000 A 
ATOM     17  C   UNL     1      -0.306  15.150  23.308  0.00  0.00    +0.000 C 
ATOM     18  O   UNL     1       0.058  16.172  23.855  0.00  0.00    +0.000 OA
ENDROOT
BRANCH   1  19
ATOM     19  N   UNL     1      -1.873  12.004  20.275  0.00  0.00    +0.000 N 
ATOM     20  H   UNL     1      -2.139  11.520  21.124  0.00  0.00    +0.000 HD
BRANCH  19  24
ATOM     21  C   UNL     1      -2.626  10.044  16.616  0.00  0.00    +0.000 A 
ATOM     22  C   UNL     1      -1.417   9.819  17.274  0.00  0.00    +0.000 A 
ATOM     23  C   UNL     1      -1.161  10.421  18.517  0.00  0.00    +0.000 A 
ATOM     24  C   UNL     1      -2.119  11.246  19.114  0.00  0.00    +0.000 A 
ATOM     25  C   UNL     1      -3.366  11.413  18.469  0.00  0.00    +0.000 A 
ATOM     26  C   UNL     1      -3.615  10.805  17.234  0.00  0.00    +0.000 A 
BRANCH  21  28
ATOM     27  C   UNL     1      -3.333  10.319  14.388  0.00  0.00    +0.000 C 
ATOM     28  O   UNL     1      -2.773   9.461  15.384  0.00  0.00    +0.000 OA
ENDBRANCH  21  28
BRANCH  25  29
ATOM     29  O   UNL     1      -4.257  12.232  19.129  0.00  0.00    +0.000 OA
ATOM     30  C   UNL     1      -5.637  11.990  18.886  0.00  0.00    +0.000 C 
ENDBRANCH  25  29
ENDBRANCH  19  24
ENDBRANCH   1  19
BRANCH  14  31
ATOM     31  O   UNL     1      -4.927  13.964  23.858  0.00  0.00    +0.000 OA
ATOM     32  C   UNL     1      -5.719  13.191  22.984  0.00  0.00    +0.000 C 
ENDBRANCH  14  31
TORSDOF 5
ENDMDL
MODEL 8
REMARK VINA RESULT:      -6.7      0.911      1.024
REMARK  Name = 
REMARK  8 active torsions:
REMARK  status: ('A' for Active; 'I' for Inactive)
REMARK    1  A    between atoms: C_1  and  O_2
REMARK    2  A    between atoms: O_2  and  C_3
REMARK    3  A    between atoms: C_6  and  N_7
REMARK    4  A    between atoms: N_7  and  C_8
REMARK    5  A    between atoms: C_21  and  O_22
REMARK    6  A    between atoms: O_22  and  C_23
REMARK    7  A    between atoms: C_28  and  O_29
REMARK    8  A    between atoms: O_29  and  C_30
REMARK                            x       y       z     vdW  Elec       q    Type
REMARK                         _______ _______ _______ _____ _____    ______ ____
ROOT
ATOM      1  C   UNL     1       3.464   6.363  18.434  0.00  0.00    +0.000 A 
ATOM      2  N   UNL     1       4.758   6.602  18.164  0.00  0.00    +0.000 NA
ATOM      3  C   UNL     1       5.402   5.844  17.261  0.00  0.00    +0.000 A 
ATOM      4  C   UNL     1       6.685   6.214  16.926  0.00  0.00    +0.000 A 
ATOM      5  C   UNL     1       7.363   5.588  15.880  0.00  0.00    +0.000 A 
ATOM      6  C   UNL     1       6.780   4.514  15.214  0.00  0.00    +0.000 A 
ATOM      7  C   UNL     1       5.540   4.032  15.631  0.00  0.00    +0.000 A 
ATOM      8  C   UNL     1       4.833   4.719  16.640  0.00  0.00    +0.000 A 
ATOM      9  C   UNL     1       3.576   4.396  17.109  0.00  0.00    +0.000 A 
ATOM     10  C   UNL     1       2.809   5.263  17.886  0.00  0.00    +0.000 A 
ATOM     11  C   UNL     1       1.671   4.543  18.462  0.00  0.00    +0.000 A 
ATOM     12  C   UNL     1       0.885   5.055  19.471  0.00  0.00    +0.000 A 
ATOM     13  C   UNL     1       1.077   4.451  20.702  0.00  0.00    +0.000 A 
ATOM     14  C   UNL     1       1.776   3.243  20.806  0.00  0.00    +0.000 A 
ATOM     15  C   UNL     1       2.146   2.517  19.663  0.00  0.00    +0.000 A 
ATOM     16  C   UNL     1       2.041   3.188  18.448  0.00  0.00    +0.000 A 
ATOM     17  C   UNL     1       3.048   3.021  17.359  0.00  0.00    +0.000 C 
ATOM     18  O   UNL     1       3.427   1.973  16.875  0.00  0.00    +0.000 OA
ENDROOT
BRANCH   1  19
ATOM     19  N   UNL     1       2.802   7.230  19.302  0.00  0.00    +0.000 N 
ATOM     20  H   UNL     1       2.885   6.970  20.277  0.00  0.00    +0.000 HD
BRANCH  19  24
ATOM     21  C   UNL     1       0.188  10.509  18.838  0.00  0.00    +0.000 A 
ATOM     22  C   UNL     1       0.753   9.921  17.706  0.00  0.00    +0.000 A 
ATOM     23  C   UNL     1       1.588   8.798  17.829  0.00  0.00    +0.000 A 
ATOM     24  C   UNL     1       1.856   8.250  19.088  0.00  0.00    +0.000 A 
ATOM     25  C   UNL     1       1.225   8.815  20.220  0.00  0.00    +0.000 A 
ATOM     26  C   UNL     1       0.390   9.929  20.088  0.00  0.00    +0.000 A 
BRANCH  21  28
ATOM     27  C   UNL     1      -1.704  11.434  17.787  0.00  0.00    +0.000 C 
ATOM     28  O   UNL     1      -0.571  11.632  18.634  0.00  0.00    +0.000 OA
ENDBRANCH  21  28
BRANCH  25  29
ATOM     29  O   UNL     1       1.534   8.210  21.419  0.00  0.00    +0.000 OA
ATOM     30  C   UNL     1       1.396   9.010  22.586  0.00  0.00    +0.000 C 
ENDBRANCH  25  29
ENDBRANCH  19  24
ENDBRANCH   1  19
BRANCH  14  31
ATOM     31  O   UNL     1       2.194   3.000  22.085  0.00  0.00    +0.000 OA
ATOM     32  C   UNL     1       2.194   1.659  22.522  0.00  0.00    +0.000 C 
ENDBRANCH  14  31
TORSDOF 5
ENDMDL
MODEL 9
REMARK VINA RESULT:      -6.7      8.023     11.037
REMARK  Name = 
REMARK  8 active torsions:
REMARK  status: ('A' for Active; 'I' for Inactive)
REMARK    1  A    between atoms: C_1  and  O_2
REMARK    2  A    between atoms: O_2  and  C_3
REMARK    3  A    between atoms: C_6  and  N_7
REMARK    4  A    between atoms: N_7  and  C_8
REMARK    5  A    between atoms: C_21  and  O_22
REMARK    6  A    between atoms: O_22  and  C_23
REMARK    7  A    between atoms: C_28  and  O_29
REMARK    8  A    between atoms: O_29  and  C_30
REMARK                            x       y       z     vdW  Elec       q    Type
REMARK                         _______ _______ _______ _____ _____    ______ ____
ROOT
ATOM      1  C   UNL     1      -4.165  13.467  20.310  0.00  0.00    +0.000 A 
ATOM      2  N   UNL     1      -3.008  12.814  20.108  0.00  0.00    +0.000 NA
ATOM      3  C   UNL     1      -2.940  11.852  19.172  0.00  0.00    +0.000 A 
ATOM      4  C   UNL     1      -1.702  11.308  18.915  0.00  0.00    +0.000 A 
ATOM      5  C   UNL     1      -1.511  10.430  17.849  0.00  0.00    +0.000 A 
ATOM      6  C   UNL     1      -2.595  10.021  17.077  0.00  0.00    +0.000 A 
ATOM      7  C   UNL     1      -3.880  10.450  17.409  0.00  0.00    +0.000 A 
ATOM      8  C   UNL     1      -4.050  11.394  18.442  0.00  0.00    +0.000 A 
ATOM      9  C   UNL     1      -5.249  11.953  18.838  0.00  0.00    +0.000 A 
ATOM     10  C   UNL     1      -5.331  13.081  19.652  0.00  0.00    +0.000 A 
ATOM     11  C   UNL     1      -6.705  13.257  20.126  0.00  0.00    +0.000 A 
ATOM     12  C   UNL     1      -7.049  14.120  21.144  0.00  0.00    +0.000 A 
ATOM     13  C   UNL     1      -7.394  13.493  22.329  0.00  0.00    +0.000 A 
ATOM     14  C   UNL     1      -7.655  12.119  22.362  0.00  0.00    +0.000 A 
ATOM     15  C   UNL     1      -7.755  11.369  21.179  0.00  0.00    +0.000 A 
ATOM     16  C   UNL     1      -7.302  11.991  20.019  0.00  0.00    +0.000 A 
ATOM     17  C   UNL     1      -6.561  11.247  18.958  0.00  0.00    +0.000 C 
ATOM     18  O   UNL     1      -6.915  10.224  18.407  0.00  0.00    +0.000 OA
ENDROOT
BRANCH   1  19
ATOM     19  N   UNL     1      -4.174  14.523  21.219  0.00  0.00    +0.000 N 
ATOM     20  H   UNL     1      -4.606  15.365  20.859  0.00  0.00    +0.000 HD
BRANCH  19  24
ATOM     21  C   UNL     1      -2.300  15.486  24.875  0.00  0.00    +0.000 A 
ATOM     22  C   UNL     1      -3.265  14.479  24.846  0.00  0.00    +0.000 A 
ATOM     23  C   UNL     1      -3.869  14.105  23.635  0.00  0.00    +0.000 A 
ATOM     24  C   UNL     1      -3.503  14.734  22.440  0.00  0.00    +0.000 A 
ATOM     25  C   UNL     1      -2.478  15.706  22.472  0.00  0.00    +0.000 A 
ATOM     26  C   UNL     1      -1.877  16.067  23.681  0.00  0.00    +0.000 A 
BRANCH  21  28
ATOM     27  C   UNL     1      -0.460  16.320  26.083  0.00  0.00    +0.000 C 
ATOM     28  O   UNL     1      -1.800  15.825  26.105  0.00  0.00    +0.000 OA
ENDBRANCH  21  28
BRANCH  25  29
ATOM     29  O   UNL     1      -2.171  16.267  21.251  0.00  0.00    +0.000 OA
ATOM     30  C   UNL     1      -0.834  16.099  20.795  0.00  0.00    +0.000 C 
ENDBRANCH  25  29
ENDBRANCH  19  24
ENDBRANCH   1  19
BRANCH  14  31
ATOM     31  O   UNL     1      -7.599  11.616  23.633  0.00  0.00    +0.000 OA
ATOM     32  C   UNL     1      -6.677  12.206  24.522  0.00  0.00    +0.000 C 
ENDBRANCH  14  31
TORSDOF 5
ENDMDL
