MODEL 1
REMARK VINA RESULT:      -8.7      0.000      0.000
REMARK  Name = 
REMARK  10 active torsions:
REMARK  status: ('A' for Active; 'I' for Inactive)
REMARK    1  A    between atoms: C_1  and  C_2
REMARK    2  A    between atoms: C_7  and  N_8
REMARK    3  A    between atoms: C_12  and  C_14
REMARK    4  A    between atoms: C_14  and  C_15
REMARK    5  A    between atoms: C_14  and  N_25
REMARK    6  A    between atoms: C_15  and  C_16
REMARK    7  A    between atoms: C_26  and  C_28
REMARK    8  A    between atoms: C_28  and  C_29
REMARK    9  A    between atoms: C_28  and  C_30
REMARK   10  A    between atoms: C_28  and  N_31
REMARK                            x       y       z     vdW  Elec       q    Type
REMARK                         _______ _______ _______ _____ _____    ______ ____
ROOT
ATOM      1  C   UNL     1       2.538   6.465  18.561  0.00  0.00    +0.000 C 
ENDROOT
BRANCH   1   6
ATOM      2  N   UNL     1      -0.465  10.528  19.543  0.00  0.00    +0.000 N 
ATOM      3  C   UNL     1       0.095   9.927  18.305  0.00  0.00    +0.000 C 
ATOM      4  C   UNL     1       1.535   9.407  18.592  0.00  0.00    +0.000 C 
ATOM      5  N   UNL     1       1.568   8.506  19.762  0.00  0.00    +0.000 N 
ATOM      6  C   UNL     1       2.015   7.196  19.827  0.00  0.00    +0.000 C 
ATOM      7  O   UNL     1       1.905   6.556  20.882  0.00  0.00    +0.000 OA
ATOM      8  C   UNL     1       0.958   9.111  20.958  0.00  0.00    +0.000 C 
ATOM      9  C   UNL     1      -0.487   9.553  20.663  0.00  0.00    +0.000 C 
BRANCH   2  16
ATOM     10  C   UNL     1      -0.846  12.684  21.452  0.00  0.00    +0.000 C 
ATOM     11  C   UNL     1      -1.876  12.309  20.419  0.00  0.00    +0.000 A 
ATOM     12  C   UNL     1      -3.102  12.999  20.431  0.00  0.00    +0.000 A 
ATOM     13  C   UNL     1      -4.097  12.704  19.507  0.00  0.00    +0.000 A 
ATOM     14  C   UNL     1      -3.874  11.716  18.556  0.00  0.00    +0.000 A 
ATOM     15  C   UNL     1      -2.663  11.013  18.540  0.00  0.00    +0.000 A 
ATOM     16  C   UNL     1      -1.652  11.276  19.477  0.00  0.00    +0.000 A 
ENDBRANCH   2  16
ENDBRANCH   1   6
BRANCH   1  17
ATOM     17  N   UNL     1       2.603   5.028  18.863  0.00  0.00    +0.000 N 
ATOM     18  C   UNL     1       1.831   4.095  18.220  0.00  0.00    +0.000 C 
ATOM     19  O   UNL     1       1.072   4.391  17.296  0.00  0.00    +0.000 OA
ATOM     20  H   UNL     1       3.193   4.748  19.638  0.00  0.00    +0.000 HD
BRANCH  18  21
ATOM     21  C   UNL     1       1.962   2.625  18.711  0.00  0.00    +0.000 C 
ATOM     22  C   UNL     1       3.134   1.936  18.013  0.00  0.00    +0.000 C 
ATOM     23  C   UNL     1       2.111   2.564  20.233  0.00  0.00    +0.000 C 
BRANCH  21  24
ATOM     24  N   UNL     1       0.716   1.904  18.349  0.00  0.00    +0.000 NA
ATOM     25  H   UNL     1       0.116   2.567  17.849  0.00  0.00    +0.000 HD
ATOM     26  H   UNL     1       0.196   1.734  19.214  0.00  0.00    +0.000 HD
ENDBRANCH  21  24
ENDBRANCH  18  21
ENDBRANCH   1  17
BRANCH   1  27
ATOM     27  C   UNL     1       3.948   7.013  18.242  0.00  0.00    +0.000 C 
BRANCH  27  28
ATOM     28  C   UNL     1       5.006   5.977  17.969  0.00  0.00    +0.000 A 
ATOM     29  C   UNL     1       5.668   5.198  18.899  0.00  0.00    +0.000 A 
ATOM     30  N   UNL     1       6.476   4.314  18.233  0.00  0.00    +0.000 N 
ATOM     31  C   UNL     1       6.333   4.470  16.879  0.00  0.00    +0.000 A 
ATOM     32  C   UNL     1       6.899   3.743  15.820  0.00  0.00    +0.000 A 
ATOM     33  C   UNL     1       6.554   4.114  14.517  0.00  0.00    +0.000 A 
ATOM     34  C   UNL     1       5.700   5.187  14.281  0.00  0.00    +0.000 A 
ATOM     35  C   UNL     1       5.150   5.908  15.349  0.00  0.00    +0.000 A 
ATOM     36  C   UNL     1       5.451   5.533  16.678  0.00  0.00    +0.000 A 
ATOM     37  H   UNL     1       7.057   3.610  18.669  0.00  0.00    +0.000 HD
ENDBRANCH  27  28
ENDBRANCH   1  27
TORSDOF 7
ENDMDL
MODEL 2
REMARK VINA RESULT:      -8.2      1.063      1.729
REMARK  Name = 
REMARK  10 active torsions:
REMARK  status: ('A' for Active; 'I' for Inactive)
REMARK    1  A    between atoms: C_1  and  C_2
REMARK    2  A    between atoms: C_7  and  N_8
REMARK    3  A    between atoms: C_12  and  C_14
REMARK    4  A    between atoms: C_14  and  C_15
REMARK    5  A    between atoms: C_14  and  N_25
REMARK    6  A    between atoms: C_15  and  C_16
REMARK    7  A    between atoms: C_26  and  C_28
REMARK    8  A    between atoms: C_28  and  C_29
REMARK    9  A    between atoms: C_28  and  C_30
REMARK   10  A    between atoms: C_28  and  N_31
REMARK                            x       y       z     vdW  Elec       q    Type
REMARK                         _______ _______ _______ _____ _____    ______ ____
ROOT
ATOM      1  C   UNL     1       2.379   6.868  18.196  0.00  0.00    +0.000 C 
ENDROOT
BRANCH   1   6
ATOM      2  N   UNL     1      -0.745  10.791  19.358  0.00  0.00    +0.000 N 
ATOM      3  C   UNL     1      -0.274  10.181  18.087  0.00  0.00    +0.000 C 
ATOM      4  C   UNL     1       1.215   9.750  18.245  0.00  0.00    +0.000 C 
ATOM      5  N   UNL     1       1.413   8.892  19.430  0.00  0.00    +0.000 N 
ATOM      6  C   UNL     1       1.940   7.611  19.487  0.00  0.00    +0.000 C 
ATOM      7  O   UNL     1       1.971   7.002  20.566  0.00  0.00    +0.000 OA
ATOM      8  C   UNL     1       0.889   9.503  20.663  0.00  0.00    +0.000 C 
ATOM      9  C   UNL     1      -0.601   9.854  20.500  0.00  0.00    +0.000 C 
BRANCH   2  16
ATOM     10  C   UNL     1      -1.080  12.952  21.269  0.00  0.00    +0.000 C 
ATOM     11  C   UNL     1      -2.174  12.504  20.335  0.00  0.00    +0.000 A 
ATOM     12  C   UNL     1      -3.431  13.123  20.448  0.00  0.00    +0.000 A 
ATOM     13  C   UNL     1      -4.485  12.758  19.619  0.00  0.00    +0.000 A 
ATOM     14  C   UNL     1      -4.290  11.770  18.663  0.00  0.00    +0.000 A 
ATOM     15  C   UNL     1      -3.046  11.135  18.547  0.00  0.00    +0.000 A 
ATOM     16  C   UNL     1      -1.974  11.470  19.389  0.00  0.00    +0.000 A 
ENDBRANCH   2  16
ENDBRANCH   1   6
BRANCH   1  17
ATOM     17  N   UNL     1       2.707   5.483  18.562  0.00  0.00    +0.000 N 
ATOM     18  C   UNL     1       2.007   4.403  18.093  0.00  0.00    +0.000 C 
ATOM     19  O   UNL     1       1.089   4.514  17.279  0.00  0.00    +0.000 OA
ATOM     20  H   UNL     1       3.436   5.351  19.253  0.00  0.00    +0.000 HD
BRANCH  18  21
ATOM     21  C   UNL     1       2.431   3.008  18.637  0.00  0.00    +0.000 C 
ATOM     22  C   UNL     1       3.930   2.990  18.933  0.00  0.00    +0.000 C 
ATOM     23  C   UNL     1       1.617   2.630  19.877  0.00  0.00    +0.000 C 
BRANCH  21  24
ATOM     24  N   UNL     1       2.151   1.998  17.586  0.00  0.00    +0.000 NA
ATOM     25  H   UNL     1       1.329   1.465  17.887  0.00  0.00    +0.000 HD
ATOM     26  H   UNL     1       2.900   1.301  17.623  0.00  0.00    +0.000 HD
ENDBRANCH  21  24
ENDBRANCH  18  21
ENDBRANCH   1  17
BRANCH   1  27
ATOM     27  C   UNL     1       3.626   7.587  17.633  0.00  0.00    +0.000 C 
BRANCH  27  28
ATOM     28  C   UNL     1       4.649   6.702  16.973  0.00  0.00    +0.000 A 
ATOM     29  C   UNL     1       4.813   6.486  15.617  0.00  0.00    +0.000 A 
ATOM     30  N   UNL     1       5.917   5.695  15.431  0.00  0.00    +0.000 N 
ATOM     31  C   UNL     1       6.508   5.415  16.636  0.00  0.00    +0.000 A 
ATOM     32  C   UNL     1       7.688   4.712  16.923  0.00  0.00    +0.000 A 
ATOM     33  C   UNL     1       8.069   4.597  18.263  0.00  0.00    +0.000 A 
ATOM     34  C   UNL     1       7.286   5.138  19.278  0.00  0.00    +0.000 A 
ATOM     35  C   UNL     1       6.106   5.831  18.976  0.00  0.00    +0.000 A 
ATOM     36  C   UNL     1       5.715   5.995  17.628  0.00  0.00    +0.000 A 
ATOM     37  H   UNL     1       6.280   5.401  14.534  0.00  0.00    +0.000 HD
ENDBRANCH  27  28
ENDBRANCH   1  27
TORSDOF 7
ENDMDL
MODEL 3
REMARK VINA RESULT:      -8.0      2.556      9.535
REMARK  Name = 
REMARK  10 active torsions:
REMARK  status: ('A' for Active; 'I' for Inactive)
REMARK    1  A    between atoms: C_1  and  C_2
REMARK    2  A    between atoms: C_7  and  N_8
REMARK    3  A    between atoms: C_12  and  C_14
REMARK    4  A    between atoms: C_14  and  C_15
REMARK    5  A    between atoms: C_14  and  N_25
REMARK    6  A    between atoms: C_15  and  C_16
REMARK    7  A    between atoms: C_26  and  C_28
REMARK    8  A    between atoms: C_28  and  C_29
REMARK    9  A    between atoms: C_28  and  C_30
REMARK   10  A    between atoms: C_28  and  N_31
REMARK                            x       y       z     vdW  Elec       q    Type
REMARK                         _______ _______ _______ _____ _____    ______ ____
ROOT
ATOM      1  C   UNL     1      -0.044   9.970  18.997  0.00  0.00    +0.000 C 
ENDROOT
BRANCH   1   6
ATOM      2  N   UNL     1       2.769   5.670  19.278  0.00  0.00    +0.000 N 
ATOM      3  C   UNL     1       1.568   6.171  19.993  0.00  0.00    +0.000 C 
ATOM      4  C   UNL     1       1.706   7.708  20.214  0.00  0.00    +0.000 C 
ATOM      5  N   UNL     1       1.990   8.418  18.951  0.00  0.00    +0.000 N 
ATOM      6  C   UNL     1       1.269   9.443  18.358  0.00  0.00    +0.000 C 
ATOM      7  O   UNL     1       1.611   9.882  17.251  0.00  0.00    +0.000 OA
ATOM      8  C   UNL     1       3.154   7.862  18.240  0.00  0.00    +0.000 C 
ATOM      9  C   UNL     1       2.958   6.358  17.976  0.00  0.00    +0.000 C 
BRANCH   2  16
ATOM     10  C   UNL     1       5.509   4.704  19.267  0.00  0.00    +0.000 C 
ATOM     11  C   UNL     1       4.316   3.794  19.132  0.00  0.00    +0.000 A 
ATOM     12  C   UNL     1       4.553   2.423  18.926  0.00  0.00    +0.000 A 
ATOM     13  C   UNL     1       3.499   1.527  18.793  0.00  0.00    +0.000 A 
ATOM     14  C   UNL     1       2.193   1.994  18.869  0.00  0.00    +0.000 A 
ATOM     15  C   UNL     1       1.942   3.359  19.061  0.00  0.00    +0.000 A 
ATOM     16  C   UNL     1       2.989   4.286  19.175  0.00  0.00    +0.000 A 
ENDBRANCH   2  16
ENDBRANCH   1   6
BRANCH   1  17
ATOM     17  N   UNL     1      -0.879  10.524  17.922  0.00  0.00    +0.000 N 
ATOM     18  C   UNL     1      -2.170  10.122  17.699  0.00  0.00    +0.000 C 
ATOM     19  O   UNL     1      -2.744   9.310  18.426  0.00  0.00    +0.000 OA
ATOM     20  H   UNL     1      -0.435  11.172  17.283  0.00  0.00    +0.000 HD
BRANCH  18  21
ATOM     21  C   UNL     1      -2.893  10.748  16.471  0.00  0.00    +0.000 C 
ATOM     22  C   UNL     1      -3.048   9.708  15.362  0.00  0.00    +0.000 C 
ATOM     23  C   UNL     1      -4.247  11.337  16.871  0.00  0.00    +0.000 C 
BRANCH  21  24
ATOM     24  N   UNL     1      -2.050  11.857  15.955  0.00  0.00    +0.000 NA
ATOM     25  H   UNL     1      -2.522  12.239  15.131  0.00  0.00    +0.000 HD
ATOM     26  H   UNL     1      -1.203  11.441  15.561  0.00  0.00    +0.000 HD
ENDBRANCH  21  24
ENDBRANCH  18  21
ENDBRANCH   1  17
BRANCH   1  27
ATOM     27  C   UNL     1       0.330  11.075  20.013  0.00  0.00    +0.000 C 
BRANCH  27  28
ATOM     28  C   UNL     1      -0.514  11.131  21.258  0.00  0.00    +0.000 A 
ATOM     29  C   UNL     1      -0.292  10.461  22.446  0.00  0.00    +0.000 A 
ATOM     30  N   UNL     1      -1.232  10.863  23.358  0.00  0.00    +0.000 N 
ATOM     31  C   UNL     1      -2.050  11.814  22.806  0.00  0.00    +0.000 A 
ATOM     32  C   UNL     1      -3.093  12.556  23.383  0.00  0.00    +0.000 A 
ATOM     33  C   UNL     1      -3.752  13.490  22.578  0.00  0.00    +0.000 A 
ATOM     34  C   UNL     1      -3.403  13.654  21.241  0.00  0.00    +0.000 A 
ATOM     35  C   UNL     1      -2.364  12.901  20.678  0.00  0.00    +0.000 A 
ATOM     36  C   UNL     1      -1.656  11.976  21.477  0.00  0.00    +0.000 A 
ATOM     37  H   UNL     1      -1.288  10.548  24.317  0.00  0.00    +0.000 HD
ENDBRANCH  27  28
ENDBRANCH   1  27
TORSDOF 7
ENDMDL
MODEL 4
REMARK VINA RESULT:      -8.0      1.229      1.476
REMARK  Name = 
REMARK  10 active torsions:
REMARK  status: ('A' for Active; 'I' for Inactive)
REMARK    1  A    between atoms: C_1  and  C_2
REMARK    2  A    between atoms: C_7  and  N_8
REMARK    3  A    between atoms: C_12  and  C_14
REMARK    4  A    between atoms: C_14  and  C_15
REMARK    5  A    between atoms: C_14  and  N_25
REMARK    6  A    between atoms: C_15  and  C_16
REMARK    7  A    between atoms: C_26  and  C_28
REMARK    8  A    between atoms: C_28  and  C_29
REMARK    9  A    between atoms: C_28  and  C_30
REMARK   10  A    between atoms: C_28  and  N_31
REMARK                            x       y       z     vdW  Elec       q    Type
REMARK                         _______ _______ _______ _____ _____    ______ ____
ROOT
ATOM      1  C   UNL     1       3.428   5.823  18.846  0.00  0.00    +0.000 C 
ENDROOT
BRANCH   1   6
ATOM      2  N   UNL     1       0.106   9.746  18.581  0.00  0.00    +0.000 N 
ATOM      3  C   UNL     1       0.912   8.999  17.580  0.00  0.00    +0.000 C 
ATOM      4  C   UNL     1       2.297   8.645  18.197  0.00  0.00    +0.000 C 
ATOM      5  N   UNL     1       2.157   7.949  19.492  0.00  0.00    +0.000 N 
ATOM      6  C   UNL     1       2.646   6.704  19.858  0.00  0.00    +0.000 C 
ATOM      7  O   UNL     1       2.375   6.235  20.972  0.00  0.00    +0.000 OA
ATOM      8  C   UNL     1       1.310   8.689  20.442  0.00  0.00    +0.000 C 
ATOM      9  C   UNL     1      -0.075   8.964  19.830  0.00  0.00    +0.000 C 
BRANCH   2  16
ATOM     10  C   UNL     1      -0.775  12.084  20.061  0.00  0.00    +0.000 C 
ATOM     11  C   UNL     1      -1.551  11.500  18.910  0.00  0.00    +0.000 A 
ATOM     12  C   UNL     1      -2.790  12.082  18.589  0.00  0.00    +0.000 A 
ATOM     13  C   UNL     1      -3.558  11.593  17.539  0.00  0.00    +0.000 A 
ATOM     14  C   UNL     1      -3.092  10.516  16.796  0.00  0.00    +0.000 A 
ATOM     15  C   UNL     1      -1.866   9.919  17.113  0.00  0.00    +0.000 A 
ATOM     16  C   UNL     1      -1.083  10.380  18.183  0.00  0.00    +0.000 A 
ENDBRANCH   2  16
ENDBRANCH   1   6
BRANCH   1  17
ATOM     17  N   UNL     1       3.058   4.421  19.089  0.00  0.00    +0.000 N 
ATOM     18  C   UNL     1       1.991   3.815  18.480  0.00  0.00    +0.000 C 
ATOM     19  O   UNL     1       1.302   4.387  17.634  0.00  0.00    +0.000 OA
ATOM     20  H   UNL     1       3.582   3.925  19.800  0.00  0.00    +0.000 HD
BRANCH  18  21
ATOM     21  C   UNL     1       1.687   2.349  18.904  0.00  0.00    +0.000 C 
ATOM     22  C   UNL     1       2.811   1.421  18.444  0.00  0.00    +0.000 C 
ATOM     23  C   UNL     1       1.469   2.247  20.416  0.00  0.00    +0.000 C 
BRANCH  21  24
ATOM     24  N   UNL     1       0.431   1.926  18.236  0.00  0.00    +0.000 NA
ATOM     25  H   UNL     1       0.340   0.915  18.371  0.00  0.00    +0.000 HD
ATOM     26  H   UNL     1       0.578   2.008  17.226  0.00  0.00    +0.000 HD
ENDBRANCH  21  24
ENDBRANCH  18  21
ENDBRANCH   1  17
BRANCH   1  27
ATOM     27  C   UNL     1       4.939   6.034  19.096  0.00  0.00    +0.000 C 
BRANCH  27  28
ATOM     28  C   UNL     1       5.797   6.139  17.864  0.00  0.00    +0.000 A 
ATOM     29  C   UNL     1       6.864   6.995  17.662  0.00  0.00    +0.000 A 
ATOM     30  N   UNL     1       7.437   6.702  16.452  0.00  0.00    +0.000 N 
ATOM     31  C   UNL     1       6.791   5.645  15.866  0.00  0.00    +0.000 A 
ATOM     32  C   UNL     1       7.072   4.961  14.673  0.00  0.00    +0.000 A 
ATOM     33  C   UNL     1       6.247   3.888  14.325  0.00  0.00    +0.000 A 
ATOM     34  C   UNL     1       5.164   3.531  15.123  0.00  0.00    +0.000 A 
ATOM     35  C   UNL     1       4.891   4.228  16.308  0.00  0.00    +0.000 A 
ATOM     36  C   UNL     1       5.731   5.294  16.704  0.00  0.00    +0.000 A 
ATOM     37  H   UNL     1       8.250   7.161  16.065  0.00  0.00    +0.000 HD
ENDBRANCH  27  28
ENDBRANCH   1  27
TORSDOF 7
ENDMDL
MODEL 5
REMARK VINA RESULT:      -8.0      1.158      1.343
REMARK  Name = 
REMARK  10 active torsions:
REMARK  status: ('A' for Active; 'I' for Inactive)
REMARK    1  A    between atoms: C_1  and  C_2
REMARK    2  A    between atoms: C_7  and  N_8
REMARK    3  A    between atoms: C_12  and  C_14
REMARK    4  A    between atoms: C_14  and  C_15
REMARK    5  A    between atoms: C_14  and  N_25
REMARK    6  A    between atoms: C_15  and  C_16
REMARK    7  A    between atoms: C_26  and  C_28
REMARK    8  A    between atoms: C_28  and  C_29
REMARK    9  A    between atoms: C_28  and  C_30
REMARK   10  A    between atoms: C_28  and  N_31
REMARK                            x       y       z     vdW  Elec       q    Type
REMARK                         _______ _______ _______ _____ _____    ______ ____
ROOT
ATOM      1  C   UNL     1       2.751   6.560  18.261  0.00  0.00    +0.000 C 
ENDROOT
BRANCH   1   6
ATOM      2  N   UNL     1      -0.531  10.439  19.077  0.00  0.00    +0.000 N 
ATOM      3  C   UNL     1       0.004   9.772  17.863  0.00  0.00    +0.000 C 
ATOM      4  C   UNL     1       1.498   9.400  18.097  0.00  0.00    +0.000 C 
ATOM      5  N   UNL     1       1.680   8.620  19.338  0.00  0.00    +0.000 N 
ATOM      6  C   UNL     1       2.243   7.362  19.489  0.00  0.00    +0.000 C 
ATOM      7  O   UNL     1       2.252   6.818  20.602  0.00  0.00    +0.000 OA
ATOM      8  C   UNL     1       1.091   9.283  20.513  0.00  0.00    +0.000 C 
ATOM      9  C   UNL     1      -0.401   9.576  20.278  0.00  0.00    +0.000 C 
BRANCH   2  16
ATOM     10  C   UNL     1      -1.038  12.633  20.912  0.00  0.00    +0.000 C 
ATOM     11  C   UNL     1      -2.065  12.127  19.933  0.00  0.00    +0.000 A 
ATOM     12  C   UNL     1      -3.345  12.708  19.962  0.00  0.00    +0.000 A 
ATOM     13  C   UNL     1      -4.340  12.289  19.087  0.00  0.00    +0.000 A 
ATOM     14  C   UNL     1      -4.062  11.286  18.168  0.00  0.00    +0.000 A 
ATOM     15  C   UNL     1      -2.795  10.689  18.135  0.00  0.00    +0.000 A 
ATOM     16  C   UNL     1      -1.781  11.079  19.025  0.00  0.00    +0.000 A 
ENDBRANCH   2  16
ENDBRANCH   1   6
BRANCH   1  17
ATOM     17  N   UNL     1       3.378   5.326  18.755  0.00  0.00    +0.000 N 
ATOM     18  C   UNL     1       2.979   4.077  18.358  0.00  0.00    +0.000 C 
ATOM     19  O   UNL     1       2.106   3.902  17.507  0.00  0.00    +0.000 OA
ATOM     20  H   UNL     1       4.080   5.426  19.478  0.00  0.00    +0.000 HD
BRANCH  18  21
ATOM     21  C   UNL     1       3.692   2.870  19.034  0.00  0.00    +0.000 C 
ATOM     22  C   UNL     1       3.143   2.654  20.444  0.00  0.00    +0.000 C 
ATOM     23  C   UNL     1       3.554   1.603  18.186  0.00  0.00    +0.000 C 
BRANCH  21  24
ATOM     24  N   UNL     1       5.138   3.188  19.141  0.00  0.00    +0.000 NA
ATOM     25  H   UNL     1       5.542   3.089  18.205  0.00  0.00    +0.000 HD
ATOM     26  H   UNL     1       5.582   2.428  19.663  0.00  0.00    +0.000 HD
ENDBRANCH  21  24
ENDBRANCH  18  21
ENDBRANCH   1  17
BRANCH   1  27
ATOM     27  C   UNL     1       3.790   7.432  17.518  0.00  0.00    +0.000 C 
BRANCH  27  28
ATOM     28  C   UNL     1       5.135   6.796  17.290  0.00  0.00    +0.000 A 
ATOM     29  C   UNL     1       6.242   6.871  18.114  0.00  0.00    +0.000 A 
ATOM     30  N   UNL     1       7.228   6.071  17.596  0.00  0.00    +0.000 N 
ATOM     31  C   UNL     1       6.779   5.441  16.465  0.00  0.00    +0.000 A 
ATOM     32  C   UNL     1       7.409   4.485  15.652  0.00  0.00    +0.000 A 
ATOM     33  C   UNL     1       6.696   3.989  14.556  0.00  0.00    +0.000 A 
ATOM     34  C   UNL     1       5.416   4.452  14.267  0.00  0.00    +0.000 A 
ATOM     35  C   UNL     1       4.804   5.413  15.084  0.00  0.00    +0.000 A 
ATOM     36  C   UNL     1       5.486   5.905  16.219  0.00  0.00    +0.000 A 
ATOM     37  H   UNL     1       8.137   5.922  18.012  0.00  0.00    +0.000 HD
ENDBRANCH  27  28
ENDBRANCH   1  27
TORSDOF 7
ENDMDL
MODEL 6
REMARK VINA RESULT:      -7.9      0.531      1.308
REMARK  Name = 
REMARK  10 active torsions:
REMARK  status: ('A' for Active; 'I' for Inactive)
REMARK    1  A    between atoms: C_1  and  C_2
REMARK    2  A    between atoms: C_7  and  N_8
REMARK    3  A    between atoms: C_12  and  C_14
REMARK    4  A    between atoms: C_14  and  C_15
REMARK    5  A    between atoms: C_14  and  N_25
REMARK    6  A    between atoms: C_15  and  C_16
REMARK    7  A    between atoms: C_26  and  C_28
REMARK    8  A    between atoms: C_28  and  C_29
REMARK    9  A    between atoms: C_28  and  C_30
REMARK   10  A    between atoms: C_28  and  N_31
REMARK                            x       y       z     vdW  Elec       q    Type
REMARK                         _______ _______ _______ _____ _____    ______ ____
ROOT
ATOM      1  C   UNL     1       2.565   6.626  18.430  0.00  0.00    +0.000 C 
ENDROOT
BRANCH   1   6
ATOM      2  N   UNL     1      -0.595  10.554  19.466  0.00  0.00    +0.000 N 
ATOM      3  C   UNL     1      -0.084   9.937  18.216  0.00  0.00    +0.000 C 
ATOM      4  C   UNL     1       1.399   9.508  18.424  0.00  0.00    +0.000 C 
ATOM      5  N   UNL     1       1.560   8.658  19.620  0.00  0.00    +0.000 N 
ATOM      6  C   UNL     1       2.085   7.377  19.702  0.00  0.00    +0.000 C 
ATOM      7  O   UNL     1       2.081   6.774  20.784  0.00  0.00    +0.000 OA
ATOM      8  C   UNL     1       0.996   9.275  20.832  0.00  0.00    +0.000 C 
ATOM      9  C   UNL     1      -0.488   9.625  20.619  0.00  0.00    +0.000 C 
BRANCH   2  16
ATOM     10  C   UNL     1      -2.544   9.844  17.434  0.00  0.00    +0.000 C 
ATOM     11  C   UNL     1      -2.777  10.930  18.451  0.00  0.00    +0.000 A 
ATOM     12  C   UNL     1      -3.968  11.672  18.362  0.00  0.00    +0.000 A 
ATOM     13  C   UNL     1      -4.247  12.688  19.267  0.00  0.00    +0.000 A 
ATOM     14  C   UNL     1      -3.335  12.972  20.277  0.00  0.00    +0.000 A 
ATOM     15  C   UNL     1      -2.139  12.250  20.370  0.00  0.00    +0.000 A 
ATOM     16  C   UNL     1      -1.825  11.234  19.454  0.00  0.00    +0.000 A 
ENDBRANCH   2  16
ENDBRANCH   1   6
BRANCH   1  17
ATOM     17  N   UNL     1       2.741   5.210  18.781  0.00  0.00    +0.000 N 
ATOM     18  C   UNL     1       1.998   4.205  18.220  0.00  0.00    +0.000 C 
ATOM     19  O   UNL     1       1.170   4.414  17.332  0.00  0.00    +0.000 OA
ATOM     20  H   UNL     1       3.391   5.000  19.529  0.00  0.00    +0.000 HD
BRANCH  18  21
ATOM     21  C   UNL     1       2.252   2.767  18.757  0.00  0.00    +0.000 C 
ATOM     22  C   UNL     1       3.738   2.571  19.059  0.00  0.00    +0.000 C 
ATOM     23  C   UNL     1       1.394   2.480  19.991  0.00  0.00    +0.000 C 
BRANCH  21  24
ATOM     24  N   UNL     1       1.862   1.803  17.698  0.00  0.00    +0.000 NA
ATOM     25  H   UNL     1       2.102   0.866  18.036  0.00  0.00    +0.000 HD
ATOM     26  H   UNL     1       2.504   1.933  16.911  0.00  0.00    +0.000 HD
ENDBRANCH  21  24
ENDBRANCH  18  21
ENDBRANCH   1  17
BRANCH   1  27
ATOM     27  C   UNL     1       3.913   7.245  17.992  0.00  0.00    +0.000 C 
BRANCH  27  28
ATOM     28  C   UNL     1       5.056   6.278  17.836  0.00  0.00    +0.000 A 
ATOM     29  C   UNL     1       5.797   5.696  18.847  0.00  0.00    +0.000 A 
ATOM     30  N   UNL     1       6.674   4.803  18.288  0.00  0.00    +0.000 N 
ATOM     31  C   UNL     1       6.500   4.758  16.929  0.00  0.00    +0.000 A 
ATOM     32  C   UNL     1       7.116   3.945  15.965  0.00  0.00    +0.000 A 
ATOM     33  C   UNL     1       6.724   4.101  14.632  0.00  0.00    +0.000 A 
ATOM     34  C   UNL     1       5.774   5.053  14.274  0.00  0.00    +0.000 A 
ATOM     35  C   UNL     1       5.173   5.862  15.247  0.00  0.00    +0.000 A 
ATOM     36  C   UNL     1       5.524   5.701  16.606  0.00  0.00    +0.000 A 
ATOM     37  H   UNL     1       7.320   4.219  18.801  0.00  0.00    +0.000 HD
ENDBRANCH  27  28
ENDBRANCH   1  27
TORSDOF 7
ENDMDL
MODEL 7
REMARK VINA RESULT:      -7.9      0.990      1.349
REMARK  Name = 
REMARK  10 active torsions:
REMARK  status: ('A' for Active; 'I' for Inactive)
REMARK    1  A    between atoms: C_1  and  C_2
REMARK    2  A    between atoms: C_7  and  N_8
REMARK    3  A    between atoms: C_12  and  C_14
REMARK    4  A    between atoms: C_14  and  C_15
REMARK    5  A    between atoms: C_14  and  N_25
REMARK    6  A    between atoms: C_15  and  C_16
REMARK    7  A    between atoms: C_26  and  C_28
REMARK    8  A    between atoms: C_28  and  C_29
REMARK    9  A    between atoms: C_28  and  C_30
REMARK   10  A    between atoms: C_28  and  N_31
REMARK                            x       y       z     vdW  Elec       q    Type
REMARK                         _______ _______ _______ _____ _____    ______ ____
ROOT
ATOM      1  C   UNL     1       2.528   6.156  18.895  0.00  0.00    +0.000 C 
ENDROOT
BRANCH   1   6
ATOM      2  N   UNL     1      -0.278  10.400  19.673  0.00  0.00    +0.000 N 
ATOM      3  C   UNL     1       0.272   9.727  18.468  0.00  0.00    +0.000 C 
ATOM      4  C   UNL     1       1.678   9.145  18.802  0.00  0.00    +0.000 C 
ATOM      5  N   UNL     1       1.643   8.287  20.004  0.00  0.00    +0.000 N 
ATOM      6  C   UNL     1       2.020   6.958  20.124  0.00  0.00    +0.000 C 
ATOM      7  O   UNL     1       1.858   6.363  21.199  0.00  0.00    +0.000 OA
ATOM      8  C   UNL     1       1.044   8.965  21.165  0.00  0.00    +0.000 C 
ATOM      9  C   UNL     1      -0.371   9.469  20.826  0.00  0.00    +0.000 C 
BRANCH   2  16
ATOM     10  C   UNL     1      -0.584  12.637  21.501  0.00  0.00    +0.000 C 
ATOM     11  C   UNL     1      -1.612  12.280  20.459  0.00  0.00    +0.000 A 
ATOM     12  C   UNL     1      -2.800  13.031  20.422  0.00  0.00    +0.000 A 
ATOM     13  C   UNL     1      -3.791  12.756  19.487  0.00  0.00    +0.000 A 
ATOM     14  C   UNL     1      -3.601  11.727  18.574  0.00  0.00    +0.000 A 
ATOM     15  C   UNL     1      -2.428  10.962  18.607  0.00  0.00    +0.000 A 
ATOM     16  C   UNL     1      -1.423  11.206  19.557  0.00  0.00    +0.000 A 
ENDBRANCH   2  16
ENDBRANCH   1   6
BRANCH   1  17
ATOM     17  N   UNL     1       2.406   4.725  19.209  0.00  0.00    +0.000 N 
ATOM     18  C   UNL     1       1.698   3.849  18.429  0.00  0.00    +0.000 C 
ATOM     19  O   UNL     1       1.162   4.189  17.373  0.00  0.00    +0.000 OA
ATOM     20  H   UNL     1       2.807   4.412  20.085  0.00  0.00    +0.000 HD
BRANCH  18  21
ATOM     21  C   UNL     1       1.601   2.382  18.941  0.00  0.00    +0.000 C 
ATOM     22  C   UNL     1       2.823   1.583  18.488  0.00  0.00    +0.000 C 
ATOM     23  C   UNL     1       1.444   2.339  20.463  0.00  0.00    +0.000 C 
BRANCH  21  24
ATOM     24  N   UNL     1       0.392   1.763  18.343  0.00  0.00    +0.000 NA
ATOM     25  H   UNL     1       0.612   1.548  17.366  0.00  0.00    +0.000 HD
ATOM     26  H   UNL     1      -0.319   2.494  18.261  0.00  0.00    +0.000 HD
ENDBRANCH  21  24
ENDBRANCH  18  21
ENDBRANCH   1  17
BRANCH   1  27
ATOM     27  C   UNL     1       4.008   6.533  18.658  0.00  0.00    +0.000 C 
BRANCH  27  28
ATOM     28  C   UNL     1       4.473   6.489  17.226  0.00  0.00    +0.000 A 
ATOM     29  C   UNL     1       4.608   7.559  16.362  0.00  0.00    +0.000 A 
ATOM     30  N   UNL     1       5.153   7.107  15.188  0.00  0.00    +0.000 N 
ATOM     31  C   UNL     1       5.415   5.764  15.275  0.00  0.00    +0.000 A 
ATOM     32  C   UNL     1       6.033   4.901  14.356  0.00  0.00    +0.000 A 
ATOM     33  C   UNL     1       6.192   3.562  14.723  0.00  0.00    +0.000 A 
ATOM     34  C   UNL     1       5.725   3.096  15.949  0.00  0.00    +0.000 A 
ATOM     35  C   UNL     1       5.103   3.968  16.852  0.00  0.00    +0.000 A 
ATOM     36  C   UNL     1       4.962   5.335  16.524  0.00  0.00    +0.000 A 
ATOM     37  H   UNL     1       5.381   7.683  14.390  0.00  0.00    +0.000 HD
ENDBRANCH  27  28
ENDBRANCH   1  27
TORSDOF 7
ENDMDL
MODEL 8
REMARK VINA RESULT:      -7.9      2.897      9.975
REMARK  Name = 
REMARK  10 active torsions:
REMARK  status: ('A' for Active; 'I' for Inactive)
REMARK    1  A    between atoms: C_1  and  C_2
REMARK    2  A    between atoms: C_7  and  N_8
REMARK    3  A    between atoms: C_12  and  C_14
REMARK    4  A    between atoms: C_14  and  C_15
REMARK    5  A    between atoms: C_14  and  N_25
REMARK    6  A    between atoms: C_15  and  C_16
REMARK    7  A    between atoms: C_26  and  C_28
REMARK    8  A    between atoms: C_28  and  C_29
REMARK    9  A    between atoms: C_28  and  C_30
REMARK   10  A    between atoms: C_28  and  N_31
REMARK                            x       y       z     vdW  Elec       q    Type
REMARK                         _______ _______ _______ _____ _____    ______ ____
ROOT
ATOM      1  C   UNL     1       0.609  11.987  20.071  0.00  0.00    +0.000 C 
ENDROOT
BRANCH   1   6
ATOM      2  N   UNL     1       2.277   7.410  18.410  0.00  0.00    +0.000 N 
ATOM      3  C   UNL     1       2.013   8.717  17.755  0.00  0.00    +0.000 C 
ATOM      4  C   UNL     1       0.753   9.369  18.400  0.00  0.00    +0.000 C 
ATOM      5  N   UNL     1       0.871   9.449  19.870  0.00  0.00    +0.000 N 
ATOM      6  C   UNL     1       0.800  10.571  20.681  0.00  0.00    +0.000 C 
ATOM      7  O   UNL     1       0.992  10.469  21.900  0.00  0.00    +0.000 OA
ATOM      8  C   UNL     1       1.186   8.147  20.483  0.00  0.00    +0.000 C 
ATOM      9  C   UNL     1       2.472   7.560  19.873  0.00  0.00    +0.000 C 
BRANCH   2  16
ATOM     10  C   UNL     1       1.559   4.606  18.170  0.00  0.00    +0.000 C 
ATOM     11  C   UNL     1       2.899   5.150  17.750  0.00  0.00    +0.000 A 
ATOM     12  C   UNL     1       3.862   4.238  17.282  0.00  0.00    +0.000 A 
ATOM     13  C   UNL     1       5.119   4.671  16.878  0.00  0.00    +0.000 A 
ATOM     14  C   UNL     1       5.425   6.025  16.933  0.00  0.00    +0.000 A 
ATOM     15  C   UNL     1       4.480   6.943  17.409  0.00  0.00    +0.000 A 
ATOM     16  C   UNL     1       3.212   6.527  17.844  0.00  0.00    +0.000 A 
ENDBRANCH   2  16
ENDBRANCH   1   6
BRANCH   1  17
ATOM     17  N   UNL     1       1.617  12.875  20.667  0.00  0.00    +0.000 N 
ATOM     18  C   UNL     1       1.984  14.069  20.105  0.00  0.00    +0.000 C 
ATOM     19  O   UNL     1       1.446  14.513  19.089  0.00  0.00    +0.000 OA
ATOM     20  H   UNL     1       2.104  12.532  21.486  0.00  0.00    +0.000 HD
BRANCH  18  21
ATOM     21  C   UNL     1       3.123  14.855  20.818  0.00  0.00    +0.000 C 
ATOM     22  C   UNL     1       4.432  14.707  20.043  0.00  0.00    +0.000 C 
ATOM     23  C   UNL     1       2.747  16.328  20.996  0.00  0.00    +0.000 C 
BRANCH  21  24
ATOM     24  N   UNL     1       3.312  14.269  22.168  0.00  0.00    +0.000 NA
ATOM     25  H   UNL     1       2.525  14.576  22.747  0.00  0.00    +0.000 HD
ATOM     26  H   UNL     1       4.111  14.742  22.599  0.00  0.00    +0.000 HD
ENDBRANCH  21  24
ENDBRANCH  18  21
ENDBRANCH   1  17
BRANCH   1  27
ATOM     27  C   UNL     1      -0.815  12.472  20.428  0.00  0.00    +0.000 C 
BRANCH  27  28
ATOM     28  C   UNL     1      -1.858  12.284  19.358  0.00  0.00    +0.000 A 
ATOM     29  C   UNL     1      -1.640  11.968  18.031  0.00  0.00    +0.000 A 
ATOM     30  N   UNL     1      -2.854  11.788  17.419  0.00  0.00    +0.000 N 
ATOM     31  C   UNL     1      -3.869  11.944  18.328  0.00  0.00    +0.000 A 
ATOM     32  C   UNL     1      -5.254  11.781  18.173  0.00  0.00    +0.000 A 
ATOM     33  C   UNL     1      -6.064  11.987  19.294  0.00  0.00    +0.000 A 
ATOM     34  C   UNL     1      -5.514  12.368  20.514  0.00  0.00    +0.000 A 
ATOM     35  C   UNL     1      -4.129  12.534  20.650  0.00  0.00    +0.000 A 
ATOM     36  C   UNL     1      -3.282  12.297  19.544  0.00  0.00    +0.000 A 
ATOM     37  H   UNL     1      -2.988  11.526  16.452  0.00  0.00    +0.000 HD
ENDBRANCH  27  28
ENDBRANCH   1  27
TORSDOF 7
ENDMDL
MODEL 9
REMARK VINA RESULT:      -7.8      2.606      9.574
REMARK  Name = 
REMARK  10 active torsions:
REMARK  status: ('A' for Active; 'I' for Inactive)
REMARK    1  A    between atoms: C_1  and  C_2
REMARK    2  A    between atoms: C_7  and  N_8
REMARK    3  A    between atoms: C_12  and  C_14
REMARK    4  A    between atoms: C_14  and  C_15
REMARK    5  A    between atoms: C_14  and  N_25
REMARK    6  A    between atoms: C_15  and  C_16
REMARK    7  A    between atoms: C_26  and  C_28
REMARK    8  A    between atoms: C_28  and  C_29
REMARK    9  A    between atoms: C_28  and  C_30
REMARK   10  A    between atoms: C_28  and  N_31
REMARK                            x       y       z     vdW  Elec       q    Type
REMARK                         _______ _______ _______ _____ _____    ______ ____
ROOT
ATOM      1  C   UNL     1       0.239  10.217  19.082  0.00  0.00    +0.000 C 
ENDROOT
BRANCH   1   6
ATOM      2  N   UNL     1       2.640   5.671  19.321  0.00  0.00    +0.000 N 
ATOM      3  C   UNL     1       1.535   6.302  20.088  0.00  0.00    +0.000 C 
ATOM      4  C   UNL     1       1.831   7.822  20.260  0.00  0.00    +0.000 C 
ATOM      5  N   UNL     1       2.110   8.474  18.965  0.00  0.00    +0.000 N 
ATOM      6  C   UNL     1       1.457   9.552  18.386  0.00  0.00    +0.000 C 
ATOM      7  O   UNL     1       1.776   9.932  17.251  0.00  0.00    +0.000 OA
ATOM      8  C   UNL     1       3.172   7.794  18.207  0.00  0.00    +0.000 C 
ATOM      9  C   UNL     1       2.819   6.311  17.994  0.00  0.00    +0.000 C 
BRANCH   2  16
ATOM     10  C   UNL     1       5.270   4.441  19.259  0.00  0.00    +0.000 C 
ATOM     11  C   UNL     1       3.991   3.650  19.176  0.00  0.00    +0.000 A 
ATOM     12  C   UNL     1       4.087   2.259  18.994  0.00  0.00    +0.000 A 
ATOM     13  C   UNL     1       2.947   1.469  18.909  0.00  0.00    +0.000 A 
ATOM     14  C   UNL     1       1.696   2.063  19.009  0.00  0.00    +0.000 A 
ATOM     15  C   UNL     1       1.584   3.449  19.178  0.00  0.00    +0.000 A 
ATOM     16  C   UNL     1       2.721   4.271  19.244  0.00  0.00    +0.000 A 
ENDBRANCH   2  16
ENDBRANCH   1   6
BRANCH   1  17
ATOM     17  N   UNL     1      -0.698  10.650  18.036  0.00  0.00    +0.000 N 
ATOM     18  C   UNL     1      -1.975  10.165  17.931  0.00  0.00    +0.000 C 
ATOM     19  O   UNL     1      -2.450   9.375  18.749  0.00  0.00    +0.000 OA
ATOM     20  H   UNL     1      -0.336  11.276  17.326  0.00  0.00    +0.000 HD
BRANCH  18  21
ATOM     21  C   UNL     1      -2.815  10.666  16.721  0.00  0.00    +0.000 C 
ATOM     22  C   UNL     1      -2.905   9.576  15.653  0.00  0.00    +0.000 C 
ATOM     23  C   UNL     1      -4.206  11.121  17.166  0.00  0.00    +0.000 C 
BRANCH  21  24
ATOM     24  N   UNL     1      -2.121  11.838  16.131  0.00  0.00    +0.000 NA
ATOM     25  H   UNL     1      -2.408  11.900  15.150  0.00  0.00    +0.000 HD
ATOM     26  H   UNL     1      -1.127  11.605  16.064  0.00  0.00    +0.000 HD
ENDBRANCH  21  24
ENDBRANCH  18  21
ENDBRANCH   1  17
BRANCH   1  27
ATOM     27  C   UNL     1       0.753  11.436  19.883  0.00  0.00    +0.000 C 
BRANCH  27  28
ATOM     28  C   UNL     1      -0.273  12.489  20.203  0.00  0.00    +0.000 A 
ATOM     29  C   UNL     1      -0.593  13.598  19.442  0.00  0.00    +0.000 A 
ATOM     30  N   UNL     1      -1.646  14.246  20.033  0.00  0.00    +0.000 N 
ATOM     31  C   UNL     1      -2.052  13.565  21.152  0.00  0.00    +0.000 A 
ATOM     32  C   UNL     1      -3.126  13.811  22.021  0.00  0.00    +0.000 A 
ATOM     33  C   UNL     1      -3.321  12.925  23.085  0.00  0.00    +0.000 A 
ATOM     34  C   UNL     1      -2.458  11.853  23.289  0.00  0.00    +0.000 A 
ATOM     35  C   UNL     1      -1.386  11.624  22.417  0.00  0.00    +0.000 A 
ATOM     36  C   UNL     1      -1.186  12.482  21.312  0.00  0.00    +0.000 A 
ATOM     37  H   UNL     1      -2.098  15.076  19.675  0.00  0.00    +0.000 HD
ENDBRANCH  27  28
ENDBRANCH   1  27
TORSDOF 7
ENDMDL
