MODEL 1
REMARK VINA RESULT:      -7.6      0.000      0.000
REMARK  Name = 
REMARK  11 active torsions:
REMARK  status: ('A' for Active; 'I' for Inactive)
REMARK    1  A    between atoms: C_1  and  C_2
REMARK    2  A    between atoms: C_4  and  C_5
REMARK    3  A    between atoms: C_7  and  N_8
REMARK    4  A    between atoms: N_8  and  C_9
REMARK    5  A    between atoms: C_9  and  C_10
REMARK    6  A    between atoms: C_10  and  C_11
REMARK    7  A    between atoms: C_13  and  C_15
REMARK    8  A    between atoms: C_15  and  S_16
REMARK    9  A    between atoms: S_16  and  C_17
REMARK   10  A    between atoms: C_21  and  C_22
REMARK   11  A    between atoms: C_24  and  C_25
REMARK                            x       y       z     vdW  Elec       q    Type
REMARK                         _______ _______ _______ _____ _____    ______ ____
ROOT
ATOM      1  N   UNL     1       3.104   5.806  19.676  0.00  0.00    +0.000 N 
ATOM      2  C   UNL     1       4.251   5.831  18.851  0.00  0.00    +0.000 C 
ATOM      3  O   UNL     1       4.553   6.816  18.166  0.00  0.00    +0.000 OA
ENDROOT
BRANCH   1  10
ATOM      4  C   UNL     1       1.403  10.124  17.740  0.00  0.00    +0.000 C 
ATOM      5  C   UNL     1       1.500   9.146  18.878  0.00  0.00    +0.000 A 
ATOM      6  C   UNL     1       0.806   9.394  20.068  0.00  0.00    +0.000 A 
ATOM      7  C   UNL     1       0.845   8.470  21.117  0.00  0.00    +0.000 A 
ATOM      8  C   UNL     1       0.118   8.754  22.402  0.00  0.00    +0.000 C 
ATOM      9  C   UNL     1       1.576   7.275  20.957  0.00  0.00    +0.000 A 
ATOM     10  C   UNL     1       2.306   7.012  19.786  0.00  0.00    +0.000 A 
ATOM     11  C   UNL     1       2.265   7.966  18.754  0.00  0.00    +0.000 A 
ENDBRANCH   1  10
BRANCH   1  12
ATOM     12  C   UNL     1       2.784   4.668  20.573  0.00  0.00    +0.000 C 
BRANCH  12  13
ATOM     13  C   UNL     1       1.586   3.844  20.125  0.00  0.00    +0.000 C 
BRANCH  13  14
ATOM     14  C   UNL     1       1.731   3.237  18.739  0.00  0.00    +0.000 C 
ATOM     15  N   UNL     1       1.850   2.734  17.589  0.00  0.00    +0.000 NA
ENDBRANCH  13  14
ENDBRANCH  12  13
ENDBRANCH   1  12
BRANCH   2  16
ATOM     16  C   UNL     1       5.178   4.601  18.812  0.00  0.00    +0.000 C 
BRANCH  16  17
ATOM     17  S   UNL     1       6.810   5.057  18.156  0.00  0.00    +0.000 S 
BRANCH  17  18
ATOM     18  C   UNL     1       6.650   4.704  16.448  0.00  0.00    +0.000 A 
ATOM     19  N   UNL     1       5.741   3.838  15.920  0.00  0.00    +0.000 NA
ATOM     20  C   UNL     1       5.998   3.864  14.627  0.00  0.00    +0.000 A 
ATOM     21  N   UNL     1       5.388   3.185  13.606  0.00  0.00    +0.000 NA
ATOM     22  C   UNL     1       5.851   3.389  12.408  0.00  0.00    +0.000 A 
ATOM     23  C   UNL     1       5.218   2.665  11.246  0.00  0.00    +0.000 C 
ATOM     24  C   UNL     1       6.984   4.310  12.068  0.00  0.00    +0.000 A 
ATOM     25  C   UNL     1       7.558   4.960  13.092  0.00  0.00    +0.000 A 
ATOM     26  C   UNL     1       8.700   5.912  12.901  0.00  0.00    +0.000 C 
ATOM     27  N   UNL     1       7.067   4.742  14.390  0.00  0.00    +0.000 N 
ATOM     28  N   UNL     1       7.480   5.271  15.567  0.00  0.00    +0.000 NA
ENDBRANCH  17  18
ENDBRANCH  16  17
ENDBRANCH   2  16
TORSDOF 7
ENDMDL
MODEL 2
REMARK VINA RESULT:      -7.4      1.797      8.336
REMARK  Name = 
REMARK  11 active torsions:
REMARK  status: ('A' for Active; 'I' for Inactive)
REMARK    1  A    between atoms: C_1  and  C_2
REMARK    2  A    between atoms: C_4  and  C_5
REMARK    3  A    between atoms: C_7  and  N_8
REMARK    4  A    between atoms: N_8  and  C_9
REMARK    5  A    between atoms: C_9  and  C_10
REMARK    6  A    between atoms: C_10  and  C_11
REMARK    7  A    between atoms: C_13  and  C_15
REMARK    8  A    between atoms: C_15  and  S_16
REMARK    9  A    between atoms: S_16  and  C_17
REMARK   10  A    between atoms: C_21  and  C_22
REMARK   11  A    between atoms: C_24  and  C_25
REMARK                            x       y       z     vdW  Elec       q    Type
REMARK                         _______ _______ _______ _____ _____    ______ ____
ROOT
ATOM      1  N   UNL     1       6.425   4.474  16.673  0.00  0.00    +0.000 N 
ATOM      2  C   UNL     1       5.123   4.212  17.153  0.00  0.00    +0.000 C 
ATOM      3  O   UNL     1       4.159   4.048  16.394  0.00  0.00    +0.000 OA
ENDROOT
BRANCH   1  10
ATOM      4  C   UNL     1       8.914   6.099  12.617  0.00  0.00    +0.000 C 
ATOM      5  C   UNL     1       7.823   5.276  13.242  0.00  0.00    +0.000 A 
ATOM      6  C   UNL     1       7.006   4.476  12.435  0.00  0.00    +0.000 A 
ATOM      7  C   UNL     1       6.019   3.667  13.005  0.00  0.00    +0.000 A 
ATOM      8  C   UNL     1       5.129   2.830  12.129  0.00  0.00    +0.000 C 
ATOM      9  C   UNL     1       5.866   3.649  14.406  0.00  0.00    +0.000 A 
ATOM     10  C   UNL     1       6.651   4.462  15.241  0.00  0.00    +0.000 A 
ATOM     11  C   UNL     1       7.623   5.280  14.640  0.00  0.00    +0.000 A 
ENDBRANCH   1  10
BRANCH   1  12
ATOM     12  C   UNL     1       7.605   4.578  17.568  0.00  0.00    +0.000 C 
BRANCH  12  13
ATOM     13  C   UNL     1       7.554   5.761  18.524  0.00  0.00    +0.000 C 
BRANCH  13  14
ATOM     14  C   UNL     1       7.611   7.117  17.840  0.00  0.00    +0.000 C 
ATOM     15  N   UNL     1       7.658   8.243  17.275  0.00  0.00    +0.000 NA
ENDBRANCH  13  14
ENDBRANCH  12  13
ENDBRANCH   1  12
BRANCH   2  16
ATOM     16  C   UNL     1       4.885   4.103  18.671  0.00  0.00    +0.000 C 
BRANCH  16  17
ATOM     17  S   UNL     1       3.139   3.742  19.016  0.00  0.00    +0.000 S 
BRANCH  17  18
ATOM     18  C   UNL     1       2.515   5.300  19.515  0.00  0.00    +0.000 A 
ATOM     19  N   UNL     1       1.919   5.545  20.715  0.00  0.00    +0.000 NA
ATOM     20  C   UNL     1       1.588   6.820  20.646  0.00  0.00    +0.000 A 
ATOM     21  N   UNL     1       0.961   7.606  21.576  0.00  0.00    +0.000 NA
ATOM     22  C   UNL     1       0.743   8.844  21.244  0.00  0.00    +0.000 A 
ATOM     23  C   UNL     1       0.053   9.755  22.229  0.00  0.00    +0.000 C 
ATOM     24  C   UNL     1       1.134   9.467  19.938  0.00  0.00    +0.000 A 
ATOM     25  C   UNL     1       1.749   8.670  19.051  0.00  0.00    +0.000 A 
ATOM     26  C   UNL     1       2.196   9.156  17.706  0.00  0.00    +0.000 C 
ATOM     27  N   UNL     1       1.983   7.328  19.399  0.00  0.00    +0.000 N 
ATOM     28  N   UNL     1       2.572   6.343  18.681  0.00  0.00    +0.000 NA
ENDBRANCH  17  18
ENDBRANCH  16  17
ENDBRANCH   2  16
TORSDOF 7
ENDMDL
MODEL 3
REMARK VINA RESULT:      -7.4      3.296      9.323
REMARK  Name = 
REMARK  11 active torsions:
REMARK  status: ('A' for Active; 'I' for Inactive)
REMARK    1  A    between atoms: C_1  and  C_2
REMARK    2  A    between atoms: C_4  and  C_5
REMARK    3  A    between atoms: C_7  and  N_8
REMARK    4  A    between atoms: N_8  and  C_9
REMARK    5  A    between atoms: C_9  and  C_10
REMARK    6  A    between atoms: C_10  and  C_11
REMARK    7  A    between atoms: C_13  and  C_15
REMARK    8  A    between atoms: C_15  and  S_16
REMARK    9  A    between atoms: S_16  and  C_17
REMARK   10  A    between atoms: C_21  and  C_22
REMARK   11  A    between atoms: C_24  and  C_25
REMARK                            x       y       z     vdW  Elec       q    Type
REMARK                         _______ _______ _______ _____ _____    ______ ____
ROOT
ATOM      1  N   UNL     1       3.314   5.719  17.711  0.00  0.00    +0.000 N 
ATOM      2  C   UNL     1       3.184   7.106  17.952  0.00  0.00    +0.000 C 
ATOM      3  O   UNL     1       4.132   7.890  17.826  0.00  0.00    +0.000 OA
ENDROOT
BRANCH   1  10
ATOM      4  C   UNL     1       8.180   4.662  18.407  0.00  0.00    +0.000 C 
ATOM      5  C   UNL     1       6.970   4.738  17.519  0.00  0.00    +0.000 A 
ATOM      6  C   UNL     1       7.057   4.316  16.187  0.00  0.00    +0.000 A 
ATOM      7  C   UNL     1       5.929   4.334  15.362  0.00  0.00    +0.000 A 
ATOM      8  C   UNL     1       6.036   3.903  13.926  0.00  0.00    +0.000 C 
ATOM      9  C   UNL     1       4.694   4.763  15.890  0.00  0.00    +0.000 A 
ATOM     10  C   UNL     1       4.581   5.219  17.214  0.00  0.00    +0.000 A 
ATOM     11  C   UNL     1       5.736   5.209  18.017  0.00  0.00    +0.000 A 
ENDBRANCH   1  10
BRANCH   1  12
ATOM     12  C   UNL     1       2.163   4.784  17.767  0.00  0.00    +0.000 C 
BRANCH  12  13
ATOM     13  C   UNL     1       2.340   3.644  18.759  0.00  0.00    +0.000 C 
BRANCH  13  14
ATOM     14  C   UNL     1       2.323   4.078  20.216  0.00  0.00    +0.000 C 
ATOM     15  N   UNL     1       2.308   4.438  21.424  0.00  0.00    +0.000 NA
ENDBRANCH  13  14
ENDBRANCH  12  13
ENDBRANCH   1  12
BRANCH   2  16
ATOM     16  C   UNL     1       1.814   7.674  18.366  0.00  0.00    +0.000 C 
BRANCH  16  17
ATOM     17  S   UNL     1       1.687   9.425  17.900  0.00  0.00    +0.000 S 
BRANCH  17  18
ATOM     18  C   UNL     1       0.678  10.088  19.168  0.00  0.00    +0.000 A 
ATOM     19  N   UNL     1      -0.208  11.109  18.997  0.00  0.00    +0.000 NA
ATOM     20  C   UNL     1      -0.713  11.291  20.201  0.00  0.00    +0.000 A 
ATOM     21  N   UNL     1      -1.657  12.191  20.621  0.00  0.00    +0.000 NA
ATOM     22  C   UNL     1      -1.971  12.163  21.882  0.00  0.00    +0.000 A 
ATOM     23  C   UNL     1      -3.005  13.134  22.399  0.00  0.00    +0.000 C 
ATOM     24  C   UNL     1      -1.390  11.224  22.895  0.00  0.00    +0.000 A 
ATOM     25  C   UNL     1      -0.469  10.355  22.450  0.00  0.00    +0.000 A 
ATOM     26  C   UNL     1       0.197   9.358  23.349  0.00  0.00    +0.000 C 
ATOM     27  N   UNL     1      -0.119  10.381  21.089  0.00  0.00    +0.000 N 
ATOM     28  N   UNL     1       0.774   9.618  20.416  0.00  0.00    +0.000 NA
ENDBRANCH  17  18
ENDBRANCH  16  17
ENDBRANCH   2  16
TORSDOF 7
ENDMDL
MODEL 4
REMARK VINA RESULT:      -7.3      3.470      9.304
REMARK  Name = 
REMARK  11 active torsions:
REMARK  status: ('A' for Active; 'I' for Inactive)
REMARK    1  A    between atoms: C_1  and  C_2
REMARK    2  A    between atoms: C_4  and  C_5
REMARK    3  A    between atoms: C_7  and  N_8
REMARK    4  A    between atoms: N_8  and  C_9
REMARK    5  A    between atoms: C_9  and  C_10
REMARK    6  A    between atoms: C_10  and  C_11
REMARK    7  A    between atoms: C_13  and  C_15
REMARK    8  A    between atoms: C_15  and  S_16
REMARK    9  A    between atoms: S_16  and  C_17
REMARK   10  A    between atoms: C_21  and  C_22
REMARK   11  A    between atoms: C_24  and  C_25
REMARK                            x       y       z     vdW  Elec       q    Type
REMARK                         _______ _______ _______ _____ _____    ______ ____
ROOT
ATOM      1  N   UNL     1       3.461   6.018  18.206  0.00  0.00    +0.000 N 
ATOM      2  C   UNL     1       3.138   7.385  18.061  0.00  0.00    +0.000 C 
ATOM      3  O   UNL     1       3.876   8.180  17.467  0.00  0.00    +0.000 OA
ENDROOT
BRANCH   1  10
ATOM      4  C   UNL     1       5.796   4.135  14.170  0.00  0.00    +0.000 C 
ATOM      5  C   UNL     1       5.807   4.555  15.613  0.00  0.00    +0.000 A 
ATOM      6  C   UNL     1       6.993   4.470  16.353  0.00  0.00    +0.000 A 
ATOM      7  C   UNL     1       7.033   4.903  17.682  0.00  0.00    +0.000 A 
ATOM      8  C   UNL     1       8.303   4.784  18.477  0.00  0.00    +0.000 C 
ATOM      9  C   UNL     1       5.870   5.445  18.266  0.00  0.00    +0.000 A 
ATOM     10  C   UNL     1       4.659   5.518  17.558  0.00  0.00    +0.000 A 
ATOM     11  C   UNL     1       4.642   5.058  16.230  0.00  0.00    +0.000 A 
ENDBRANCH   1  10
BRANCH   1  12
ATOM     12  C   UNL     1       2.540   5.037  18.832  0.00  0.00    +0.000 C 
BRANCH  12  13
ATOM     13  C   UNL     1       1.648   4.305  17.841  0.00  0.00    +0.000 C 
BRANCH  13  14
ATOM     14  C   UNL     1       1.019   3.034  18.389  0.00  0.00    +0.000 C 
ATOM     15  N   UNL     1       0.497   1.981  18.843  0.00  0.00    +0.000 NA
ENDBRANCH  13  14
ENDBRANCH  12  13
ENDBRANCH   1  12
BRANCH   2  16
ATOM     16  C   UNL     1       1.811   7.912  18.639  0.00  0.00    +0.000 C 
BRANCH  16  17
ATOM     17  S   UNL     1       1.385   9.513  17.894  0.00  0.00    +0.000 S 
BRANCH  17  18
ATOM     18  C   UNL     1       0.511  10.316  19.182  0.00  0.00    +0.000 A 
ATOM     19  N   UNL     1      -0.155  11.496  19.045  0.00  0.00    +0.000 NA
ATOM     20  C   UNL     1      -0.629  11.730  20.253  0.00  0.00    +0.000 A 
ATOM     21  N   UNL     1      -1.383  12.782  20.702  0.00  0.00    +0.000 NA
ATOM     22  C   UNL     1      -1.712  12.772  21.960  0.00  0.00    +0.000 A 
ATOM     23  C   UNL     1      -2.541  13.907  22.508  0.00  0.00    +0.000 C 
ATOM     24  C   UNL     1      -1.339  11.701  22.939  0.00  0.00    +0.000 A 
ATOM     25  C   UNL     1      -0.601  10.685  22.466  0.00  0.00    +0.000 A 
ATOM     26  C   UNL     1      -0.155   9.544  23.330  0.00  0.00    +0.000 C 
ATOM     27  N   UNL     1      -0.236  10.689  21.109  0.00  0.00    +0.000 N 
ATOM     28  N   UNL     1       0.498   9.791  20.412  0.00  0.00    +0.000 NA
ENDBRANCH  17  18
ENDBRANCH  16  17
ENDBRANCH   2  16
TORSDOF 7
ENDMDL
MODEL 5
REMARK VINA RESULT:      -7.3      4.225      8.891
REMARK  Name = 
REMARK  11 active torsions:
REMARK  status: ('A' for Active; 'I' for Inactive)
REMARK    1  A    between atoms: C_1  and  C_2
REMARK    2  A    between atoms: C_4  and  C_5
REMARK    3  A    between atoms: C_7  and  N_8
REMARK    4  A    between atoms: N_8  and  C_9
REMARK    5  A    between atoms: C_9  and  C_10
REMARK    6  A    between atoms: C_10  and  C_11
REMARK    7  A    between atoms: C_13  and  C_15
REMARK    8  A    between atoms: C_15  and  S_16
REMARK    9  A    between atoms: S_16  and  C_17
REMARK   10  A    between atoms: C_21  and  C_22
REMARK   11  A    between atoms: C_24  and  C_25
REMARK                            x       y       z     vdW  Elec       q    Type
REMARK                         _______ _______ _______ _____ _____    ______ ____
ROOT
ATOM      1  N   UNL     1       3.236   6.309  18.556  0.00  0.00    +0.000 N 
ATOM      2  C   UNL     1       2.758   7.517  18.001  0.00  0.00    +0.000 C 
ATOM      3  O   UNL     1       3.417   8.179  17.190  0.00  0.00    +0.000 OA
ENDROOT
BRANCH   1  10
ATOM      4  C   UNL     1       5.964   3.860  15.115  0.00  0.00    +0.000 C 
ATOM      5  C   UNL     1       5.847   4.555  16.443  0.00  0.00    +0.000 A 
ATOM      6  C   UNL     1       6.982   4.710  17.247  0.00  0.00    +0.000 A 
ATOM      7  C   UNL     1       6.901   5.398  18.462  0.00  0.00    +0.000 A 
ATOM      8  C   UNL     1       8.118   5.539  19.333  0.00  0.00    +0.000 C 
ATOM      9  C   UNL     1       5.668   5.952  18.861  0.00  0.00    +0.000 A 
ATOM     10  C   UNL     1       4.506   5.788  18.089  0.00  0.00    +0.000 A 
ATOM     11  C   UNL     1       4.611   5.076  16.881  0.00  0.00    +0.000 A 
ENDBRANCH   1  10
BRANCH   1  12
ATOM     12  C   UNL     1       2.416   5.460  19.455  0.00  0.00    +0.000 C 
BRANCH  12  13
ATOM     13  C   UNL     1       2.852   4.002  19.497  0.00  0.00    +0.000 C 
BRANCH  13  14
ATOM     14  C   UNL     1       2.656   3.331  20.847  0.00  0.00    +0.000 C 
ATOM     15  N   UNL     1       2.494   2.774  21.966  0.00  0.00    +0.000 NA
ENDBRANCH  13  14
ENDBRANCH  12  13
ENDBRANCH   1  12
BRANCH   2  16
ATOM     16  C   UNL     1       1.359   8.028  18.395  0.00  0.00    +0.000 C 
BRANCH  16  17
ATOM     17  S   UNL     1       1.424   9.792  18.823  0.00  0.00    +0.000 S 
BRANCH  17  18
ATOM     18  C   UNL     1      -0.219  10.320  18.525  0.00  0.00    +0.000 A 
ATOM     19  N   UNL     1      -0.958  11.068  19.391  0.00  0.00    +0.000 NA
ATOM     20  C   UNL     1      -2.118  11.200  18.778  0.00  0.00    +0.000 A 
ATOM     21  N   UNL     1      -3.246  11.862  19.185  0.00  0.00    +0.000 NA
ATOM     22  C   UNL     1      -4.268  11.827  18.382  0.00  0.00    +0.000 A 
ATOM     23  C   UNL     1      -5.537  12.537  18.782  0.00  0.00    +0.000 C 
ATOM     24  C   UNL     1      -4.297  11.132  17.054  0.00  0.00    +0.000 A 
ATOM     25  C   UNL     1      -3.175  10.496  16.685  0.00  0.00    +0.000 A 
ATOM     26  C   UNL     1      -3.058   9.759  15.385  0.00  0.00    +0.000 C 
ATOM     27  N   UNL     1      -2.067  10.523  17.549  0.00  0.00    +0.000 N 
ATOM     28  N   UNL     1      -0.845   9.959  17.401  0.00  0.00    +0.000 NA
ENDBRANCH  17  18
ENDBRANCH  16  17
ENDBRANCH   2  16
TORSDOF 7
ENDMDL
MODEL 6
REMARK VINA RESULT:      -7.3      4.095      5.979
REMARK  Name = 
REMARK  11 active torsions:
REMARK  status: ('A' for Active; 'I' for Inactive)
REMARK    1  A    between atoms: C_1  and  C_2
REMARK    2  A    between atoms: C_4  and  C_5
REMARK    3  A    between atoms: C_7  and  N_8
REMARK    4  A    between atoms: N_8  and  C_9
REMARK    5  A    between atoms: C_9  and  C_10
REMARK    6  A    between atoms: C_10  and  C_11
REMARK    7  A    between atoms: C_13  and  C_15
REMARK    8  A    between atoms: C_15  and  S_16
REMARK    9  A    between atoms: S_16  and  C_17
REMARK   10  A    between atoms: C_21  and  C_22
REMARK   11  A    between atoms: C_24  and  C_25
REMARK                            x       y       z     vdW  Elec       q    Type
REMARK                         _______ _______ _______ _____ _____    ______ ____
ROOT
ATOM      1  N   UNL     1      -0.466  10.909  18.364  0.00  0.00    +0.000 N 
ATOM      2  C   UNL     1       0.820  10.384  18.626  0.00  0.00    +0.000 C 
ATOM      3  O   UNL     1       1.622  10.947  19.382  0.00  0.00    +0.000 OA
ENDROOT
BRANCH   1  10
ATOM      4  C   UNL     1      -0.399  15.900  18.967  0.00  0.00    +0.000 C 
ATOM      5  C   UNL     1      -0.830  14.532  19.416  0.00  0.00    +0.000 A 
ATOM      6  C   UNL     1      -1.656  14.396  20.538  0.00  0.00    +0.000 A 
ATOM      7  C   UNL     1      -2.106  13.134  20.939  0.00  0.00    +0.000 A 
ATOM      8  C   UNL     1      -2.972  12.994  22.159  0.00  0.00    +0.000 C 
ATOM      9  C   UNL     1      -1.736  11.999  20.189  0.00  0.00    +0.000 A 
ATOM     10  C   UNL     1      -0.885  12.100  19.076  0.00  0.00    +0.000 A 
ATOM     11  C   UNL     1      -0.432  13.379  18.706  0.00  0.00    +0.000 A 
ENDBRANCH   1  10
BRANCH   1  12
ATOM     12  C   UNL     1      -1.470  10.195  17.536  0.00  0.00    +0.000 C 
BRANCH  12  13
ATOM     13  C   UNL     1      -2.417  11.116  16.781  0.00  0.00    +0.000 C 
BRANCH  13  14
ATOM     14  C   UNL     1      -2.856  10.584  15.426  0.00  0.00    +0.000 C 
ATOM     15  N   UNL     1      -3.221  10.145  14.303  0.00  0.00    +0.000 NA
ENDBRANCH  13  14
ENDBRANCH  12  13
ENDBRANCH   1  12
BRANCH   2  16
ATOM     16  C   UNL     1       1.240   9.055  17.972  0.00  0.00    +0.000 C 
BRANCH  16  17
ATOM     17  S   UNL     1       2.016   7.962  19.197  0.00  0.00    +0.000 S 
BRANCH  17  18
ATOM     18  C   UNL     1       3.084   6.980  18.216  0.00  0.00    +0.000 A 
ATOM     19  N   UNL     1       3.972   7.475  17.309  0.00  0.00    +0.000 NA
ATOM     20  C   UNL     1       4.528   6.396  16.794  0.00  0.00    +0.000 A 
ATOM     21  N   UNL     1       5.498   6.292  15.832  0.00  0.00    +0.000 NA
ATOM     22  C   UNL     1       5.864   5.090  15.498  0.00  0.00    +0.000 A 
ATOM     23  C   UNL     1       6.927   4.917  14.442  0.00  0.00    +0.000 C 
ATOM     24  C   UNL     1       5.316   3.827  16.089  0.00  0.00    +0.000 A 
ATOM     25  C   UNL     1       4.369   3.964  17.029  0.00  0.00    +0.000 A 
ATOM     26  C   UNL     1       3.731   2.789  17.707  0.00  0.00    +0.000 C 
ATOM     27  N   UNL     1       3.963   5.259  17.394  0.00  0.00    +0.000 N 
ATOM     28  N   UNL     1       3.035   5.647  18.300  0.00  0.00    +0.000 NA
ENDBRANCH  17  18
ENDBRANCH  16  17
ENDBRANCH   2  16
TORSDOF 7
ENDMDL
MODEL 7
REMARK VINA RESULT:      -7.3      3.476      9.354
REMARK  Name = 
REMARK  11 active torsions:
REMARK  status: ('A' for Active; 'I' for Inactive)
REMARK    1  A    between atoms: C_1  and  C_2
REMARK    2  A    between atoms: C_4  and  C_5
REMARK    3  A    between atoms: C_7  and  N_8
REMARK    4  A    between atoms: N_8  and  C_9
REMARK    5  A    between atoms: C_9  and  C_10
REMARK    6  A    between atoms: C_10  and  C_11
REMARK    7  A    between atoms: C_13  and  C_15
REMARK    8  A    between atoms: C_15  and  S_16
REMARK    9  A    between atoms: S_16  and  C_17
REMARK   10  A    between atoms: C_21  and  C_22
REMARK   11  A    between atoms: C_24  and  C_25
REMARK                            x       y       z     vdW  Elec       q    Type
REMARK                         _______ _______ _______ _____ _____    ______ ____
ROOT
ATOM      1  N   UNL     1       3.285   6.297  18.041  0.00  0.00    +0.000 N 
ATOM      2  C   UNL     1       3.089   7.684  17.854  0.00  0.00    +0.000 C 
ATOM      3  O   UNL     1       3.995   8.434  17.472  0.00  0.00    +0.000 OA
ENDROOT
BRANCH   1  10
ATOM      4  C   UNL     1       8.104   5.352  19.124  0.00  0.00    +0.000 C 
ATOM      5  C   UNL     1       6.938   5.295  18.177  0.00  0.00    +0.000 A 
ATOM      6  C   UNL     1       7.085   4.677  16.930  0.00  0.00    +0.000 A 
ATOM      7  C   UNL     1       5.998   4.571  16.057  0.00  0.00    +0.000 A 
ATOM      8  C   UNL     1       6.170   3.929  14.709  0.00  0.00    +0.000 C 
ATOM      9  C   UNL     1       4.743   5.076  16.454  0.00  0.00    +0.000 A 
ATOM     10  C   UNL     1       4.571   5.727  17.688  0.00  0.00    +0.000 A 
ATOM     11  C   UNL     1       5.685   5.836  18.538  0.00  0.00    +0.000 A 
ENDBRANCH   1  10
BRANCH   1  12
ATOM     12  C   UNL     1       2.184   5.372  18.407  0.00  0.00    +0.000 C 
BRANCH  12  13
ATOM     13  C   UNL     1       2.653   4.065  19.028  0.00  0.00    +0.000 C 
BRANCH  13  14
ATOM     14  C   UNL     1       1.662   2.920  18.896  0.00  0.00    +0.000 C 
ATOM     15  N   UNL     1       0.840   1.971  18.787  0.00  0.00    +0.000 NA
ENDBRANCH  13  14
ENDBRANCH  12  13
ENDBRANCH   1  12
BRANCH   2  16
ATOM     16  C   UNL     1       1.696   8.290  18.111  0.00  0.00    +0.000 C 
BRANCH  16  17
ATOM     17  S   UNL     1       1.765  10.102  18.013  0.00  0.00    +0.000 S 
BRANCH  17  18
ATOM     18  C   UNL     1       0.681  10.598  19.295  0.00  0.00    +0.000 A 
ATOM     19  N   UNL     1      -0.245  11.591  19.184  0.00  0.00    +0.000 NA
ATOM     20  C   UNL     1      -0.801  11.637  20.378  0.00  0.00    +0.000 A 
ATOM     21  N   UNL     1      -1.801  12.451  20.841  0.00  0.00    +0.000 NA
ATOM     22  C   UNL     1      -2.160  12.291  22.080  0.00  0.00    +0.000 A 
ATOM     23  C   UNL     1      -3.255  13.162  22.643  0.00  0.00    +0.000 C 
ATOM     24  C   UNL     1      -1.572  11.286  23.024  0.00  0.00    +0.000 A 
ATOM     25  C   UNL     1      -0.596  10.504  22.538  0.00  0.00    +0.000 A 
ATOM     26  C   UNL     1       0.083   9.455  23.367  0.00  0.00    +0.000 C 
ATOM     27  N   UNL     1      -0.198  10.672  21.201  0.00  0.00    +0.000 N 
ATOM     28  N   UNL     1       0.754  10.017  20.497  0.00  0.00    +0.000 NA
ENDBRANCH  17  18
ENDBRANCH  16  17
ENDBRANCH   2  16
TORSDOF 7
ENDMDL
MODEL 8
REMARK VINA RESULT:      -7.3      3.214      9.196
REMARK  Name = 
REMARK  11 active torsions:
REMARK  status: ('A' for Active; 'I' for Inactive)
REMARK    1  A    between atoms: C_1  and  C_2
REMARK    2  A    between atoms: C_4  and  C_5
REMARK    3  A    between atoms: C_7  and  N_8
REMARK    4  A    between atoms: N_8  and  C_9
REMARK    5  A    between atoms: C_9  and  C_10
REMARK    6  A    between atoms: C_10  and  C_11
REMARK    7  A    between atoms: C_13  and  C_15
REMARK    8  A    between atoms: C_15  and  S_16
REMARK    9  A    between atoms: S_16  and  C_17
REMARK   10  A    between atoms: C_21  and  C_22
REMARK   11  A    between atoms: C_24  and  C_25
REMARK                            x       y       z     vdW  Elec       q    Type
REMARK                         _______ _______ _______ _____ _____    ______ ____
ROOT
ATOM      1  N   UNL     1       3.352   5.500  18.051  0.00  0.00    +0.000 N 
ATOM      2  C   UNL     1       3.091   6.883  18.174  0.00  0.00    +0.000 C 
ATOM      3  O   UNL     1       3.912   7.744  17.836  0.00  0.00    +0.000 OA
ENDROOT
BRANCH   1  10
ATOM      4  C   UNL     1       8.291   4.592  18.293  0.00  0.00    +0.000 C 
ATOM      5  C   UNL     1       7.012   4.678  17.509  0.00  0.00    +0.000 A 
ATOM      6  C   UNL     1       7.006   4.346  16.149  0.00  0.00    +0.000 A 
ATOM      7  C   UNL     1       5.815   4.372  15.418  0.00  0.00    +0.000 A 
ATOM      8  C   UNL     1       5.821   4.039  13.952  0.00  0.00    +0.000 C 
ATOM      9  C   UNL     1       4.613   4.718  16.068  0.00  0.00    +0.000 A 
ATOM     10  C   UNL     1       4.591   5.083  17.424  0.00  0.00    +0.000 A 
ATOM     11  C   UNL     1       5.806   5.067  18.132  0.00  0.00    +0.000 A 
ENDBRANCH   1  10
BRANCH   1  12
ATOM     12  C   UNL     1       2.339   4.461  18.364  0.00  0.00    +0.000 C 
BRANCH  12  13
ATOM     13  C   UNL     1       2.877   3.300  19.187  0.00  0.00    +0.000 C 
BRANCH  13  14
ATOM     14  C   UNL     1       2.517   3.363  20.663  0.00  0.00    +0.000 C 
ATOM     15  N   UNL     1       2.219   3.414  21.886  0.00  0.00    +0.000 NA
ENDBRANCH  13  14
ENDBRANCH  12  13
ENDBRANCH   1  12
BRANCH   2  16
ATOM     16  C   UNL     1       1.730   7.348  18.727  0.00  0.00    +0.000 C 
BRANCH  16  17
ATOM     17  S   UNL     1       1.758   7.369  20.543  0.00  0.00    +0.000 S 
BRANCH  17  18
ATOM     18  C   UNL     1       0.923   8.861  20.923  0.00  0.00    +0.000 A 
ATOM     19  N   UNL     1       0.711   9.329  22.184  0.00  0.00    +0.000 NA
ATOM     20  C   UNL     1       0.032  10.443  21.995  0.00  0.00    +0.000 A 
ATOM     21  N   UNL     1      -0.449  11.334  22.917  0.00  0.00    +0.000 NA
ATOM     22  C   UNL     1      -1.102  12.359  22.455  0.00  0.00    +0.000 A 
ATOM     23  C   UNL     1      -1.656  13.372  23.427  0.00  0.00    +0.000 C 
ATOM     24  C   UNL     1      -1.355  12.637  21.004  0.00  0.00    +0.000 A 
ATOM     25  C   UNL     1      -0.868  11.745  20.128  0.00  0.00    +0.000 A 
ATOM     26  C   UNL     1      -1.045  11.893  18.647  0.00  0.00    +0.000 C 
ATOM     27  N   UNL     1      -0.165  10.631  20.618  0.00  0.00    +0.000 N 
ATOM     28  N   UNL     1       0.406   9.608  19.941  0.00  0.00    +0.000 NA
ENDBRANCH  17  18
ENDBRANCH  16  17
ENDBRANCH   2  16
TORSDOF 7
ENDMDL
MODEL 9
REMARK VINA RESULT:      -7.3      0.997      1.976
REMARK  Name = 
REMARK  11 active torsions:
REMARK  status: ('A' for Active; 'I' for Inactive)
REMARK    1  A    between atoms: C_1  and  C_2
REMARK    2  A    between atoms: C_4  and  C_5
REMARK    3  A    between atoms: C_7  and  N_8
REMARK    4  A    between atoms: N_8  and  C_9
REMARK    5  A    between atoms: C_9  and  C_10
REMARK    6  A    between atoms: C_10  and  C_11
REMARK    7  A    between atoms: C_13  and  C_15
REMARK    8  A    between atoms: C_15  and  S_16
REMARK    9  A    between atoms: S_16  and  C_17
REMARK   10  A    between atoms: C_21  and  C_22
REMARK   11  A    between atoms: C_24  and  C_25
REMARK                            x       y       z     vdW  Elec       q    Type
REMARK                         _______ _______ _______ _____ _____    ______ ____
ROOT
ATOM      1  N   UNL     1       2.817   5.868  19.753  0.00  0.00    +0.000 N 
ATOM      2  C   UNL     1       3.926   5.762  18.885  0.00  0.00    +0.000 C 
ATOM      3  O   UNL     1       4.290   6.696  18.159  0.00  0.00    +0.000 OA
ENDROOT
BRANCH   1  10
ATOM      4  C   UNL     1       1.434  10.268  17.749  0.00  0.00    +0.000 C 
ATOM      5  C   UNL     1       1.493   9.319  18.913  0.00  0.00    +0.000 A 
ATOM      6  C   UNL     1       0.882   9.666  20.124  0.00  0.00    +0.000 A 
ATOM      7  C   UNL     1       0.885   8.775  21.201  0.00  0.00    +0.000 A 
ATOM      8  C   UNL     1       0.249   9.164  22.506  0.00  0.00    +0.000 C 
ATOM      9  C   UNL     1       1.494   7.512  21.050  0.00  0.00    +0.000 A 
ATOM     10  C   UNL     1       2.140   7.147  19.858  0.00  0.00    +0.000 A 
ATOM     11  C   UNL     1       2.139   8.069  18.797  0.00  0.00    +0.000 A 
ENDBRANCH   1  10
BRANCH   1  12
ATOM     12  C   UNL     1       2.430   4.790  20.696  0.00  0.00    +0.000 C 
BRANCH  12  13
ATOM     13  C   UNL     1       1.025   4.249  20.475  0.00  0.00    +0.000 C 
BRANCH  13  14
ATOM     14  C   UNL     1       0.957   3.058  19.532  0.00  0.00    +0.000 C 
ATOM     15  N   UNL     1       0.900   2.072  18.750  0.00  0.00    +0.000 NA
ENDBRANCH  13  14
ENDBRANCH  12  13
ENDBRANCH   1  12
BRANCH   2  16
ATOM     16  C   UNL     1       4.732   4.450  18.847  0.00  0.00    +0.000 C 
BRANCH  16  17
ATOM     17  S   UNL     1       4.145   3.384  17.499  0.00  0.00    +0.000 S 
BRANCH  17  18
ATOM     18  C   UNL     1       5.183   3.843  16.165  0.00  0.00    +0.000 A 
ATOM     19  N   UNL     1       6.237   4.700  16.266  0.00  0.00    +0.000 NA
ATOM     20  C   UNL     1       6.701   4.773  15.034  0.00  0.00    +0.000 A 
ATOM     21  N   UNL     1       7.760   5.490  14.545  0.00  0.00    +0.000 NA
ATOM     22  C   UNL     1       7.998   5.388  13.271  0.00  0.00    +0.000 A 
ATOM     23  C   UNL     1       9.152   6.158  12.679  0.00  0.00    +0.000 C 
ATOM     24  C   UNL     1       7.212   4.545  12.313  0.00  0.00    +0.000 A 
ATOM     25  C   UNL     1       6.183   3.854  12.825  0.00  0.00    +0.000 A 
ATOM     26  C   UNL     1       5.310   2.969  11.986  0.00  0.00    +0.000 C 
ATOM     27  N   UNL     1       5.915   3.962  14.201  0.00  0.00    +0.000 N 
ATOM     28  N   UNL     1       4.942   3.375  14.937  0.00  0.00    +0.000 NA
ENDBRANCH  17  18
ENDBRANCH  16  17
ENDBRANCH   2  16
TORSDOF 7
ENDMDL
