MODEL 1
REMARK VINA RESULT:      -7.5      0.000      0.000
REMARK  Name = 
REMARK  6 active torsions:
REMARK  status: ('A' for Active; 'I' for Inactive)
REMARK    1  A    between atoms: C_1  and  C_2
REMARK    2  A    between atoms: C_4  and  C_5
REMARK    3  A    between atoms: C_6  and  C_7
REMARK    4  A    between atoms: N_9  and  C_10
REMARK    5  A    between atoms: C_14  and  C_15
REMARK    6  A    between atoms: C_26  and  C_27
REMARK                            x       y       z     vdW  Elec       q    Type
REMARK                         _______ _______ _______ _____ _____    ______ ____
ROOT
ATOM      1  C   UNL     1       2.139   7.750  19.453  0.00  0.00    +0.000 A 
ATOM      2  C   UNL     1       1.788   7.215  20.703  0.00  0.00    +0.000 A 
ATOM      3  C   UNL     1       0.874   7.843  21.542  0.00  0.00    +0.000 A 
ATOM      4  C   UNL     1       0.267   9.013  21.128  0.00  0.00    +0.000 A 
ATOM      5  C   UNL     1       0.495   9.516  19.834  0.00  0.00    +0.000 A 
ATOM      6  C   UNL     1       1.524   8.957  19.023  0.00  0.00    +0.000 A 
ATOM      7  C   UNL     1       1.952   9.593  17.725  0.00  0.00    +0.000 C 
ENDROOT
BRANCH   5   8
ATOM      8  C   UNL     1      -0.458  10.563  19.337  0.00  0.00    +0.000 C 
ATOM      9  O   UNL     1      -1.480  10.196  18.758  0.00  0.00    +0.000 OA
ATOM     10  N   UNL     1      -0.172  11.917  19.586  0.00  0.00    +0.000 N 
ATOM     11  C   UNL     1      -1.139  12.951  19.166  0.00  0.00    +0.000 C 
ATOM     12  C   UNL     1      -1.410  13.973  20.292  0.00  0.00    +0.000 C 
ATOM     13  C   UNL     1      -0.103  14.423  20.870  0.00  0.00    +0.000 A 
ATOM     14  S   UNL     1       0.090  15.834  21.794  0.00  0.00    +0.000 S 
ATOM     15  C   UNL     1       1.763  15.516  22.019  0.00  0.00    +0.000 A 
ATOM     16  C   UNL     1       2.158  14.355  21.390  0.00  0.00    +0.000 A 
ATOM     17  C   UNL     1       1.066  13.706  20.743  0.00  0.00    +0.000 A 
ATOM     18  C   UNL     1       1.148  12.409  20.015  0.00  0.00    +0.000 C 
ENDBRANCH   5   8
BRANCH   1  21
ATOM     19  C   UNL     1       2.864   5.889  17.967  0.00  0.00    +0.000 C 
ATOM     20  O   UNL     1       1.765   5.335  17.945  0.00  0.00    +0.000 OA
ATOM     21  N   UNL     1       3.091   7.089  18.627  0.00  0.00    +0.000 N 
ATOM     22  H   UNL     1       3.948   7.574  18.385  0.00  0.00    +0.000 HD
BRANCH  19  28
ATOM     23  C   UNL     1       7.112   4.767  14.987  0.00  0.00    +0.000 C 
ATOM     24  C   UNL     1       5.914   4.749  15.870  0.00  0.00    +0.000 A 
ATOM     25  N   UNL     1       5.415   3.651  16.385  0.00  0.00    +0.000 NA
ATOM     26  C   UNL     1       4.307   3.953  17.161  0.00  0.00    +0.000 A 
ATOM     27  C   UNL     1       3.602   2.827  17.837  0.00  0.00    +0.000 C 
ATOM     28  C   UNL     1       3.974   5.303  17.217  0.00  0.00    +0.000 A 
ATOM     29  S   UNL     1       5.087   6.202  16.279  0.00  0.00    +0.000 S 
ENDBRANCH  19  28
ENDBRANCH   1  21
TORSDOF 3
ENDMDL
MODEL 2
REMARK VINA RESULT:      -7.3      1.326      1.667
REMARK  Name = 
REMARK  6 active torsions:
REMARK  status: ('A' for Active; 'I' for Inactive)
REMARK    1  A    between atoms: C_1  and  C_2
REMARK    2  A    between atoms: C_4  and  C_5
REMARK    3  A    between atoms: C_6  and  C_7
REMARK    4  A    between atoms: N_9  and  C_10
REMARK    5  A    between atoms: C_14  and  C_15
REMARK    6  A    between atoms: C_26  and  C_27
REMARK                            x       y       z     vdW  Elec       q    Type
REMARK                         _______ _______ _______ _____ _____    ______ ____
ROOT
ATOM      1  C   UNL     1       2.415   7.558  18.998  0.00  0.00    +0.000 A 
ATOM      2  C   UNL     1       2.177   6.886  20.207  0.00  0.00    +0.000 A 
ATOM      3  C   UNL     1       1.358   7.420  21.196  0.00  0.00    +0.000 A 
ATOM      4  C   UNL     1       0.734   8.632  20.978  0.00  0.00    +0.000 A 
ATOM      5  C   UNL     1       0.845   9.278  19.733  0.00  0.00    +0.000 A 
ATOM      6  C   UNL     1       1.783   8.809  18.769  0.00  0.00    +0.000 A 
ATOM      7  C   UNL     1       2.094   9.587  17.515  0.00  0.00    +0.000 C 
ENDROOT
BRANCH   5   8
ATOM      8  C   UNL     1      -0.134  10.381  19.453  0.00  0.00    +0.000 C 
ATOM      9  O   UNL     1      -1.254  10.077  19.043  0.00  0.00    +0.000 OA
ATOM     10  N   UNL     1       0.247  11.710  19.707  0.00  0.00    +0.000 N 
ATOM     11  C   UNL     1      -0.733  12.796  19.505  0.00  0.00    +0.000 C 
ATOM     12  C   UNL     1      -0.764  13.770  20.703  0.00  0.00    +0.000 C 
ATOM     13  C   UNL     1       0.639  14.145  21.066  0.00  0.00    +0.000 A 
ATOM     14  S   UNL     1       1.046  15.502  22.003  0.00  0.00    +0.000 S 
ATOM     15  C   UNL     1       2.719  15.116  21.924  0.00  0.00    +0.000 A 
ATOM     16  C   UNL     1       2.951  13.975  21.186  0.00  0.00    +0.000 A 
ATOM     17  C   UNL     1       1.739  13.396  20.709  0.00  0.00    +0.000 A 
ATOM     18  C   UNL     1       1.640  12.135  19.924  0.00  0.00    +0.000 C 
ENDBRANCH   5   8
BRANCH   1  21
ATOM     19  C   UNL     1       4.346   6.155  18.289  0.00  0.00    +0.000 C 
ATOM     20  O   UNL     1       4.592   5.733  19.419  0.00  0.00    +0.000 OA
ATOM     21  N   UNL     1       3.272   6.990  18.013  0.00  0.00    +0.000 N 
ATOM     22  H   UNL     1       3.019   7.081  17.035  0.00  0.00    +0.000 HD
BRANCH  19  28
ATOM     23  C   UNL     1       6.531   3.930  13.993  0.00  0.00    +0.000 C 
ATOM     24  C   UNL     1       6.205   4.729  15.205  0.00  0.00    +0.000 A 
ATOM     25  N   UNL     1       7.011   5.631  15.713  0.00  0.00    +0.000 NA
ATOM     26  C   UNL     1       6.434   6.206  16.833  0.00  0.00    +0.000 A 
ATOM     27  C   UNL     1       7.203   7.263  17.548  0.00  0.00    +0.000 C 
ATOM     28  C   UNL     1       5.174   5.716  17.167  0.00  0.00    +0.000 A 
ATOM     29  S   UNL     1       4.714   4.514  16.039  0.00  0.00    +0.000 S 
ENDBRANCH  19  28
ENDBRANCH   1  21
TORSDOF 3
ENDMDL
MODEL 3
REMARK VINA RESULT:      -7.2      1.569      1.736
REMARK  Name = 
REMARK  6 active torsions:
REMARK  status: ('A' for Active; 'I' for Inactive)
REMARK    1  A    between atoms: C_1  and  C_2
REMARK    2  A    between atoms: C_4  and  C_5
REMARK    3  A    between atoms: C_6  and  C_7
REMARK    4  A    between atoms: N_9  and  C_10
REMARK    5  A    between atoms: C_14  and  C_15
REMARK    6  A    between atoms: C_26  and  C_27
REMARK                            x       y       z     vdW  Elec       q    Type
REMARK                         _______ _______ _______ _____ _____    ______ ____
ROOT
ATOM      1  C   UNL     1       2.012   7.906  19.632  0.00  0.00    +0.000 A 
ATOM      2  C   UNL     1       1.619   7.410  20.885  0.00  0.00    +0.000 A 
ATOM      3  C   UNL     1       0.589   7.992  21.616  0.00  0.00    +0.000 A 
ATOM      4  C   UNL     1      -0.091   9.072  21.088  0.00  0.00    +0.000 A 
ATOM      5  C   UNL     1       0.186   9.521  19.784  0.00  0.00    +0.000 A 
ATOM      6  C   UNL     1       1.322   9.021  19.085  0.00  0.00    +0.000 A 
ATOM      7  C   UNL     1       1.786   9.621  17.782  0.00  0.00    +0.000 C 
ENDROOT
BRANCH   5   8
ATOM      8  C   UNL     1      -0.819  10.441  19.157  0.00  0.00    +0.000 C 
ATOM      9  O   UNL     1      -1.292  10.132  18.064  0.00  0.00    +0.000 OA
ATOM     10  N   UNL     1      -1.215  11.596  19.856  0.00  0.00    +0.000 N 
ATOM     11  C   UNL     1      -2.258  12.469  19.280  0.00  0.00    +0.000 C 
ATOM     12  C   UNL     1      -3.331  12.844  20.326  0.00  0.00    +0.000 C 
ATOM     13  C   UNL     1      -2.654  13.289  21.585  0.00  0.00    +0.000 A 
ATOM     14  S   UNL     1      -3.417  14.194  22.803  0.00  0.00    +0.000 S 
ATOM     15  C   UNL     1      -1.993  14.189  23.765  0.00  0.00    +0.000 A 
ATOM     16  C   UNL     1      -0.959  13.513  23.154  0.00  0.00    +0.000 A 
ATOM     17  C   UNL     1      -1.351  12.968  21.898  0.00  0.00    +0.000 A 
ATOM     18  C   UNL     1      -0.484  12.144  21.011  0.00  0.00    +0.000 C 
ENDBRANCH   5   8
BRANCH   1  21
ATOM     19  C   UNL     1       2.975   6.113  18.197  0.00  0.00    +0.000 C 
ATOM     20  O   UNL     1       1.904   5.534  18.015  0.00  0.00    +0.000 OA
ATOM     21  N   UNL     1       3.081   7.295  18.918  0.00  0.00    +0.000 N 
ATOM     22  H   UNL     1       3.948   7.808  18.805  0.00  0.00    +0.000 HD
BRANCH  19  28
ATOM     23  C   UNL     1       7.284   4.999  15.304  0.00  0.00    +0.000 C 
ATOM     24  C   UNL     1       6.170   5.040  16.289  0.00  0.00    +0.000 A 
ATOM     25  N   UNL     1       6.033   4.168  17.259  0.00  0.00    +0.000 NA
ATOM     26  C   UNL     1       4.907   4.465  18.009  0.00  0.00    +0.000 A 
ATOM     27  C   UNL     1       4.587   3.582  19.166  0.00  0.00    +0.000 C 
ATOM     28  C   UNL     1       4.188   5.579  17.581  0.00  0.00    +0.000 A 
ATOM     29  S   UNL     1       4.959   6.261  16.215  0.00  0.00    +0.000 S 
ENDBRANCH  19  28
ENDBRANCH   1  21
TORSDOF 3
ENDMDL
MODEL 4
REMARK VINA RESULT:      -7.1      2.134      2.540
REMARK  Name = 
REMARK  6 active torsions:
REMARK  status: ('A' for Active; 'I' for Inactive)
REMARK    1  A    between atoms: C_1  and  C_2
REMARK    2  A    between atoms: C_4  and  C_5
REMARK    3  A    between atoms: C_6  and  C_7
REMARK    4  A    between atoms: N_9  and  C_10
REMARK    5  A    between atoms: C_14  and  C_15
REMARK    6  A    between atoms: C_26  and  C_27
REMARK                            x       y       z     vdW  Elec       q    Type
REMARK                         _______ _______ _______ _____ _____    ______ ____
ROOT
ATOM      1  C   UNL     1       1.728   8.060  20.376  0.00  0.00    +0.000 A 
ATOM      2  C   UNL     1       1.551   8.172  21.764  0.00  0.00    +0.000 A 
ATOM      3  C   UNL     1       0.982   9.302  22.344  0.00  0.00    +0.000 A 
ATOM      4  C   UNL     1       0.550  10.334  21.535  0.00  0.00    +0.000 A 
ATOM      5  C   UNL     1       0.593  10.209  20.135  0.00  0.00    +0.000 A 
ATOM      6  C   UNL     1       1.292   9.121  19.538  0.00  0.00    +0.000 A 
ATOM      7  C   UNL     1       1.552   9.057  18.054  0.00  0.00    +0.000 C 
ENDROOT
BRANCH   5   8
ATOM      8  C   UNL     1      -0.213  11.196  19.342  0.00  0.00    +0.000 C 
ATOM      9  O   UNL     1      -1.391  10.931  19.103  0.00  0.00    +0.000 OA
ATOM     10  N   UNL     1       0.391  12.401  18.939  0.00  0.00    +0.000 N 
ATOM     11  C   UNL     1      -0.414  13.410  18.222  0.00  0.00    +0.000 C 
ATOM     12  C   UNL     1      -0.214  14.824  18.809  0.00  0.00    +0.000 C 
ATOM     13  C   UNL     1       1.252  15.081  18.978  0.00  0.00    +0.000 A 
ATOM     14  S   UNL     1       1.928  16.628  19.162  0.00  0.00    +0.000 S 
ATOM     15  C   UNL     1       3.510  15.971  19.311  0.00  0.00    +0.000 A 
ATOM     16  C   UNL     1       3.509  14.596  19.212  0.00  0.00    +0.000 A 
ATOM     17  C   UNL     1       2.193  14.077  19.045  0.00  0.00    +0.000 A 
ATOM     18  C   UNL     1       1.845  12.632  18.954  0.00  0.00    +0.000 C 
ENDBRANCH   5   8
BRANCH   1  21
ATOM     19  C   UNL     1       1.866   5.602  20.007  0.00  0.00    +0.000 C 
ATOM     20  O   UNL     1       0.815   5.345  20.594  0.00  0.00    +0.000 OA
ATOM     21  N   UNL     1       2.328   6.897  19.818  0.00  0.00    +0.000 N 
ATOM     22  H   UNL     1       3.061   7.010  19.126  0.00  0.00    +0.000 HD
BRANCH  19  28
ATOM     23  C   UNL     1       4.202   1.039  18.627  0.00  0.00    +0.000 C 
ATOM     24  C   UNL     1       3.725   2.442  18.758  0.00  0.00    +0.000 A 
ATOM     25  N   UNL     1       4.112   3.412  17.963  0.00  0.00    +0.000 NA
ATOM     26  C   UNL     1       3.498   4.599  18.330  0.00  0.00    +0.000 A 
ATOM     27  C   UNL     1       3.812   5.820  17.536  0.00  0.00    +0.000 C 
ATOM     28  C   UNL     1       2.642   4.508  19.425  0.00  0.00    +0.000 A 
ATOM     29  S   UNL     1       2.611   2.894  19.990  0.00  0.00    +0.000 S 
ENDBRANCH  19  28
ENDBRANCH   1  21
TORSDOF 3
ENDMDL
MODEL 5
REMARK VINA RESULT:      -7.0      1.358      1.453
REMARK  Name = 
REMARK  6 active torsions:
REMARK  status: ('A' for Active; 'I' for Inactive)
REMARK    1  A    between atoms: C_1  and  C_2
REMARK    2  A    between atoms: C_4  and  C_5
REMARK    3  A    between atoms: C_6  and  C_7
REMARK    4  A    between atoms: N_9  and  C_10
REMARK    5  A    between atoms: C_14  and  C_15
REMARK    6  A    between atoms: C_26  and  C_27
REMARK                            x       y       z     vdW  Elec       q    Type
REMARK                         _______ _______ _______ _____ _____    ______ ____
ROOT
ATOM      1  C   UNL     1       1.669   8.296  19.787  0.00  0.00    +0.000 A 
ATOM      2  C   UNL     1       1.482   8.004  21.147  0.00  0.00    +0.000 A 
ATOM      3  C   UNL     1       0.891   8.913  22.019  0.00  0.00    +0.000 A 
ATOM      4  C   UNL     1       0.447  10.128  21.535  0.00  0.00    +0.000 A 
ATOM      5  C   UNL     1       0.502  10.409  20.157  0.00  0.00    +0.000 A 
ATOM      6  C   UNL     1       1.222   9.546  19.282  0.00  0.00    +0.000 A 
ATOM      7  C   UNL     1       1.493   9.913  17.845  0.00  0.00    +0.000 C 
ENDROOT
BRANCH   5   8
ATOM      8  C   UNL     1      -0.314  11.571  19.671  0.00  0.00    +0.000 C 
ATOM      9  O   UNL     1      -1.494  11.375  19.383  0.00  0.00    +0.000 OA
ATOM     10  N   UNL     1       0.283  12.842  19.602  0.00  0.00    +0.000 N 
ATOM     11  C   UNL     1      -0.531  14.004  19.195  0.00  0.00    +0.000 C 
ATOM     12  C   UNL     1      -0.325  15.207  20.141  0.00  0.00    +0.000 C 
ATOM     13  C   UNL     1       1.143  15.415  20.357  0.00  0.00    +0.000 A 
ATOM     14  S   UNL     1       1.820  16.857  20.945  0.00  0.00    +0.000 S 
ATOM     15  C   UNL     1       3.403  16.191  20.893  0.00  0.00    +0.000 A 
ATOM     16  C   UNL     1       3.403  14.894  20.426  0.00  0.00    +0.000 A 
ATOM     17  C   UNL     1       2.085  14.434  20.139  0.00  0.00    +0.000 A 
ATOM     18  C   UNL     1       1.737  13.066  19.664  0.00  0.00    +0.000 C 
ENDBRANCH   5   8
BRANCH   1  21
ATOM     19  C   UNL     1       2.636   6.055  19.292  0.00  0.00    +0.000 C 
ATOM     20  O   UNL     1       2.328   5.563  20.378  0.00  0.00    +0.000 OA
ATOM     21  N   UNL     1       2.292   7.349  18.926  0.00  0.00    +0.000 N 
ATOM     22  H   UNL     1       2.379   7.569  17.940  0.00  0.00    +0.000 HD
BRANCH  19  28
ATOM     23  C   UNL     1       5.930   3.823  15.778  0.00  0.00    +0.000 C 
ATOM     24  C   UNL     1       4.821   4.175  16.706  0.00  0.00    +0.000 A 
ATOM     25  N   UNL     1       3.770   3.413  16.894  0.00  0.00    +0.000 NA
ATOM     26  C   UNL     1       2.915   4.003  17.812  0.00  0.00    +0.000 A 
ATOM     27  C   UNL     1       1.660   3.279  18.160  0.00  0.00    +0.000 C 
ATOM     28  C   UNL     1       3.339   5.232  18.310  0.00  0.00    +0.000 A 
ATOM     29  S   UNL     1       4.846   5.639  17.610  0.00  0.00    +0.000 S 
ENDBRANCH  19  28
ENDBRANCH   1  21
TORSDOF 3
ENDMDL
MODEL 6
REMARK VINA RESULT:      -6.9      2.145      9.457
REMARK  Name = 
REMARK  6 active torsions:
REMARK  status: ('A' for Active; 'I' for Inactive)
REMARK    1  A    between atoms: C_1  and  C_2
REMARK    2  A    between atoms: C_4  and  C_5
REMARK    3  A    between atoms: C_6  and  C_7
REMARK    4  A    between atoms: N_9  and  C_10
REMARK    5  A    between atoms: C_14  and  C_15
REMARK    6  A    between atoms: C_26  and  C_27
REMARK                            x       y       z     vdW  Elec       q    Type
REMARK                         _______ _______ _______ _____ _____    ______ ____
ROOT
ATOM      1  C   UNL     1       0.943   9.769  19.542  0.00  0.00    +0.000 A 
ATOM      2  C   UNL     1       1.274  10.152  18.233  0.00  0.00    +0.000 A 
ATOM      3  C   UNL     1       2.104   9.379  17.428  0.00  0.00    +0.000 A 
ATOM      4  C   UNL     1       2.597   8.184  17.914  0.00  0.00    +0.000 A 
ATOM      5  C   UNL     1       2.190   7.703  19.172  0.00  0.00    +0.000 A 
ATOM      6  C   UNL     1       1.452   8.545  20.052  0.00  0.00    +0.000 A 
ATOM      7  C   UNL     1       1.180   8.160  21.484  0.00  0.00    +0.000 C 
ENDROOT
BRANCH   5   8
ATOM      8  C   UNL     1       2.474   6.259  19.468  0.00  0.00    +0.000 C 
ATOM      9  O   UNL     1       1.722   5.663  20.238  0.00  0.00    +0.000 OA
ATOM     10  N   UNL     1       3.557   5.632  18.828  0.00  0.00    +0.000 N 
ATOM     11  C   UNL     1       3.801   4.194  19.057  0.00  0.00    +0.000 C 
ATOM     12  C   UNL     1       4.045   3.437  17.733  0.00  0.00    +0.000 C 
ATOM     13  C   UNL     1       5.038   4.198  16.910  0.00  0.00    +0.000 A 
ATOM     14  S   UNL     1       5.914   3.526  15.620  0.00  0.00    +0.000 S 
ATOM     15  C   UNL     1       6.690   5.026  15.301  0.00  0.00    +0.000 A 
ATOM     16  C   UNL     1       6.285   6.013  16.175  0.00  0.00    +0.000 A 
ATOM     17  C   UNL     1       5.306   5.537  17.094  0.00  0.00    +0.000 A 
ATOM     18  C   UNL     1       4.631   6.363  18.134  0.00  0.00    +0.000 C 
ENDBRANCH   5   8
BRANCH   1  21
ATOM     19  C   UNL     1       0.537  11.697  21.065  0.00  0.00    +0.000 C 
ATOM     20  O   UNL     1       1.683  12.138  20.988  0.00  0.00    +0.000 OA
ATOM     21  N   UNL     1       0.103  10.593  20.344  0.00  0.00    +0.000 N 
ATOM     22  H   UNL     1      -0.901  10.462  20.293  0.00  0.00    +0.000 HD
BRANCH  19  28
ATOM     23  C   UNL     1      -2.751  15.070  23.513  0.00  0.00    +0.000 C 
ATOM     24  C   UNL     1      -1.962  13.901  23.039  0.00  0.00    +0.000 A 
ATOM     25  N   UNL     1      -2.087  12.696  23.542  0.00  0.00    +0.000 NA
ATOM     26  C   UNL     1      -1.226  11.822  22.898  0.00  0.00    +0.000 A 
ATOM     27  C   UNL     1      -1.228  10.396  23.331  0.00  0.00    +0.000 C 
ATOM     28  C   UNL     1      -0.440  12.393  21.900  0.00  0.00    +0.000 A 
ATOM     29  S   UNL     1      -0.806  14.060  21.773  0.00  0.00    +0.000 S 
ENDBRANCH  19  28
ENDBRANCH   1  21
TORSDOF 3
ENDMDL
MODEL 7
REMARK VINA RESULT:      -6.9      2.287      9.587
REMARK  Name = 
REMARK  6 active torsions:
REMARK  status: ('A' for Active; 'I' for Inactive)
REMARK    1  A    between atoms: C_1  and  C_2
REMARK    2  A    between atoms: C_4  and  C_5
REMARK    3  A    between atoms: C_6  and  C_7
REMARK    4  A    between atoms: N_9  and  C_10
REMARK    5  A    between atoms: C_14  and  C_15
REMARK    6  A    between atoms: C_26  and  C_27
REMARK                            x       y       z     vdW  Elec       q    Type
REMARK                         _______ _______ _______ _____ _____    ______ ____
ROOT
ATOM      1  C   UNL     1       0.723   9.750  19.602  0.00  0.00    +0.000 A 
ATOM      2  C   UNL     1       1.105  10.139  18.309  0.00  0.00    +0.000 A 
ATOM      3  C   UNL     1       2.018   9.403  17.560  0.00  0.00    +0.000 A 
ATOM      4  C   UNL     1       2.547   8.241  18.086  0.00  0.00    +0.000 A 
ATOM      5  C   UNL     1       2.097   7.750  19.325  0.00  0.00    +0.000 A 
ATOM      6  C   UNL     1       1.268   8.559  20.154  0.00  0.00    +0.000 A 
ATOM      7  C   UNL     1       0.937   8.173  21.573  0.00  0.00    +0.000 C 
ENDROOT
BRANCH   5   8
ATOM      8  C   UNL     1       2.440   6.326  19.654  0.00  0.00    +0.000 C 
ATOM      9  O   UNL     1       1.740   5.732  20.474  0.00  0.00    +0.000 OA
ATOM     10  N   UNL     1       3.515   5.713  18.987  0.00  0.00    +0.000 N 
ATOM     11  C   UNL     1       3.814   4.291  19.250  0.00  0.00    +0.000 C 
ATOM     12  C   UNL     1       4.027   3.500  17.940  0.00  0.00    +0.000 C 
ATOM     13  C   UNL     1       4.960   4.265  17.052  0.00  0.00    +0.000 A 
ATOM     14  S   UNL     1       5.801   3.579  15.747  0.00  0.00    +0.000 S 
ATOM     15  C   UNL     1       6.514   5.091  15.349  0.00  0.00    +0.000 A 
ATOM     16  C   UNL     1       6.115   6.092  16.208  0.00  0.00    +0.000 A 
ATOM     17  C   UNL     1       5.191   5.617  17.183  0.00  0.00    +0.000 A 
ATOM     18  C   UNL     1       4.534   6.454  18.225  0.00  0.00    +0.000 C 
ENDBRANCH   5   8
BRANCH   1  21
ATOM     19  C   UNL     1       0.148  11.590  21.178  0.00  0.00    +0.000 C 
ATOM     20  O   UNL     1       1.298  12.023  21.262  0.00  0.00    +0.000 OA
ATOM     21  N   UNL     1      -0.202  10.535  20.347  0.00  0.00    +0.000 N 
ATOM     22  H   UNL     1      -1.194  10.418  20.171  0.00  0.00    +0.000 HD
BRANCH  19  28
ATOM     23  C   UNL     1      -3.760  13.063  24.455  0.00  0.00    +0.000 C 
ATOM     24  C   UNL     1      -2.700  12.962  23.416  0.00  0.00    +0.000 A 
ATOM     25  N   UNL     1      -2.385  13.947  22.609  0.00  0.00    +0.000 NA
ATOM     26  C   UNL     1      -1.365  13.554  21.757  0.00  0.00    +0.000 A 
ATOM     27  C   UNL     1      -0.866  14.547  20.764  0.00  0.00    +0.000 C 
ATOM     28  C   UNL     1      -0.918  12.247  21.932  0.00  0.00    +0.000 A 
ATOM     29  S   UNL     1      -1.799  11.511  23.201  0.00  0.00    +0.000 S 
ENDBRANCH  19  28
ENDBRANCH   1  21
TORSDOF 3
ENDMDL
MODEL 8
REMARK VINA RESULT:      -6.8      2.379      2.735
REMARK  Name = 
REMARK  6 active torsions:
REMARK  status: ('A' for Active; 'I' for Inactive)
REMARK    1  A    between atoms: C_1  and  C_2
REMARK    2  A    between atoms: C_4  and  C_5
REMARK    3  A    between atoms: C_6  and  C_7
REMARK    4  A    between atoms: N_9  and  C_10
REMARK    5  A    between atoms: C_14  and  C_15
REMARK    6  A    between atoms: C_26  and  C_27
REMARK                            x       y       z     vdW  Elec       q    Type
REMARK                         _______ _______ _______ _____ _____    ______ ____
ROOT
ATOM      1  C   UNL     1       1.749   8.100  20.067  0.00  0.00    +0.000 A 
ATOM      2  C   UNL     1       1.260   7.976  21.377  0.00  0.00    +0.000 A 
ATOM      3  C   UNL     1       0.166   8.708  21.825  0.00  0.00    +0.000 A 
ATOM      4  C   UNL     1      -0.482   9.562  20.955  0.00  0.00    +0.000 A 
ATOM      5  C   UNL     1      -0.104   9.623  19.601  0.00  0.00    +0.000 A 
ATOM      6  C   UNL     1       1.093   8.982  19.167  0.00  0.00    +0.000 A 
ATOM      7  C   UNL     1       1.655   9.194  17.784  0.00  0.00    +0.000 C 
ENDROOT
BRANCH   5   8
ATOM      8  C   UNL     1      -1.066  10.283  18.658  0.00  0.00    +0.000 C 
ATOM      9  O   UNL     1      -1.149   9.849  17.510  0.00  0.00    +0.000 OA
ATOM     10  N   UNL     1      -1.863  11.341  19.129  0.00  0.00    +0.000 N 
ATOM     11  C   UNL     1      -2.865  11.949  18.230  0.00  0.00    +0.000 C 
ATOM     12  C   UNL     1      -4.235  12.107  18.924  0.00  0.00    +0.000 C 
ATOM     13  C   UNL     1      -4.033  12.723  20.274  0.00  0.00    +0.000 A 
ATOM     14  S   UNL     1      -5.267  13.470  21.170  0.00  0.00    +0.000 S 
ATOM     15  C   UNL     1      -4.190  13.803  22.467  0.00  0.00    +0.000 A 
ATOM     16  C   UNL     1      -2.913  13.354  22.206  0.00  0.00    +0.000 A 
ATOM     17  C   UNL     1      -2.828  12.703  20.941  0.00  0.00    +0.000 A 
ATOM     18  C   UNL     1      -1.603  12.066  20.384  0.00  0.00    +0.000 C 
ENDBRANCH   5   8
BRANCH   1  21
ATOM     19  C   UNL     1       2.830   6.046  19.166  0.00  0.00    +0.000 C 
ATOM     20  O   UNL     1       1.772   5.453  18.952  0.00  0.00    +0.000 OA
ATOM     21  N   UNL     1       2.881   7.348  19.645  0.00  0.00    +0.000 N 
ATOM     22  H   UNL     1       3.775   7.819  19.557  0.00  0.00    +0.000 HD
BRANCH  19  28
ATOM     23  C   UNL     1       7.643   4.557  17.495  0.00  0.00    +0.000 C 
ATOM     24  C   UNL     1       6.292   4.671  18.108  0.00  0.00    +0.000 A 
ATOM     25  N   UNL     1       5.748   3.724  18.834  0.00  0.00    +0.000 NA
ATOM     26  C   UNL     1       4.492   4.121  19.265  0.00  0.00    +0.000 A 
ATOM     27  C   UNL     1       3.715   3.172  20.112  0.00  0.00    +0.000 C 
ATOM     28  C   UNL     1       4.094   5.387  18.845  0.00  0.00    +0.000 A 
ATOM     29  S   UNL     1       5.335   6.086  17.896  0.00  0.00    +0.000 S 
ENDBRANCH  19  28
ENDBRANCH   1  21
TORSDOF 3
ENDMDL
MODEL 9
REMARK VINA RESULT:      -6.7      5.608      7.969
REMARK  Name = 
REMARK  6 active torsions:
REMARK  status: ('A' for Active; 'I' for Inactive)
REMARK    1  A    between atoms: C_1  and  C_2
REMARK    2  A    between atoms: C_4  and  C_5
REMARK    3  A    between atoms: C_6  and  C_7
REMARK    4  A    between atoms: N_9  and  C_10
REMARK    5  A    between atoms: C_14  and  C_15
REMARK    6  A    between atoms: C_26  and  C_27
REMARK                            x       y       z     vdW  Elec       q    Type
REMARK                         _______ _______ _______ _____ _____    ______ ____
ROOT
ATOM      1  C   UNL     1       1.025  12.732  20.043  0.00  0.00    +0.000 A 
ATOM      2  C   UNL     1       1.313  11.552  20.746  0.00  0.00    +0.000 A 
ATOM      3  C   UNL     1       0.423  10.484  20.788  0.00  0.00    +0.000 A 
ATOM      4  C   UNL     1      -0.769  10.568  20.096  0.00  0.00    +0.000 A 
ATOM      5  C   UNL     1      -1.042  11.679  19.278  0.00  0.00    +0.000 A 
ATOM      6  C   UNL     1      -0.203  12.829  19.334  0.00  0.00    +0.000 A 
ATOM      7  C   UNL     1      -0.569  14.119  18.646  0.00  0.00    +0.000 C 
ENDROOT
BRANCH   5   8
ATOM      8  C   UNL     1      -2.166  11.536  18.294  0.00  0.00    +0.000 C 
ATOM      9  O   UNL     1      -1.908  11.100  17.172  0.00  0.00    +0.000 OA
ATOM     10  N   UNL     1      -3.472  11.862  18.699  0.00  0.00    +0.000 N 
ATOM     11  C   UNL     1      -4.595  11.655  17.763  0.00  0.00    +0.000 C 
ATOM     12  C   UNL     1      -5.780  10.933  18.440  0.00  0.00    +0.000 C 
ATOM     13  C   UNL     1      -6.070  11.593  19.754  0.00  0.00    +0.000 A 
ATOM     14  S   UNL     1      -7.532  11.420  20.599  0.00  0.00    +0.000 S 
ATOM     15  C   UNL     1      -6.965  12.417  21.880  0.00  0.00    +0.000 A 
ATOM     16  C   UNL     1      -5.684  12.873  21.650  0.00  0.00    +0.000 A 
ATOM     17  C   UNL     1      -5.155  12.373  20.426  0.00  0.00    +0.000 A 
ATOM     18  C   UNL     1      -3.783  12.639  19.911  0.00  0.00    +0.000 C 
ENDBRANCH   5   8
BRANCH   1  21
ATOM     19  C   UNL     1       2.980  13.962  19.115  0.00  0.00    +0.000 C 
ATOM     20  O   UNL     1       3.119  13.223  18.140  0.00  0.00    +0.000 OA
ATOM     21  N   UNL     1       1.952  13.812  20.035  0.00  0.00    +0.000 N 
ATOM     22  H   UNL     1       1.787  14.601  20.650  0.00  0.00    +0.000 HD
BRANCH  19  28
ATOM     23  C   UNL     1       6.725  17.455  20.513  0.00  0.00    +0.000 C 
ATOM     24  C   UNL     1       5.596  16.710  19.894  0.00  0.00    +0.000 A 
ATOM     25  N   UNL     1       4.886  17.177  18.895  0.00  0.00    +0.000 NA
ATOM     26  C   UNL     1       3.911  16.260  18.536  0.00  0.00    +0.000 A 
ATOM     27  C   UNL     1       3.003  16.613  17.409  0.00  0.00    +0.000 C 
ATOM     28  C   UNL     1       3.894  15.090  19.290  0.00  0.00    +0.000 A 
ATOM     29  S   UNL     1       5.136  15.152  20.464  0.00  0.00    +0.000 S 
ENDBRANCH  19  28
ENDBRANCH   1  21
TORSDOF 3
ENDMDL
