MODEL 1
REMARK VINA RESULT:      -8.4      0.000      0.000
REMARK  Name = 
REMARK  12 active torsions:
REMARK  status: ('A' for Active; 'I' for Inactive)
REMARK    1  A    between atoms: C_1  and  O_2
REMARK    2  A    between atoms: O_2  and  C_3
REMARK    3  A    between atoms: C_5  and  C_6
REMARK    4  A    between atoms: C_7  and  C_8
REMARK    5  A    between atoms: C_8  and  C_10
REMARK    6  A    between atoms: C_10  and  C_11
REMARK    7  A    between atoms: C_11  and  C_13
REMARK    8  A    between atoms: C_14  and  C_15
REMARK    9  A    between atoms: C_18  and  O_19
REMARK   10  A    between atoms: C_20  and  O_21
REMARK   11  A    between atoms: O_21  and  C_22
REMARK   12  A    between atoms: C_26  and  O_27
REMARK                            x       y       z     vdW  Elec       q    Type
REMARK                         _______ _______ _______ _____ _____    ______ ____
ROOT
ATOM      1  C   UNL     1       3.170   2.487  20.460  0.00  0.00    +0.000 C 
ENDROOT
BRANCH   1   2
ATOM      2  C   UNL     1       2.209   3.359  21.223  0.00  0.00    +0.000 C 
ATOM      3  O   UNL     1       1.793   3.021  22.332  0.00  0.00    +0.000 OA
BRANCH   2   5
ATOM      4  C   UNL     1       2.611   5.636  20.351  0.00  0.00    +0.000 C 
ATOM      5  C   UNL     1       1.755   4.626  20.577  0.00  0.00    +0.000 C 
BRANCH   4   8
ATOM      6  C   UNL     1       1.246   9.147  19.882  0.00  0.00    +0.000 A 
ATOM      7  C   UNL     1       1.602   7.909  20.451  0.00  0.00    +0.000 A 
ATOM      8  C   UNL     1       2.238   6.906  19.703  0.00  0.00    +0.000 A 
ATOM      9  C   UNL     1       2.547   7.174  18.367  0.00  0.00    +0.000 A 
ATOM     10  C   UNL     1       2.198   8.393  17.784  0.00  0.00    +0.000 A 
ATOM     11  C   UNL     1       1.546   9.376  18.534  0.00  0.00    +0.000 A 
BRANCH   6  13
ATOM     12  C   UNL     1       0.320   9.499  22.062  0.00  0.00    +0.000 C 
ATOM     13  O   UNL     1       0.628   9.993  20.764  0.00  0.00    +0.000 OA
ENDBRANCH   6  13
BRANCH  11  14
ATOM     14  O   UNL     1       1.222  10.549  17.913  0.00  0.00    +0.000 OA
ATOM     15  H   UNL     1       0.261  10.585  17.779  0.00  0.00    +0.000 HD
ENDBRANCH  11  14
ENDBRANCH   4   8
ENDBRANCH   2   5
ENDBRANCH   1   2
BRANCH   1  16
ATOM     16  C   UNL     1       2.738   2.205  19.046  0.00  0.00    +0.000 C 
ATOM     17  O   UNL     1       1.636   1.715  18.803  0.00  0.00    +0.000 OA
BRANCH  16  18
ATOM     18  C   UNL     1       3.686   2.567  17.950  0.00  0.00    +0.000 C 
ATOM     19  C   UNL     1       4.320   3.750  17.970  0.00  0.00    +0.000 C 
BRANCH  19  20
ATOM     20  C   UNL     1       5.261   4.210  16.935  0.00  0.00    +0.000 A 
ATOM     21  C   UNL     1       5.255   3.581  15.686  0.00  0.00    +0.000 A 
ATOM     22  C   UNL     1       6.127   3.996  14.675  0.00  0.00    +0.000 A 
ATOM     23  C   UNL     1       7.010   5.057  14.899  0.00  0.00    +0.000 A 
ATOM     24  C   UNL     1       7.015   5.719  16.129  0.00  0.00    +0.000 A 
ATOM     25  C   UNL     1       6.132   5.289  17.133  0.00  0.00    +0.000 A 
BRANCH  23  26
ATOM     26  O   UNL     1       7.855   5.419  13.886  0.00  0.00    +0.000 OA
ATOM     27  H   UNL     1       7.334   5.739  13.132  0.00  0.00    +0.000 HD
ENDBRANCH  23  26
BRANCH  24  28
ATOM     28  O   UNL     1       7.788   6.777  16.526  0.00  0.00    +0.000 OA
ATOM     29  C   UNL     1       7.290   7.631  17.545  0.00  0.00    +0.000 C 
ENDBRANCH  24  28
ENDBRANCH  19  20
ENDBRANCH  16  18
ENDBRANCH   1  16
TORSDOF 10
ENDMDL
MODEL 2
REMARK VINA RESULT:      -7.5      3.916      7.512
REMARK  Name = 
REMARK  12 active torsions:
REMARK  status: ('A' for Active; 'I' for Inactive)
REMARK    1  A    between atoms: C_1  and  O_2
REMARK    2  A    between atoms: O_2  and  C_3
REMARK    3  A    between atoms: C_5  and  C_6
REMARK    4  A    between atoms: C_7  and  C_8
REMARK    5  A    between atoms: C_8  and  C_10
REMARK    6  A    between atoms: C_10  and  C_11
REMARK    7  A    between atoms: C_11  and  C_13
REMARK    8  A    between atoms: C_14  and  C_15
REMARK    9  A    between atoms: C_18  and  O_19
REMARK   10  A    between atoms: C_20  and  O_21
REMARK   11  A    between atoms: O_21  and  C_22
REMARK   12  A    between atoms: C_26  and  O_27
REMARK                            x       y       z     vdW  Elec       q    Type
REMARK                         _______ _______ _______ _____ _____    ______ ____
ROOT
ATOM      1  C   UNL     1       7.751   6.389  18.669  0.00  0.00    +0.000 C 
ENDROOT
BRANCH   1   2
ATOM      2  C   UNL     1       7.673   7.417  17.571  0.00  0.00    +0.000 C 
ATOM      3  O   UNL     1       7.344   7.098  16.428  0.00  0.00    +0.000 OA
BRANCH   2   5
ATOM      4  C   UNL     1       9.028   9.097  18.775  0.00  0.00    +0.000 C 
ATOM      5  C   UNL     1       8.038   8.825  17.909  0.00  0.00    +0.000 C 
BRANCH   4   8
ATOM      6  C   UNL     1       9.592  12.238  20.830  0.00  0.00    +0.000 A 
ATOM      7  C   UNL     1       9.185  10.951  20.428  0.00  0.00    +0.000 A 
ATOM      8  C   UNL     1       9.454  10.460  19.140  0.00  0.00    +0.000 A 
ATOM      9  C   UNL     1      10.175  11.271  18.261  0.00  0.00    +0.000 A 
ATOM     10  C   UNL     1      10.582  12.551  18.641  0.00  0.00    +0.000 A 
ATOM     11  C   UNL     1      10.289  13.037  19.917  0.00  0.00    +0.000 A 
BRANCH   6  13
ATOM     12  C   UNL     1       8.252  11.730  22.749  0.00  0.00    +0.000 C 
ATOM     13  O   UNL     1       9.232  12.543  22.117  0.00  0.00    +0.000 OA
ENDBRANCH   6  13
BRANCH  11  14
ATOM     14  O   UNL     1      10.706  14.298  20.236  0.00  0.00    +0.000 OA
ATOM     15  H   UNL     1      11.153  14.279  21.098  0.00  0.00    +0.000 HD
ENDBRANCH  11  14
ENDBRANCH   4   8
ENDBRANCH   2   5
ENDBRANCH   1   2
BRANCH   1  16
ATOM     16  C   UNL     1       7.645   4.970  18.176  0.00  0.00    +0.000 C 
ATOM     17  O   UNL     1       8.649   4.284  17.989  0.00  0.00    +0.000 OA
BRANCH  16  18
ATOM     18  C   UNL     1       6.275   4.421  17.948  0.00  0.00    +0.000 C 
ATOM     19  C   UNL     1       5.382   4.398  18.950  0.00  0.00    +0.000 C 
BRANCH  19  20
ATOM     20  C   UNL     1       4.014   3.867  18.836  0.00  0.00    +0.000 A 
ATOM     21  C   UNL     1       3.594   3.334  17.613  0.00  0.00    +0.000 A 
ATOM     22  C   UNL     1       2.304   2.811  17.469  0.00  0.00    +0.000 A 
ATOM     23  C   UNL     1       1.422   2.805  18.554  0.00  0.00    +0.000 A 
ATOM     24  C   UNL     1       1.828   3.307  19.793  0.00  0.00    +0.000 A 
ATOM     25  C   UNL     1       3.127   3.828  19.919  0.00  0.00    +0.000 A 
BRANCH  23  26
ATOM     26  O   UNL     1       0.166   2.298  18.362  0.00  0.00    +0.000 OA
ATOM     27  H   UNL     1      -0.471   3.028  18.303  0.00  0.00    +0.000 HD
ENDBRANCH  23  26
BRANCH  24  28
ATOM     28  O   UNL     1       1.118   3.371  20.962  0.00  0.00    +0.000 OA
ATOM     29  C   UNL     1       1.557   2.586  22.060  0.00  0.00    +0.000 C 
ENDBRANCH  24  28
ENDBRANCH  19  20
ENDBRANCH  16  18
ENDBRANCH   1  16
TORSDOF 10
ENDMDL
MODEL 3
REMARK VINA RESULT:      -7.5      0.924      6.684
REMARK  Name = 
REMARK  12 active torsions:
REMARK  status: ('A' for Active; 'I' for Inactive)
REMARK    1  A    between atoms: C_1  and  O_2
REMARK    2  A    between atoms: O_2  and  C_3
REMARK    3  A    between atoms: C_5  and  C_6
REMARK    4  A    between atoms: C_7  and  C_8
REMARK    5  A    between atoms: C_8  and  C_10
REMARK    6  A    between atoms: C_10  and  C_11
REMARK    7  A    between atoms: C_11  and  C_13
REMARK    8  A    between atoms: C_14  and  C_15
REMARK    9  A    between atoms: C_18  and  O_19
REMARK   10  A    between atoms: C_20  and  O_21
REMARK   11  A    between atoms: O_21  and  C_22
REMARK   12  A    between atoms: C_26  and  O_27
REMARK                            x       y       z     vdW  Elec       q    Type
REMARK                         _______ _______ _______ _____ _____    ______ ____
ROOT
ATOM      1  C   UNL     1       3.197   2.839  20.836  0.00  0.00    +0.000 C 
ENDROOT
BRANCH   1   2
ATOM      2  C   UNL     1       3.126   2.269  19.445  0.00  0.00    +0.000 C 
ATOM      3  O   UNL     1       2.232   1.484  19.127  0.00  0.00    +0.000 OA
BRANCH   2   5
ATOM      4  C   UNL     1       4.064   3.757  17.708  0.00  0.00    +0.000 C 
ATOM      5  C   UNL     1       4.193   2.662  18.476  0.00  0.00    +0.000 C 
BRANCH   4   8
ATOM      6  C   UNL     1       5.827   4.431  14.414  0.00  0.00    +0.000 A 
ATOM      7  C   UNL     1       4.892   3.993  15.373  0.00  0.00    +0.000 A 
ATOM      8  C   UNL     1       5.083   4.215  16.746  0.00  0.00    +0.000 A 
ATOM      9  C   UNL     1       6.218   4.921  17.150  0.00  0.00    +0.000 A 
ATOM     10  C   UNL     1       7.157   5.359  16.214  0.00  0.00    +0.000 A 
ATOM     11  C   UNL     1       6.968   5.112  14.852  0.00  0.00    +0.000 A 
BRANCH   6  13
ATOM     12  C   UNL     1       6.258   3.155  12.435  0.00  0.00    +0.000 C 
ATOM     13  O   UNL     1       5.473   4.115  13.129  0.00  0.00    +0.000 OA
ENDBRANCH   6  13
BRANCH  11  14
ATOM     14  O   UNL     1       7.919   5.558  13.980  0.00  0.00    +0.000 OA
ATOM     15  H   UNL     1       7.484   5.951  13.206  0.00  0.00    +0.000 HD
ENDBRANCH  11  14
ENDBRANCH   4   8
ENDBRANCH   2   5
ENDBRANCH   1   2
BRANCH   1  16
ATOM     16  C   UNL     1       1.912   3.479  21.293  0.00  0.00    +0.000 C 
ATOM     17  O   UNL     1       1.219   2.960  22.167  0.00  0.00    +0.000 OA
BRANCH  16  18
ATOM     18  C   UNL     1       1.527   4.777  20.664  0.00  0.00    +0.000 C 
ATOM     19  C   UNL     1       2.474   5.635  20.253  0.00  0.00    +0.000 C 
BRANCH  19  20
ATOM     20  C   UNL     1       2.203   6.943  19.635  0.00  0.00    +0.000 A 
ATOM     21  C   UNL     1       2.688   7.198  18.348  0.00  0.00    +0.000 A 
ATOM     22  C   UNL     1       2.442   8.425  17.724  0.00  0.00    +0.000 A 
ATOM     23  C   UNL     1       1.696   9.411  18.378  0.00  0.00    +0.000 A 
ATOM     24  C   UNL     1       1.178   9.169  19.653  0.00  0.00    +0.000 A 
ATOM     25  C   UNL     1       1.434   7.930  20.264  0.00  0.00    +0.000 A 
BRANCH  23  26
ATOM     26  O   UNL     1       1.494  10.601  17.735  0.00  0.00    +0.000 OA
ATOM     27  H   UNL     1       1.736  11.331  18.328  0.00  0.00    +0.000 HD
ENDBRANCH  23  26
BRANCH  24  28
ATOM     28  O   UNL     1       0.420   9.996  20.437  0.00  0.00    +0.000 OA
ATOM     29  C   UNL     1       1.057  11.096  21.070  0.00  0.00    +0.000 C 
ENDBRANCH  24  28
ENDBRANCH  19  20
ENDBRANCH  16  18
ENDBRANCH   1  16
TORSDOF 10
ENDMDL
MODEL 4
REMARK VINA RESULT:      -7.4      3.878      7.233
REMARK  Name = 
REMARK  12 active torsions:
REMARK  status: ('A' for Active; 'I' for Inactive)
REMARK    1  A    between atoms: C_1  and  O_2
REMARK    2  A    between atoms: O_2  and  C_3
REMARK    3  A    between atoms: C_5  and  C_6
REMARK    4  A    between atoms: C_7  and  C_8
REMARK    5  A    between atoms: C_8  and  C_10
REMARK    6  A    between atoms: C_10  and  C_11
REMARK    7  A    between atoms: C_11  and  C_13
REMARK    8  A    between atoms: C_14  and  C_15
REMARK    9  A    between atoms: C_18  and  O_19
REMARK   10  A    between atoms: C_20  and  O_21
REMARK   11  A    between atoms: O_21  and  C_22
REMARK   12  A    between atoms: C_26  and  O_27
REMARK                            x       y       z     vdW  Elec       q    Type
REMARK                         _______ _______ _______ _____ _____    ______ ____
ROOT
ATOM      1  C   UNL     1       7.862   6.282  17.990  0.00  0.00    +0.000 C 
ENDROOT
BRANCH   1   2
ATOM      2  C   UNL     1       7.285   5.731  19.266  0.00  0.00    +0.000 C 
ATOM      3  O   UNL     1       7.961   5.674  20.294  0.00  0.00    +0.000 OA
BRANCH   2   5
ATOM      4  C   UNL     1       5.552   4.125  18.540  0.00  0.00    +0.000 C 
ATOM      5  C   UNL     1       5.879   5.227  19.234  0.00  0.00    +0.000 C 
BRANCH   4   8
ATOM      6  C   UNL     1       2.255   2.610  19.654  0.00  0.00    +0.000 A 
ATOM      7  C   UNL     1       3.562   3.135  19.659  0.00  0.00    +0.000 A 
ATOM      8  C   UNL     1       4.192   3.560  18.479  0.00  0.00    +0.000 A 
ATOM      9  C   UNL     1       3.475   3.485  17.282  0.00  0.00    +0.000 A 
ATOM     10  C   UNL     1       2.181   2.963  17.258  0.00  0.00    +0.000 A 
ATOM     11  C   UNL     1       1.572   2.521  18.435  0.00  0.00    +0.000 A 
BRANCH   6  13
ATOM     12  C   UNL     1       2.014   3.146  21.975  0.00  0.00    +0.000 C 
ATOM     13  O   UNL     1       1.813   2.241  20.898  0.00  0.00    +0.000 OA
ENDBRANCH   6  13
BRANCH  11  14
ATOM     14  O   UNL     1       0.306   2.015  18.355  0.00  0.00    +0.000 OA
ATOM     15  H   UNL     1       0.342   1.126  17.967  0.00  0.00    +0.000 HD
ENDBRANCH  11  14
ENDBRANCH   4   8
ENDBRANCH   2   5
ENDBRANCH   1   2
BRANCH   1  16
ATOM     16  C   UNL     1       7.120   7.480  17.459  0.00  0.00    +0.000 C 
ATOM     17  O   UNL     1       6.065   7.352  16.840  0.00  0.00    +0.000 OA
BRANCH  16  18
ATOM     18  C   UNL     1       7.700   8.828  17.736  0.00  0.00    +0.000 C 
ATOM     19  C   UNL     1       8.695   8.964  18.627  0.00  0.00    +0.000 C 
BRANCH  19  20
ATOM     20  C   UNL     1       9.326  10.246  18.983  0.00  0.00    +0.000 A 
ATOM     21  C   UNL     1       9.948  10.996  17.980  0.00  0.00    +0.000 A 
ATOM     22  C   UNL     1      10.550  12.223  18.279  0.00  0.00    +0.000 A 
ATOM     23  C   UNL     1      10.525  12.721  19.585  0.00  0.00    +0.000 A 
ATOM     24  C   UNL     1       9.885  12.003  20.598  0.00  0.00    +0.000 A 
ATOM     25  C   UNL     1       9.285  10.772  20.280  0.00  0.00    +0.000 A 
BRANCH  23  26
ATOM     26  O   UNL     1      11.139  13.918  19.832  0.00  0.00    +0.000 OA
ATOM     27  H   UNL     1      11.139  14.088  20.788  0.00  0.00    +0.000 HD
ENDBRANCH  23  26
BRANCH  24  28
ATOM     28  O   UNL     1       9.744  12.332  21.919  0.00  0.00    +0.000 OA
ATOM     29  C   UNL     1       8.612  13.096  22.307  0.00  0.00    +0.000 C 
ENDBRANCH  24  28
ENDBRANCH  19  20
ENDBRANCH  16  18
ENDBRANCH   1  16
TORSDOF 10
ENDMDL
MODEL 5
REMARK VINA RESULT:      -7.4      4.296      7.531
REMARK  Name = 
REMARK  12 active torsions:
REMARK  status: ('A' for Active; 'I' for Inactive)
REMARK    1  A    between atoms: C_1  and  O_2
REMARK    2  A    between atoms: O_2  and  C_3
REMARK    3  A    between atoms: C_5  and  C_6
REMARK    4  A    between atoms: C_7  and  C_8
REMARK    5  A    between atoms: C_8  and  C_10
REMARK    6  A    between atoms: C_10  and  C_11
REMARK    7  A    between atoms: C_11  and  C_13
REMARK    8  A    between atoms: C_14  and  C_15
REMARK    9  A    between atoms: C_18  and  O_19
REMARK   10  A    between atoms: C_20  and  O_21
REMARK   11  A    between atoms: O_21  and  C_22
REMARK   12  A    between atoms: C_26  and  O_27
REMARK                            x       y       z     vdW  Elec       q    Type
REMARK                         _______ _______ _______ _____ _____    ______ ____
ROOT
ATOM      1  C   UNL     1       8.050   6.499  18.670  0.00  0.00    +0.000 C 
ENDROOT
BRANCH   1   2
ATOM      2  C   UNL     1       7.289   5.400  17.977  0.00  0.00    +0.000 C 
ATOM      3  O   UNL     1       7.791   4.775  17.043  0.00  0.00    +0.000 OA
BRANCH   2   5
ATOM      4  C   UNL     1       5.199   4.081  17.949  0.00  0.00    +0.000 C 
ATOM      5  C   UNL     1       5.896   5.120  18.438  0.00  0.00    +0.000 C 
BRANCH   4   8
ATOM      6  C   UNL     1       1.865   4.238  19.757  0.00  0.00    +0.000 A 
ATOM      7  C   UNL     1       3.180   4.517  19.338  0.00  0.00    +0.000 A 
ATOM      8  C   UNL     1       3.830   3.734  18.371  0.00  0.00    +0.000 A 
ATOM      9  C   UNL     1       3.124   2.674  17.795  0.00  0.00    +0.000 A 
ATOM     10  C   UNL     1       1.821   2.380  18.202  0.00  0.00    +0.000 A 
ATOM     11  C   UNL     1       1.194   3.153  19.181  0.00  0.00    +0.000 A 
BRANCH   6  13
ATOM     12  C   UNL     1       1.648   6.494  20.531  0.00  0.00    +0.000 C 
ATOM     13  O   UNL     1       1.404   5.105  20.713  0.00  0.00    +0.000 OA
ENDBRANCH   6  13
BRANCH  11  14
ATOM     14  O   UNL     1      -0.080   2.819  19.546  0.00  0.00    +0.000 OA
ATOM     15  H   UNL     1      -0.196   2.991  20.494  0.00  0.00    +0.000 HD
ENDBRANCH  11  14
ENDBRANCH   4   8
ENDBRANCH   2   5
ENDBRANCH   1   2
BRANCH   1  16
ATOM     16  C   UNL     1       7.957   7.830  17.974  0.00  0.00    +0.000 C 
ATOM     17  O   UNL     1       7.385   7.944  16.891  0.00  0.00    +0.000 OA
BRANCH  16  18
ATOM     18  C   UNL     1       8.563   9.010  18.660  0.00  0.00    +0.000 C 
ATOM     19  C   UNL     1       8.955  10.077  17.947  0.00  0.00    +0.000 C 
BRANCH  19  20
ATOM     20  C   UNL     1       9.575  11.283  18.522  0.00  0.00    +0.000 A 
ATOM     21  C   UNL     1      10.278  11.175  19.726  0.00  0.00    +0.000 A 
ATOM     22  C   UNL     1      10.888  12.296  20.297  0.00  0.00    +0.000 A 
ATOM     23  C   UNL     1      10.813  13.540  19.662  0.00  0.00    +0.000 A 
ATOM     24  C   UNL     1      10.140  13.667  18.444  0.00  0.00    +0.000 A 
ATOM     25  C   UNL     1       9.533  12.530  17.885  0.00  0.00    +0.000 A 
BRANCH  23  26
ATOM     26  O   UNL     1      11.412  14.611  20.266  0.00  0.00    +0.000 OA
ATOM     27  H   UNL     1      11.117  14.666  21.189  0.00  0.00    +0.000 HD
ENDBRANCH  23  26
BRANCH  24  28
ATOM     28  O   UNL     1       9.974  14.786  17.673  0.00  0.00    +0.000 OA
ATOM     29  C   UNL     1      11.125  15.377  17.088  0.00  0.00    +0.000 C 
ENDBRANCH  24  28
ENDBRANCH  19  20
ENDBRANCH  16  18
ENDBRANCH   1  16
TORSDOF 10
ENDMDL
MODEL 6
REMARK VINA RESULT:      -7.3      1.478      5.425
REMARK  Name = 
REMARK  12 active torsions:
REMARK  status: ('A' for Active; 'I' for Inactive)
REMARK    1  A    between atoms: C_1  and  O_2
REMARK    2  A    between atoms: O_2  and  C_3
REMARK    3  A    between atoms: C_5  and  C_6
REMARK    4  A    between atoms: C_7  and  C_8
REMARK    5  A    between atoms: C_8  and  C_10
REMARK    6  A    between atoms: C_10  and  C_11
REMARK    7  A    between atoms: C_11  and  C_13
REMARK    8  A    between atoms: C_14  and  C_15
REMARK    9  A    between atoms: C_18  and  O_19
REMARK   10  A    between atoms: C_20  and  O_21
REMARK   11  A    between atoms: O_21  and  C_22
REMARK   12  A    between atoms: C_26  and  O_27
REMARK                            x       y       z     vdW  Elec       q    Type
REMARK                         _______ _______ _______ _____ _____    ______ ____
ROOT
ATOM      1  C   UNL     1       5.264   5.760  15.343  0.00  0.00    +0.000 C 
ENDROOT
BRANCH   1   2
ATOM      2  C   UNL     1       5.898   6.601  16.419  0.00  0.00    +0.000 C 
ATOM      3  O   UNL     1       7.112   6.806  16.428  0.00  0.00    +0.000 OA
BRANCH   2   5
ATOM      4  C   UNL     1       3.710   7.393  17.253  0.00  0.00    +0.000 C 
ATOM      5  C   UNL     1       5.011   7.150  17.487  0.00  0.00    +0.000 C 
BRANCH   4   8
ATOM      6  C   UNL     1       1.156   9.637  18.941  0.00  0.00    +0.000 A 
ATOM      7  C   UNL     1       2.078   9.110  18.016  0.00  0.00    +0.000 A 
ATOM      8  C   UNL     1       2.773   7.915  18.264  0.00  0.00    +0.000 A 
ATOM      9  C   UNL     1       2.505   7.229  19.450  0.00  0.00    +0.000 A 
ATOM     10  C   UNL     1       1.598   7.739  20.381  0.00  0.00    +0.000 A 
ATOM     11  C   UNL     1       0.929   8.940  20.133  0.00  0.00    +0.000 A 
BRANCH   6  13
ATOM     12  C   UNL     1       1.137  12.030  19.007  0.00  0.00    +0.000 C 
ATOM     13  O   UNL     1       0.584  10.812  18.528  0.00  0.00    +0.000 OA
ENDBRANCH   6  13
BRANCH  11  14
ATOM     14  O   UNL     1       0.055   9.396  21.079  0.00  0.00    +0.000 OA
ATOM     15  H   UNL     1       0.308  10.297  21.338  0.00  0.00    +0.000 HD
ENDBRANCH  11  14
ENDBRANCH   4   8
ENDBRANCH   2   5
ENDBRANCH   1   2
BRANCH   1  16
ATOM     16  C   UNL     1       5.311   4.282  15.626  0.00  0.00    +0.000 C 
ATOM     17  O   UNL     1       5.761   3.489  14.800  0.00  0.00    +0.000 OA
BRANCH  16  18
ATOM     18  C   UNL     1       4.815   3.820  16.957  0.00  0.00    +0.000 C 
ATOM     19  C   UNL     1       3.523   3.976  17.287  0.00  0.00    +0.000 C 
BRANCH  19  20
ATOM     20  C   UNL     1       2.936   3.569  18.574  0.00  0.00    +0.000 A 
ATOM     21  C   UNL     1       1.574   3.797  18.800  0.00  0.00    +0.000 A 
ATOM     22  C   UNL     1       0.979   3.415  20.007  0.00  0.00    +0.000 A 
ATOM     23  C   UNL     1       1.739   2.788  20.999  0.00  0.00    +0.000 A 
ATOM     24  C   UNL     1       3.094   2.524  20.785  0.00  0.00    +0.000 A 
ATOM     25  C   UNL     1       3.675   2.914  19.567  0.00  0.00    +0.000 A 
BRANCH  23  26
ATOM     26  O   UNL     1       1.117   2.446  22.169  0.00  0.00    +0.000 OA
ATOM     27  H   UNL     1       1.559   2.890  22.910  0.00  0.00    +0.000 HD
ENDBRANCH  23  26
BRANCH  24  28
ATOM     28  O   UNL     1       3.987   1.912  21.623  0.00  0.00    +0.000 OA
ATOM     29  C   UNL     1       5.151   1.328  21.057  0.00  0.00    +0.000 C 
ENDBRANCH  24  28
ENDBRANCH  19  20
ENDBRANCH  16  18
ENDBRANCH   1  16
TORSDOF 10
ENDMDL
MODEL 7
REMARK VINA RESULT:      -7.1      1.439      6.898
REMARK  Name = 
REMARK  12 active torsions:
REMARK  status: ('A' for Active; 'I' for Inactive)
REMARK    1  A    between atoms: C_1  and  O_2
REMARK    2  A    between atoms: O_2  and  C_3
REMARK    3  A    between atoms: C_5  and  C_6
REMARK    4  A    between atoms: C_7  and  C_8
REMARK    5  A    between atoms: C_8  and  C_10
REMARK    6  A    between atoms: C_10  and  C_11
REMARK    7  A    between atoms: C_11  and  C_13
REMARK    8  A    between atoms: C_14  and  C_15
REMARK    9  A    between atoms: C_18  and  O_19
REMARK   10  A    between atoms: C_20  and  O_21
REMARK   11  A    between atoms: O_21  and  C_22
REMARK   12  A    between atoms: C_26  and  O_27
REMARK                            x       y       z     vdW  Elec       q    Type
REMARK                         _______ _______ _______ _____ _____    ______ ____
ROOT
ATOM      1  C   UNL     1       5.628   5.623  15.366  0.00  0.00    +0.000 C 
ENDROOT
BRANCH   1   2
ATOM      2  C   UNL     1       5.413   4.167  15.683  0.00  0.00    +0.000 C 
ATOM      3  O   UNL     1       5.661   3.295  14.850  0.00  0.00    +0.000 OA
BRANCH   2   5
ATOM      4  C   UNL     1       3.533   3.748  17.232  0.00  0.00    +0.000 C 
ATOM      5  C   UNL     1       4.858   3.821  17.026  0.00  0.00    +0.000 C 
BRANCH   4   8
ATOM      6  C   UNL     1       3.168   2.507  20.801  0.00  0.00    +0.000 A 
ATOM      7  C   UNL     1       3.707   2.840  19.543  0.00  0.00    +0.000 A 
ATOM      8  C   UNL     1       2.917   3.395  18.523  0.00  0.00    +0.000 A 
ATOM      9  C   UNL     1       1.570   3.648  18.795  0.00  0.00    +0.000 A 
ATOM     10  C   UNL     1       1.018   3.319  20.034  0.00  0.00    +0.000 A 
ATOM     11  C   UNL     1       1.809   2.747  21.033  0.00  0.00    +0.000 A 
BRANCH   6  13
ATOM     12  C   UNL     1       5.093   1.119  21.121  0.00  0.00    +0.000 C 
ATOM     13  O   UNL     1       4.090   1.969  21.660  0.00  0.00    +0.000 OA
ENDBRANCH   6  13
BRANCH  11  14
ATOM     14  O   UNL     1       1.218   2.441  22.226  0.00  0.00    +0.000 OA
ATOM     15  H   UNL     1       1.525   1.568  22.519  0.00  0.00    +0.000 HD
ENDBRANCH  11  14
ENDBRANCH   4   8
ENDBRANCH   2   5
ENDBRANCH   1   2
BRANCH   1  16
ATOM     16  C   UNL     1       6.190   6.415  16.516  0.00  0.00    +0.000 C 
ATOM     17  O   UNL     1       7.391   6.675  16.584  0.00  0.00    +0.000 OA
BRANCH  16  18
ATOM     18  C   UNL     1       5.232   6.894  17.557  0.00  0.00    +0.000 C 
ATOM     19  C   UNL     1       3.990   7.266  17.210  0.00  0.00    +0.000 C 
BRANCH  19  20
ATOM     20  C   UNL     1       2.975   7.765  18.152  0.00  0.00    +0.000 A 
ATOM     21  C   UNL     1       2.734   7.049  19.330  0.00  0.00    +0.000 A 
ATOM     22  C   UNL     1       1.784   7.497  20.254  0.00  0.00    +0.000 A 
ATOM     23  C   UNL     1       1.070   8.676  20.015  0.00  0.00    +0.000 A 
ATOM     24  C   UNL     1       1.313   9.422  18.860  0.00  0.00    +0.000 A 
ATOM     25  C   UNL     1       2.271   8.958  17.943  0.00  0.00    +0.000 A 
BRANCH  23  26
ATOM     26  O   UNL     1       0.141   9.067  20.940  0.00  0.00    +0.000 OA
ATOM     27  H   UNL     1      -0.738   9.074  20.528  0.00  0.00    +0.000 HD
ENDBRANCH  23  26
BRANCH  24  28
ATOM     28  O   UNL     1       0.732  10.597  18.464  0.00  0.00    +0.000 OA
ATOM     29  C   UNL     1       1.381  11.815  18.796  0.00  0.00    +0.000 C 
ENDBRANCH  24  28
ENDBRANCH  19  20
ENDBRANCH  16  18
ENDBRANCH   1  16
TORSDOF 10
ENDMDL
MODEL 8
REMARK VINA RESULT:      -7.1      3.741      8.017
REMARK  Name = 
REMARK  12 active torsions:
REMARK  status: ('A' for Active; 'I' for Inactive)
REMARK    1  A    between atoms: C_1  and  O_2
REMARK    2  A    between atoms: O_2  and  C_3
REMARK    3  A    between atoms: C_5  and  C_6
REMARK    4  A    between atoms: C_7  and  C_8
REMARK    5  A    between atoms: C_8  and  C_10
REMARK    6  A    between atoms: C_10  and  C_11
REMARK    7  A    between atoms: C_11  and  C_13
REMARK    8  A    between atoms: C_14  and  C_15
REMARK    9  A    between atoms: C_18  and  O_19
REMARK   10  A    between atoms: C_20  and  O_21
REMARK   11  A    between atoms: O_21  and  C_22
REMARK   12  A    between atoms: C_26  and  O_27
REMARK                            x       y       z     vdW  Elec       q    Type
REMARK                         _______ _______ _______ _____ _____    ______ ____
ROOT
ATOM      1  C   UNL     1       6.014   7.542  17.155  0.00  0.00    +0.000 C 
ENDROOT
BRANCH   1   2
ATOM      2  C   UNL     1       7.385   7.067  17.555  0.00  0.00    +0.000 C 
ATOM      3  O   UNL     1       7.747   5.913  17.323  0.00  0.00    +0.000 OA
BRANCH   2   5
ATOM      4  C   UNL     1       8.346   9.318  17.895  0.00  0.00    +0.000 C 
ATOM      5  C   UNL     1       8.275   8.030  18.269  0.00  0.00    +0.000 C 
BRANCH   4   8
ATOM      6  C   UNL     1      10.794  12.177  18.388  0.00  0.00    +0.000 A 
ATOM      7  C   UNL     1       9.991  11.184  17.795  0.00  0.00    +0.000 A 
ATOM      8  C   UNL     1       9.187  10.327  18.564  0.00  0.00    +0.000 A 
ATOM      9  C   UNL     1       9.171  10.503  19.950  0.00  0.00    +0.000 A 
ATOM     10  C   UNL     1       9.964  11.479  20.555  0.00  0.00    +0.000 A 
ATOM     11  C   UNL     1      10.777  12.311  19.781  0.00  0.00    +0.000 A 
BRANCH   6  13
ATOM     12  C   UNL     1      10.974  14.146  17.037  0.00  0.00    +0.000 C 
ATOM     13  O   UNL     1      11.513  12.907  17.478  0.00  0.00    +0.000 OA
ENDBRANCH   6  13
BRANCH  11  14
ATOM     14  O   UNL     1      11.537  13.247  20.423  0.00  0.00    +0.000 OA
ATOM     15  H   UNL     1      12.477  13.052  20.275  0.00  0.00    +0.000 HD
ENDBRANCH  11  14
ENDBRANCH   4   8
ENDBRANCH   2   5
ENDBRANCH   1   2
BRANCH   1  16
ATOM     16  C   UNL     1       5.205   6.505  16.422  0.00  0.00    +0.000 C 
ATOM     17  O   UNL     1       5.197   6.456  15.193  0.00  0.00    +0.000 OA
BRANCH  16  18
ATOM     18  C   UNL     1       4.435   5.525  17.244  0.00  0.00    +0.000 C 
ATOM     19  C   UNL     1       3.924   5.893  18.430  0.00  0.00    +0.000 C 
BRANCH  19  20
ATOM     20  C   UNL     1       3.163   5.003  19.322  0.00  0.00    +0.000 A 
ATOM     21  C   UNL     1       1.791   5.219  19.486  0.00  0.00    +0.000 A 
ATOM     22  C   UNL     1       1.033   4.388  20.318  0.00  0.00    +0.000 A 
ATOM     23  C   UNL     1       1.639   3.321  20.988  0.00  0.00    +0.000 A 
ATOM     24  C   UNL     1       3.002   3.067  20.817  0.00  0.00    +0.000 A 
ATOM     25  C   UNL     1       3.748   3.912  19.978  0.00  0.00    +0.000 A 
BRANCH  23  26
ATOM     26  O   UNL     1       0.861   2.544  21.802  0.00  0.00    +0.000 OA
ATOM     27  H   UNL     1       1.312   2.419  22.653  0.00  0.00    +0.000 HD
ENDBRANCH  23  26
BRANCH  24  28
ATOM     28  O   UNL     1       3.761   2.071  21.371  0.00  0.00    +0.000 OA
ATOM     29  C   UNL     1       4.872   1.582  20.634  0.00  0.00    +0.000 C 
ENDBRANCH  24  28
ENDBRANCH  19  20
ENDBRANCH  16  18
ENDBRANCH   1  16
TORSDOF 10
ENDMDL
MODEL 9
REMARK VINA RESULT:      -7.1      1.490      7.230
REMARK  Name = 
REMARK  12 active torsions:
REMARK  status: ('A' for Active; 'I' for Inactive)
REMARK    1  A    between atoms: C_1  and  O_2
REMARK    2  A    between atoms: O_2  and  C_3
REMARK    3  A    between atoms: C_5  and  C_6
REMARK    4  A    between atoms: C_7  and  C_8
REMARK    5  A    between atoms: C_8  and  C_10
REMARK    6  A    between atoms: C_10  and  C_11
REMARK    7  A    between atoms: C_11  and  C_13
REMARK    8  A    between atoms: C_14  and  C_15
REMARK    9  A    between atoms: C_18  and  O_19
REMARK   10  A    between atoms: C_20  and  O_21
REMARK   11  A    between atoms: O_21  and  C_22
REMARK   12  A    between atoms: C_26  and  O_27
REMARK                            x       y       z     vdW  Elec       q    Type
REMARK                         _______ _______ _______ _____ _____    ______ ____
ROOT
ATOM      1  C   UNL     1       1.095   3.577  20.143  0.00  0.00    +0.000 C 
ENDROOT
BRANCH   1   2
ATOM      2  C   UNL     1       1.307   3.170  18.709  0.00  0.00    +0.000 C 
ATOM      3  O   UNL     1       0.638   2.269  18.202  0.00  0.00    +0.000 OA
BRANCH   2   5
ATOM      4  C   UNL     1       3.579   3.311  17.749  0.00  0.00    +0.000 C 
ATOM      5  C   UNL     1       2.374   3.873  17.936  0.00  0.00    +0.000 C 
BRANCH   4   8
ATOM      6  C   UNL     1       6.877   5.022  16.966  0.00  0.00    +0.000 A 
ATOM      7  C   UNL     1       5.798   4.436  17.657  0.00  0.00    +0.000 A 
ATOM      8  C   UNL     1       4.672   3.938  16.983  0.00  0.00    +0.000 A 
ATOM      9  C   UNL     1       4.654   4.005  15.587  0.00  0.00    +0.000 A 
ATOM     10  C   UNL     1       5.711   4.587  14.887  0.00  0.00    +0.000 A 
ATOM     11  C   UNL     1       6.817   5.099  15.571  0.00  0.00    +0.000 A 
BRANCH   6  13
ATOM     12  C   UNL     1       7.561   5.704  19.158  0.00  0.00    +0.000 C 
ATOM     13  O   UNL     1       7.878   5.457  17.794  0.00  0.00    +0.000 OA
ENDBRANCH   6  13
BRANCH  11  14
ATOM     14  O   UNL     1       7.822   5.663  14.837  0.00  0.00    +0.000 OA
ATOM     15  H   UNL     1       8.568   5.043  14.789  0.00  0.00    +0.000 HD
ENDBRANCH  11  14
ENDBRANCH   4   8
ENDBRANCH   2   5
ENDBRANCH   1   2
BRANCH   1  16
ATOM     16  C   UNL     1       1.958   4.731  20.577  0.00  0.00    +0.000 C 
ATOM     17  O   UNL     1       3.145   4.569  20.857  0.00  0.00    +0.000 OA
BRANCH  16  18
ATOM     18  C   UNL     1       1.325   6.083  20.630  0.00  0.00    +0.000 C 
ATOM     19  C   UNL     1       1.999   7.161  20.199  0.00  0.00    +0.000 C 
BRANCH  19  20
ATOM     20  C   UNL     1       1.475   8.536  20.220  0.00  0.00    +0.000 A 
ATOM     21  C   UNL     1       1.331   9.225  19.011  0.00  0.00    +0.000 A 
ATOM     22  C   UNL     1       0.826  10.529  18.991  0.00  0.00    +0.000 A 
ATOM     23  C   UNL     1       0.448  11.157  20.182  0.00  0.00    +0.000 A 
ATOM     24  C   UNL     1       0.556  10.479  21.398  0.00  0.00    +0.000 A 
ATOM     25  C   UNL     1       1.064   9.169  21.400  0.00  0.00    +0.000 A 
BRANCH  23  26
ATOM     26  O   UNL     1      -0.026  12.439  20.114  0.00  0.00    +0.000 OA
ATOM     27  H   UNL     1      -0.672  12.505  19.393  0.00  0.00    +0.000 HD
ENDBRANCH  23  26
BRANCH  24  28
ATOM     28  O   UNL     1       0.225  10.917  22.652  0.00  0.00    +0.000 OA
ATOM     29  C   UNL     1      -1.126  10.798  23.073  0.00  0.00    +0.000 C 
ENDBRANCH  24  28
ENDBRANCH  19  20
ENDBRANCH  16  18
ENDBRANCH   1  16
TORSDOF 10
ENDMDL
