MODEL 1
REMARK VINA RESULT:      -6.6      0.000      0.000
REMARK  Name = 
REMARK  8 active torsions:
REMARK  status: ('A' for Active; 'I' for Inactive)
REMARK    1  A    between atoms: C_1  and  C_2
REMARK    2  A    between atoms: C_7  and  O_8
REMARK    3  A    between atoms: O_8  and  C_9
REMARK    4  A    between atoms: C_9  and  C_10
REMARK    5  A    between atoms: C_10  and  O_11
REMARK    6  A    between atoms: O_11  and  C_12
REMARK    7  A    between atoms: C_12  and  C_13
REMARK    8  A    between atoms: C_13  and  N_14
REMARK                            x       y       z     vdW  Elec       q    Type
REMARK                         _______ _______ _______ _____ _____    ______ ____
ROOT
ATOM      1  C   UNL     1       7.569   5.992  17.873  0.00  0.00    +0.000 C 
ENDROOT
BRANCH   1   2
ATOM      2  C   UNL     1       7.452   5.067  16.647  0.00  0.00    +0.000 C 
BRANCH   2   3
ATOM      3  O   UNL     1       7.060   5.697  15.419  0.00  0.00    +0.000 OA
BRANCH   3  10
ATOM      4  C   UNL     1       8.806   5.846  12.886  0.00  0.00    +0.000 C 
ATOM      5  C   UNL     1       7.577   5.019  13.095  0.00  0.00    +0.000 A 
ATOM      6  C   UNL     1       7.168   4.167  12.039  0.00  0.00    +0.000 A 
ATOM      7  C   UNL     1       6.028   3.372  12.120  0.00  0.00    +0.000 A 
ATOM      8  C   UNL     1       5.239   3.422  13.252  0.00  0.00    +0.000 A 
ATOM      9  C   UNL     1       5.615   4.267  14.290  0.00  0.00    +0.000 A 
ATOM     10  C   UNL     1       6.792   5.040  14.244  0.00  0.00    +0.000 A 
ENDBRANCH   3  10
ENDBRANCH   2   3
ENDBRANCH   1   2
BRANCH   1  11
ATOM     11  O   UNL     1       6.987   5.469  19.071  0.00  0.00    +0.000 OA
BRANCH  11  12
ATOM     12  C   UNL     1       5.577   5.271  19.046  0.00  0.00    +0.000 C 
BRANCH  12  13
ATOM     13  C   UNL     1       5.103   3.808  19.158  0.00  0.00    +0.000 C 
BRANCH  13  14
ATOM     14  N   UNL     1       3.681   3.575  19.375  0.00  0.00    +0.000 NA
ATOM     15  C   UNL     1       3.077   4.678  20.104  0.00  0.00    +0.000 C 
ATOM     16  C   UNL     1       2.075   4.077  21.071  0.00  0.00    +0.000 C 
ATOM     17  C   UNL     1       0.732   3.777  20.423  0.00  0.00    +0.000 C 
ATOM     18  C   UNL     1       0.780   2.813  19.236  0.00  0.00    +0.000 C 
ATOM     19  C   UNL     1       1.514   3.386  18.027  0.00  0.00    +0.000 C 
ATOM     20  C   UNL     1       3.033   3.233  18.098  0.00  0.00    +0.000 C 
ENDBRANCH  13  14
ENDBRANCH  12  13
ENDBRANCH  11  12
ENDBRANCH   1  11
TORSDOF 7
ENDMDL
MODEL 2
REMARK VINA RESULT:      -6.5      4.675      8.289
REMARK  Name = 
REMARK  8 active torsions:
REMARK  status: ('A' for Active; 'I' for Inactive)
REMARK    1  A    between atoms: C_1  and  C_2
REMARK    2  A    between atoms: C_7  and  O_8
REMARK    3  A    between atoms: O_8  and  C_9
REMARK    4  A    between atoms: C_9  and  C_10
REMARK    5  A    between atoms: C_10  and  O_11
REMARK    6  A    between atoms: O_11  and  C_12
REMARK    7  A    between atoms: C_12  and  C_13
REMARK    8  A    between atoms: C_13  and  N_14
REMARK                            x       y       z     vdW  Elec       q    Type
REMARK                         _______ _______ _______ _____ _____    ______ ____
ROOT
ATOM      1  C   UNL     1       7.572   6.528  18.092  0.00  0.00    +0.000 C 
ENDROOT
BRANCH   1   2
ATOM      2  C   UNL     1       7.081   5.601  19.220  0.00  0.00    +0.000 C 
BRANCH   2   3
ATOM      3  O   UNL     1       6.435   4.390  18.802  0.00  0.00    +0.000 OA
BRANCH   3  10
ATOM      4  C   UNL     1       5.502   3.789  15.928  0.00  0.00    +0.000 C 
ATOM      5  C   UNL     1       4.648   3.957  17.144  0.00  0.00    +0.000 A 
ATOM      6  C   UNL     1       3.248   3.787  16.996  0.00  0.00    +0.000 A 
ATOM      7  C   UNL     1       2.360   3.942  18.057  0.00  0.00    +0.000 A 
ATOM      8  C   UNL     1       2.839   4.302  19.301  0.00  0.00    +0.000 A 
ATOM      9  C   UNL     1       4.207   4.492  19.460  0.00  0.00    +0.000 A 
ATOM     10  C   UNL     1       5.124   4.290  18.409  0.00  0.00    +0.000 A 
ENDBRANCH   3  10
ENDBRANCH   2   3
ENDBRANCH   1   2
BRANCH   1  11
ATOM     11  O   UNL     1       8.272   7.692  18.541  0.00  0.00    +0.000 OA
BRANCH  11  12
ATOM     12  C   UNL     1       8.223   8.823  17.676  0.00  0.00    +0.000 C 
BRANCH  12  13
ATOM     13  C   UNL     1       8.235  10.200  18.371  0.00  0.00    +0.000 C 
BRANCH  13  14
ATOM     14  N   UNL     1       9.532  10.793  18.668  0.00  0.00    +0.000 NA
ATOM     15  C   UNL     1       9.742  12.003  17.890  0.00  0.00    +0.000 C 
ATOM     16  C   UNL     1      11.200  12.017  17.471  0.00  0.00    +0.000 C 
ATOM     17  C   UNL     1      12.122  12.557  18.553  0.00  0.00    +0.000 C 
ATOM     18  C   UNL     1      12.088  11.799  19.880  0.00  0.00    +0.000 C 
ATOM     19  C   UNL     1      10.754  11.927  20.610  0.00  0.00    +0.000 C 
ATOM     20  C   UNL     1       9.689  10.944  20.123  0.00  0.00    +0.000 C 
ENDBRANCH  13  14
ENDBRANCH  12  13
ENDBRANCH  11  12
ENDBRANCH   1  11
TORSDOF 7
ENDMDL
MODEL 3
REMARK VINA RESULT:      -6.4      4.489      6.928
REMARK  Name = 
REMARK  8 active torsions:
REMARK  status: ('A' for Active; 'I' for Inactive)
REMARK    1  A    between atoms: C_1  and  C_2
REMARK    2  A    between atoms: C_7  and  O_8
REMARK    3  A    between atoms: O_8  and  C_9
REMARK    4  A    between atoms: C_9  and  C_10
REMARK    5  A    between atoms: C_10  and  O_11
REMARK    6  A    between atoms: O_11  and  C_12
REMARK    7  A    between atoms: C_12  and  C_13
REMARK    8  A    between atoms: C_13  and  N_14
REMARK                            x       y       z     vdW  Elec       q    Type
REMARK                         _______ _______ _______ _____ _____    ______ ____
ROOT
ATOM      1  C   UNL     1       7.934   8.075  17.582  0.00  0.00    +0.000 C 
ENDROOT
BRANCH   1   2
ATOM      2  C   UNL     1       8.152   9.537  18.014  0.00  0.00    +0.000 C 
BRANCH   2   3
ATOM      3  O   UNL     1       9.055   9.741  19.110  0.00  0.00    +0.000 OA
BRANCH   3  10
ATOM      4  C   UNL     1       9.061  11.547  21.605  0.00  0.00    +0.000 C 
ATOM      5  C   UNL     1       9.950  11.651  20.406  0.00  0.00    +0.000 A 
ATOM      6  C   UNL     1      10.944  12.661  20.407  0.00  0.00    +0.000 A 
ATOM      7  C   UNL     1      11.809  12.859  19.335  0.00  0.00    +0.000 A 
ATOM      8  C   UNL     1      11.691  12.070  18.208  0.00  0.00    +0.000 A 
ATOM      9  C   UNL     1      10.709  11.086  18.181  0.00  0.00    +0.000 A 
ATOM     10  C   UNL     1       9.858  10.841  19.278  0.00  0.00    +0.000 A 
ENDBRANCH   3  10
ENDBRANCH   2   3
ENDBRANCH   1   2
BRANCH   1  11
ATOM     11  O   UNL     1       8.124   7.112  18.623  0.00  0.00    +0.000 OA
BRANCH  11  12
ATOM     12  C   UNL     1       7.541   5.831  18.404  0.00  0.00    +0.000 C 
BRANCH  12  13
ATOM     13  C   UNL     1       6.455   5.406  19.413  0.00  0.00    +0.000 C 
BRANCH  13  14
ATOM     14  N   UNL     1       5.245   4.792  18.882  0.00  0.00    +0.000 NA
ATOM     15  C   UNL     1       4.096   5.663  19.062  0.00  0.00    +0.000 C 
ATOM     16  C   UNL     1       2.919   4.778  19.426  0.00  0.00    +0.000 C 
ATOM     17  C   UNL     1       2.250   4.153  18.211  0.00  0.00    +0.000 C 
ATOM     18  C   UNL     1       3.157   3.284  17.340  0.00  0.00    +0.000 C 
ATOM     19  C   UNL     1       4.252   4.079  16.634  0.00  0.00    +0.000 C 
ATOM     20  C   UNL     1       5.483   4.337  17.502  0.00  0.00    +0.000 C 
ENDBRANCH  13  14
ENDBRANCH  12  13
ENDBRANCH  11  12
ENDBRANCH   1  11
TORSDOF 7
ENDMDL
MODEL 4
REMARK VINA RESULT:      -6.4      0.607      1.457
REMARK  Name = 
REMARK  8 active torsions:
REMARK  status: ('A' for Active; 'I' for Inactive)
REMARK    1  A    between atoms: C_1  and  C_2
REMARK    2  A    between atoms: C_7  and  O_8
REMARK    3  A    between atoms: O_8  and  C_9
REMARK    4  A    between atoms: C_9  and  C_10
REMARK    5  A    between atoms: C_10  and  O_11
REMARK    6  A    between atoms: O_11  and  C_12
REMARK    7  A    between atoms: C_12  and  C_13
REMARK    8  A    between atoms: C_13  and  N_14
REMARK                            x       y       z     vdW  Elec       q    Type
REMARK                         _______ _______ _______ _____ _____    ______ ____
ROOT
ATOM      1  C   UNL     1       7.431   5.167  17.800  0.00  0.00    +0.000 C 
ENDROOT
BRANCH   1   2
ATOM      2  C   UNL     1       6.960   5.872  16.514  0.00  0.00    +0.000 C 
BRANCH   2   3
ATOM      3  O   UNL     1       7.696   5.565  15.323  0.00  0.00    +0.000 OA
BRANCH   3  10
ATOM      4  C   UNL     1       8.713   6.031  12.452  0.00  0.00    +0.000 C 
ATOM      5  C   UNL     1       7.632   5.095  12.893  0.00  0.00    +0.000 A 
ATOM      6  C   UNL     1       7.015   4.289  11.904  0.00  0.00    +0.000 A 
ATOM      7  C   UNL     1       5.985   3.401  12.202  0.00  0.00    +0.000 A 
ATOM      8  C   UNL     1       5.515   3.308  13.497  0.00  0.00    +0.000 A 
ATOM      9  C   UNL     1       6.096   4.106  14.476  0.00  0.00    +0.000 A 
ATOM     10  C   UNL     1       7.173   4.973  14.201  0.00  0.00    +0.000 A 
ENDBRANCH   3  10
ENDBRANCH   2   3
ENDBRANCH   1   2
BRANCH   1  11
ATOM     11  O   UNL     1       6.889   5.707  19.009  0.00  0.00    +0.000 OA
BRANCH  11  12
ATOM     12  C   UNL     1       5.690   5.102  19.482  0.00  0.00    +0.000 C 
BRANCH  12  13
ATOM     13  C   UNL     1       4.684   4.669  18.396  0.00  0.00    +0.000 C 
BRANCH  13  14
ATOM     14  N   UNL     1       3.370   4.219  18.837  0.00  0.00    +0.000 NA
ATOM     15  C   UNL     1       3.244   2.777  18.711  0.00  0.00    +0.000 C 
ATOM     16  C   UNL     1       1.831   2.493  18.236  0.00  0.00    +0.000 C 
ATOM     17  C   UNL     1       0.817   2.478  19.369  0.00  0.00    +0.000 C 
ATOM     18  C   UNL     1       0.721   3.772  20.178  0.00  0.00    +0.000 C 
ATOM     19  C   UNL     1       1.983   4.072  20.982  0.00  0.00    +0.000 C 
ATOM     20  C   UNL     1       3.080   4.764  20.173  0.00  0.00    +0.000 C 
ENDBRANCH  13  14
ENDBRANCH  12  13
ENDBRANCH  11  12
ENDBRANCH   1  11
TORSDOF 7
ENDMDL
MODEL 5
REMARK VINA RESULT:      -6.4      3.144      7.049
REMARK  Name = 
REMARK  8 active torsions:
REMARK  status: ('A' for Active; 'I' for Inactive)
REMARK    1  A    between atoms: C_1  and  C_2
REMARK    2  A    between atoms: C_7  and  O_8
REMARK    3  A    between atoms: O_8  and  C_9
REMARK    4  A    between atoms: C_9  and  C_10
REMARK    5  A    between atoms: C_10  and  O_11
REMARK    6  A    between atoms: O_11  and  C_12
REMARK    7  A    between atoms: C_12  and  C_13
REMARK    8  A    between atoms: C_13  and  N_14
REMARK                            x       y       z     vdW  Elec       q    Type
REMARK                         _______ _______ _______ _____ _____    ______ ____
ROOT
ATOM      1  C   UNL     1       0.956   3.991  20.308  0.00  0.00    +0.000 C 
ENDROOT
BRANCH   1   2
ATOM      2  C   UNL     1       2.064   4.887  20.893  0.00  0.00    +0.000 C 
BRANCH   2   3
ATOM      3  O   UNL     1       2.620   5.863  20.001  0.00  0.00    +0.000 OA
BRANCH   3  10
ATOM      4  C   UNL     1       3.117   7.595  17.503  0.00  0.00    +0.000 C 
ATOM      5  C   UNL     1       2.276   7.936  18.692  0.00  0.00    +0.000 A 
ATOM      6  C   UNL     1       1.585   9.173  18.678  0.00  0.00    +0.000 A 
ATOM      7  C   UNL     1       0.793   9.598  19.742  0.00  0.00    +0.000 A 
ATOM      8  C   UNL     1       0.687   8.810  20.871  0.00  0.00    +0.000 A 
ATOM      9  C   UNL     1       1.373   7.602  20.910  0.00  0.00    +0.000 A 
ATOM     10  C   UNL     1       2.139   7.135  19.822  0.00  0.00    +0.000 A 
ENDBRANCH   3  10
ENDBRANCH   2   3
ENDBRANCH   1   2
BRANCH   1  11
ATOM     11  O   UNL     1       1.421   2.978  19.411  0.00  0.00    +0.000 OA
BRANCH  11  12
ATOM     12  C   UNL     1       2.834   2.885  19.252  0.00  0.00    +0.000 C 
BRANCH  12  13
ATOM     13  C   UNL     1       3.345   2.884  17.797  0.00  0.00    +0.000 C 
BRANCH  13  14
ATOM     14  N   UNL     1       4.674   3.429  17.550  0.00  0.00    +0.000 NA
ATOM     15  C   UNL     1       4.699   4.201  16.319  0.00  0.00    +0.000 C 
ATOM     16  C   UNL     1       6.026   3.916  15.641  0.00  0.00    +0.000 C 
ATOM     17  C   UNL     1       7.165   4.762  16.190  0.00  0.00    +0.000 C 
ATOM     18  C   UNL     1       7.432   4.607  17.687  0.00  0.00    +0.000 C 
ATOM     19  C   UNL     1       6.294   5.134  18.557  0.00  0.00    +0.000 C 
ATOM     20  C   UNL     1       5.152   4.137  18.748  0.00  0.00    +0.000 C 
ENDBRANCH  13  14
ENDBRANCH  12  13
ENDBRANCH  11  12
ENDBRANCH   1  11
TORSDOF 7
ENDMDL
MODEL 6
REMARK VINA RESULT:      -6.4      1.379      2.518
REMARK  Name = 
REMARK  8 active torsions:
REMARK  status: ('A' for Active; 'I' for Inactive)
REMARK    1  A    between atoms: C_1  and  C_2
REMARK    2  A    between atoms: C_7  and  O_8
REMARK    3  A    between atoms: O_8  and  C_9
REMARK    4  A    between atoms: C_9  and  C_10
REMARK    5  A    between atoms: C_10  and  O_11
REMARK    6  A    between atoms: O_11  and  C_12
REMARK    7  A    between atoms: C_12  and  C_13
REMARK    8  A    between atoms: C_13  and  N_14
REMARK                            x       y       z     vdW  Elec       q    Type
REMARK                         _______ _______ _______ _____ _____    ______ ____
ROOT
ATOM      1  C   UNL     1       6.286   5.672  18.044  0.00  0.00    +0.000 C 
ENDROOT
BRANCH   1   2
ATOM      2  C   UNL     1       7.393   5.207  17.080  0.00  0.00    +0.000 C 
BRANCH   2   3
ATOM      3  O   UNL     1       7.316   5.717  15.741  0.00  0.00    +0.000 OA
BRANCH   3  10
ATOM      4  C   UNL     1       5.129   3.552  15.605  0.00  0.00    +0.000 C 
ATOM      5  C   UNL     1       6.005   4.030  14.490  0.00  0.00    +0.000 A 
ATOM      6  C   UNL     1       5.801   3.470  13.205  0.00  0.00    +0.000 A 
ATOM      7  C   UNL     1       6.574   3.827  12.103  0.00  0.00    +0.000 A 
ATOM      8  C   UNL     1       7.599   4.739  12.256  0.00  0.00    +0.000 A 
ATOM      9  C   UNL     1       7.826   5.285  13.514  0.00  0.00    +0.000 A 
ATOM     10  C   UNL     1       7.021   4.971  14.628  0.00  0.00    +0.000 A 
ENDBRANCH   3  10
ENDBRANCH   2   3
ENDBRANCH   1   2
BRANCH   1  11
ATOM     11  O   UNL     1       5.600   6.859  17.635  0.00  0.00    +0.000 OA
BRANCH  11  12
ATOM     12  C   UNL     1       4.235   6.695  17.261  0.00  0.00    +0.000 C 
BRANCH  12  13
ATOM     13  C   UNL     1       3.202   6.917  18.384  0.00  0.00    +0.000 C 
BRANCH  13  14
ATOM     14  N   UNL     1       2.412   5.769  18.810  0.00  0.00    +0.000 NA
ATOM     15  C   UNL     1       2.790   4.575  18.073  0.00  0.00    +0.000 C 
ATOM     16  C   UNL     1       1.515   3.802  17.794  0.00  0.00    +0.000 C 
ATOM     17  C   UNL     1       1.079   2.936  18.965  0.00  0.00    +0.000 C 
ATOM     18  C   UNL     1       0.821   3.686  20.273  0.00  0.00    +0.000 C 
ATOM     19  C   UNL     1       2.085   4.293  20.875  0.00  0.00    +0.000 C 
ATOM     20  C   UNL     1       2.463   5.648  20.276  0.00  0.00    +0.000 C 
ENDBRANCH  13  14
ENDBRANCH  12  13
ENDBRANCH  11  12
ENDBRANCH   1  11
TORSDOF 7
ENDMDL
MODEL 7
REMARK VINA RESULT:      -6.4      1.279      2.109
REMARK  Name = 
REMARK  8 active torsions:
REMARK  status: ('A' for Active; 'I' for Inactive)
REMARK    1  A    between atoms: C_1  and  C_2
REMARK    2  A    between atoms: C_7  and  O_8
REMARK    3  A    between atoms: O_8  and  C_9
REMARK    4  A    between atoms: C_9  and  C_10
REMARK    5  A    between atoms: C_10  and  O_11
REMARK    6  A    between atoms: O_11  and  C_12
REMARK    7  A    between atoms: C_12  and  C_13
REMARK    8  A    between atoms: C_13  and  N_14
REMARK                            x       y       z     vdW  Elec       q    Type
REMARK                         _______ _______ _______ _____ _____    ______ ____
ROOT
ATOM      1  C   UNL     1       6.378   6.100  18.049  0.00  0.00    +0.000 C 
ENDROOT
BRANCH   1   2
ATOM      2  C   UNL     1       7.256   5.301  17.068  0.00  0.00    +0.000 C 
BRANCH   2   3
ATOM      3  O   UNL     1       7.263   5.764  15.710  0.00  0.00    +0.000 OA
BRANCH   3  10
ATOM      4  C   UNL     1       5.073   3.600  15.617  0.00  0.00    +0.000 C 
ATOM      5  C   UNL     1       5.950   4.053  14.494  0.00  0.00    +0.000 A 
ATOM      6  C   UNL     1       5.747   3.467  13.219  0.00  0.00    +0.000 A 
ATOM      7  C   UNL     1       6.522   3.799  12.112  0.00  0.00    +0.000 A 
ATOM      8  C   UNL     1       7.548   4.713  12.246  0.00  0.00    +0.000 A 
ATOM      9  C   UNL     1       7.775   5.284  13.493  0.00  0.00    +0.000 A 
ATOM     10  C   UNL     1       6.968   4.995  14.612  0.00  0.00    +0.000 A 
ENDBRANCH   3  10
ENDBRANCH   2   3
ENDBRANCH   1   2
BRANCH   1  11
ATOM     11  O   UNL     1       5.033   5.626  18.166  0.00  0.00    +0.000 OA
BRANCH  11  12
ATOM     12  C   UNL     1       4.010   6.567  17.856  0.00  0.00    +0.000 C 
BRANCH  12  13
ATOM     13  C   UNL     1       2.684   6.393  18.624  0.00  0.00    +0.000 C 
BRANCH  13  14
ATOM     14  N   UNL     1       2.378   5.068  19.149  0.00  0.00    +0.000 NA
ATOM     15  C   UNL     1       1.622   5.161  20.387  0.00  0.00    +0.000 C 
ATOM     16  C   UNL     1       2.134   4.066  21.304  0.00  0.00    +0.000 C 
ATOM     17  C   UNL     1       1.500   2.712  21.022  0.00  0.00    +0.000 C 
ATOM     18  C   UNL     1       1.699   2.180  19.603  0.00  0.00    +0.000 C 
ATOM     19  C   UNL     1       0.982   3.011  18.543  0.00  0.00    +0.000 C 
ATOM     20  C   UNL     1       1.765   4.245  18.094  0.00  0.00    +0.000 C 
ENDBRANCH  13  14
ENDBRANCH  12  13
ENDBRANCH  11  12
ENDBRANCH   1  11
TORSDOF 7
ENDMDL
MODEL 8
REMARK VINA RESULT:      -6.3      4.693      7.132
REMARK  Name = 
REMARK  8 active torsions:
REMARK  status: ('A' for Active; 'I' for Inactive)
REMARK    1  A    between atoms: C_1  and  C_2
REMARK    2  A    between atoms: C_7  and  O_8
REMARK    3  A    between atoms: O_8  and  C_9
REMARK    4  A    between atoms: C_9  and  C_10
REMARK    5  A    between atoms: C_10  and  O_11
REMARK    6  A    between atoms: O_11  and  C_12
REMARK    7  A    between atoms: C_12  and  C_13
REMARK    8  A    between atoms: C_13  and  N_14
REMARK                            x       y       z     vdW  Elec       q    Type
REMARK                         _______ _______ _______ _____ _____    ______ ____
ROOT
ATOM      1  C   UNL     1       8.197   8.110  17.954  0.00  0.00    +0.000 C 
ENDROOT
BRANCH   1   2
ATOM      2  C   UNL     1       8.365   9.628  18.152  0.00  0.00    +0.000 C 
BRANCH   2   3
ATOM      3  O   UNL     1       9.200  10.031  19.247  0.00  0.00    +0.000 OA
BRANCH   3  10
ATOM      4  C   UNL     1       9.394  12.032  21.581  0.00  0.00    +0.000 C 
ATOM      5  C   UNL     1      10.181  12.041  20.309  0.00  0.00    +0.000 A 
ATOM      6  C   UNL     1      11.163  13.049  20.147  0.00  0.00    +0.000 A 
ATOM      7  C   UNL     1      11.935  13.162  18.995  0.00  0.00    +0.000 A 
ATOM      8  C   UNL     1      11.733  12.285  17.948  0.00  0.00    +0.000 A 
ATOM      9  C   UNL     1      10.760  11.301  18.081  0.00  0.00    +0.000 A 
ATOM     10  C   UNL     1      10.004  11.142  19.260  0.00  0.00    +0.000 A 
ENDBRANCH   3  10
ENDBRANCH   2   3
ENDBRANCH   1   2
BRANCH   1  11
ATOM     11  O   UNL     1       7.076   7.735  17.148  0.00  0.00    +0.000 OA
BRANCH  11  12
ATOM     12  C   UNL     1       6.720   6.357  17.174  0.00  0.00    +0.000 C 
BRANCH  12  13
ATOM     13  C   UNL     1       5.915   5.895  18.406  0.00  0.00    +0.000 C 
BRANCH  13  14
ATOM     14  N   UNL     1       4.610   5.291  18.170  0.00  0.00    +0.000 NA
ATOM     15  C   UNL     1       4.727   3.855  17.983  0.00  0.00    +0.000 C 
ATOM     16  C   UNL     1       3.742   3.466  16.895  0.00  0.00    +0.000 C 
ATOM     17  C   UNL     1       2.326   3.279  17.418  0.00  0.00    +0.000 C 
ATOM     18  C   UNL     1       1.714   4.502  18.101  0.00  0.00    +0.000 C 
ATOM     19  C   UNL     1       2.410   4.870  19.408  0.00  0.00    +0.000 C 
ATOM     20  C   UNL     1       3.668   5.717  19.218  0.00  0.00    +0.000 C 
ENDBRANCH  13  14
ENDBRANCH  12  13
ENDBRANCH  11  12
ENDBRANCH   1  11
TORSDOF 7
ENDMDL
MODEL 9
REMARK VINA RESULT:      -6.2      1.216      2.361
REMARK  Name = 
REMARK  8 active torsions:
REMARK  status: ('A' for Active; 'I' for Inactive)
REMARK    1  A    between atoms: C_1  and  C_2
REMARK    2  A    between atoms: C_7  and  O_8
REMARK    3  A    between atoms: O_8  and  C_9
REMARK    4  A    between atoms: C_9  and  C_10
REMARK    5  A    between atoms: C_10  and  O_11
REMARK    6  A    between atoms: O_11  and  C_12
REMARK    7  A    between atoms: C_12  and  C_13
REMARK    8  A    between atoms: C_13  and  N_14
REMARK                            x       y       z     vdW  Elec       q    Type
REMARK                         _______ _______ _______ _____ _____    ______ ____
ROOT
ATOM      1  C   UNL     1       5.401   6.654  16.456  0.00  0.00    +0.000 C 
ENDROOT
BRANCH   1   2
ATOM      2  C   UNL     1       6.921   6.510  16.661  0.00  0.00    +0.000 C 
BRANCH   2   3
ATOM      3  O   UNL     1       7.532   5.363  16.055  0.00  0.00    +0.000 OA
BRANCH   3  10
ATOM      4  C   UNL     1       5.361   3.211  15.670  0.00  0.00    +0.000 C 
ATOM      5  C   UNL     1       6.157   3.899  14.607  0.00  0.00    +0.000 A 
ATOM      6  C   UNL     1       5.874   3.573  13.257  0.00  0.00    +0.000 A 
ATOM      7  C   UNL     1       6.570   4.138  12.191  0.00  0.00    +0.000 A 
ATOM      8  C   UNL     1       7.594   5.029  12.440  0.00  0.00    +0.000 A 
ATOM      9  C   UNL     1       7.898   5.346  13.758  0.00  0.00    +0.000 A 
ATOM     10  C   UNL     1       7.171   4.822  14.846  0.00  0.00    +0.000 A 
ENDBRANCH   3  10
ENDBRANCH   2   3
ENDBRANCH   1   2
BRANCH   1  11
ATOM     11  O   UNL     1       4.606   6.198  17.555  0.00  0.00    +0.000 OA
BRANCH  11  12
ATOM     12  C   UNL     1       5.323   5.694  18.678  0.00  0.00    +0.000 C 
BRANCH  12  13
ATOM     13  C   UNL     1       5.011   4.237  19.073  0.00  0.00    +0.000 C 
BRANCH  13  14
ATOM     14  N   UNL     1       3.610   3.841  19.137  0.00  0.00    +0.000 NA
ATOM     15  C   UNL     1       3.454   2.427  18.838  0.00  0.00    +0.000 C 
ATOM     16  C   UNL     1       2.190   2.283  18.011  0.00  0.00    +0.000 C 
ATOM     17  C   UNL     1       0.929   2.239  18.860  0.00  0.00    +0.000 C 
ATOM     18  C   UNL     1       0.696   3.460  19.750  0.00  0.00    +0.000 C 
ATOM     19  C   UNL     1       1.733   3.601  20.860  0.00  0.00    +0.000 C 
ATOM     20  C   UNL     1       3.026   4.284  20.413  0.00  0.00    +0.000 C 
ENDBRANCH  13  14
ENDBRANCH  12  13
ENDBRANCH  11  12
ENDBRANCH   1  11
TORSDOF 7
ENDMDL
