MODEL 1
REMARK VINA RESULT:      -8.5      0.000      0.000
REMARK  Name = 
REMARK  6 active torsions:
REMARK  status: ('A' for Active; 'I' for Inactive)
REMARK    1  A    between atoms: C_1  and  C_2
REMARK    2  A    between atoms: N_4  and  C_5
REMARK    3  A    between atoms: C_5  and  C_6
REMARK    4  A    between atoms: N_8  and  C_9
REMARK    5  A    between atoms: C_12  and  N_13
REMARK    6  A    between atoms: C_15  and  C_16
REMARK                            x       y       z     vdW  Elec       q    Type
REMARK                         _______ _______ _______ _____ _____    ______ ____
ROOT
ATOM      1  C   UNL     1       2.991   6.767  18.569  0.00  0.00    +0.000 A 
ATOM      2  C   UNL     1       2.438   6.692  19.857  0.00  0.00    +0.000 A 
ATOM      3  C   UNL     1       1.687   7.747  20.389  0.00  0.00    +0.000 A 
ATOM      4  C   UNL     1       1.430   8.879  19.612  0.00  0.00    +0.000 A 
ATOM      5  C   UNL     1       1.980   8.963  18.336  0.00  0.00    +0.000 A 
ATOM      6  F   UNL     1       1.810  10.051  17.571  0.00  0.00    +0.000 F 
ATOM      7  C   UNL     1       2.774   7.933  17.828  0.00  0.00    +0.000 A 
ENDROOT
BRANCH   1  10
ATOM      8  C   UNL     1       5.541   4.340  17.499  0.00  0.00    +0.000 C 
ATOM      9  C   UNL     1       5.171   5.778  17.803  0.00  0.00    +0.000 C 
ATOM     10  N   UNL     1       3.759   5.703  18.035  0.00  0.00    +0.000 N 
ATOM     11  C   UNL     1       3.273   4.520  17.496  0.00  0.00    +0.000 C 
ATOM     12  O   UNL     1       2.113   4.159  17.366  0.00  0.00    +0.000 OA
ATOM     13  O   UNL     1       4.315   3.758  17.030  0.00  0.00    +0.000 OA
BRANCH   8  14
ATOM     14  C   UNL     1       6.617   4.237  16.417  0.00  0.00    +0.000 C 
BRANCH  14  18
ATOM     15  C   UNL     1       5.921   3.572  12.753  0.00  0.00    +0.000 C 
ATOM     16  C   UNL     1       6.513   4.264  13.951  0.00  0.00    +0.000 C 
ATOM     17  O   UNL     1       7.291   5.208  13.861  0.00  0.00    +0.000 OA
ATOM     18  N   UNL     1       6.105   3.736  15.153  0.00  0.00    +0.000 N 
ATOM     19  H   UNL     1       5.548   2.889  15.158  0.00  0.00    +0.000 HD
ENDBRANCH  14  18
ENDBRANCH   8  14
ENDBRANCH   1  10
BRANCH   4  20
ATOM     20  N   UNL     1       0.598   9.898  20.116  0.00  0.00    +0.000 N 
ATOM     21  C   UNL     1       0.838  10.758  21.155  0.00  0.00    +0.000 A 
ATOM     22  C   UNL     1      -0.241  11.611  21.162  0.00  0.00    +0.000 A 
ATOM     23  N   UNL     1      -1.125  11.225  20.193  0.00  0.00    +0.000 NA
ATOM     24  N   UNL     1      -0.590  10.205  19.535  0.00  0.00    +0.000 NA
BRANCH  22  25
ATOM     25  C   UNL     1      -0.389  12.785  22.001  0.00  0.00    +0.000 A 
ATOM     26  C   UNL     1      -1.306  12.801  23.028  0.00  0.00    +0.000 A 
ATOM     27  C   UNL     1      -1.415  13.986  23.713  0.00  0.00    +0.000 A 
ATOM     28  N   UNL     1      -0.685  15.079  23.426  0.00  0.00    +0.000 NA
ATOM     29  C   UNL     1       0.182  14.955  22.412  0.00  0.00    +0.000 A 
ATOM     30  N   UNL     1       0.376  13.852  21.675  0.00  0.00    +0.000 NA
ENDBRANCH  22  25
ENDBRANCH   4  20
TORSDOF 5
ENDMDL
MODEL 2
REMARK VINA RESULT:      -8.5      1.061      1.569
REMARK  Name = 
REMARK  6 active torsions:
REMARK  status: ('A' for Active; 'I' for Inactive)
REMARK    1  A    between atoms: C_1  and  C_2
REMARK    2  A    between atoms: N_4  and  C_5
REMARK    3  A    between atoms: C_5  and  C_6
REMARK    4  A    between atoms: N_8  and  C_9
REMARK    5  A    between atoms: C_12  and  N_13
REMARK    6  A    between atoms: C_15  and  C_16
REMARK                            x       y       z     vdW  Elec       q    Type
REMARK                         _______ _______ _______ _____ _____    ______ ____
ROOT
ATOM      1  C   UNL     1       2.853   6.916  18.677  0.00  0.00    +0.000 A 
ATOM      2  C   UNL     1       2.606   8.007  17.830  0.00  0.00    +0.000 A 
ATOM      3  C   UNL     1       1.794   9.073  18.235  0.00  0.00    +0.000 A 
ATOM      4  C   UNL     1       1.259   9.090  19.525  0.00  0.00    +0.000 A 
ATOM      5  C   UNL     1       1.495   8.008  20.369  0.00  0.00    +0.000 A 
ATOM      6  F   UNL     1       0.959   7.948  21.597  0.00  0.00    +0.000 F 
ATOM      7  C   UNL     1       2.260   6.920  19.944  0.00  0.00    +0.000 A 
ENDROOT
BRANCH   1  10
ATOM      8  C   UNL     1       5.490   4.453  17.957  0.00  0.00    +0.000 C 
ATOM      9  C   UNL     1       5.095   5.901  18.164  0.00  0.00    +0.000 C 
ATOM     10  N   UNL     1       3.668   5.832  18.263  0.00  0.00    +0.000 N 
ATOM     11  C   UNL     1       3.233   4.626  17.731  0.00  0.00    +0.000 C 
ATOM     12  O   UNL     1       2.090   4.257  17.507  0.00  0.00    +0.000 OA
ATOM     13  O   UNL     1       4.313   3.848  17.399  0.00  0.00    +0.000 OA
BRANCH   8  14
ATOM     14  C   UNL     1       6.664   4.307  16.987  0.00  0.00    +0.000 C 
BRANCH  14  18
ATOM     15  C   UNL     1       6.258   3.745  13.263  0.00  0.00    +0.000 C 
ATOM     16  C   UNL     1       6.741   4.412  14.522  0.00  0.00    +0.000 C 
ATOM     17  O   UNL     1       7.498   5.378  14.519  0.00  0.00    +0.000 OA
ATOM     18  N   UNL     1       6.261   3.835  15.674  0.00  0.00    +0.000 N 
ATOM     19  H   UNL     1       5.729   2.974  15.612  0.00  0.00    +0.000 HD
ENDBRANCH  14  18
ENDBRANCH   8  14
ENDBRANCH   1  10
BRANCH   4  20
ATOM     20  N   UNL     1       0.520  10.206  19.960  0.00  0.00    +0.000 N 
ATOM     21  C   UNL     1       0.759  11.019  21.037  0.00  0.00    +0.000 A 
ATOM     22  C   UNL     1      -0.192  12.008  20.950  0.00  0.00    +0.000 A 
ATOM     23  N   UNL     1      -1.011  11.751  19.885  0.00  0.00    +0.000 NA
ATOM     24  N   UNL     1      -0.548  10.674  19.265  0.00  0.00    +0.000 NA
BRANCH  22  25
ATOM     25  C   UNL     1      -0.272  13.185  21.794  0.00  0.00    +0.000 A 
ATOM     26  C   UNL     1       0.516  14.284  21.539  0.00  0.00    +0.000 A 
ATOM     27  C   UNL     1       0.413  15.315  22.441  0.00  0.00    +0.000 A 
ATOM     28  N   UNL     1      -0.399  15.285  23.513  0.00  0.00    +0.000 NA
ATOM     29  C   UNL     1      -1.127  14.171  23.665  0.00  0.00    +0.000 A 
ATOM     30  N   UNL     1      -1.112  13.105  22.852  0.00  0.00    +0.000 NA
ENDBRANCH  22  25
ENDBRANCH   4  20
TORSDOF 5
ENDMDL
MODEL 3
REMARK VINA RESULT:      -8.4      1.674      2.088
REMARK  Name = 
REMARK  6 active torsions:
REMARK  status: ('A' for Active; 'I' for Inactive)
REMARK    1  A    between atoms: C_1  and  C_2
REMARK    2  A    between atoms: N_4  and  C_5
REMARK    3  A    between atoms: C_5  and  C_6
REMARK    4  A    between atoms: N_8  and  C_9
REMARK    5  A    between atoms: C_12  and  N_13
REMARK    6  A    between atoms: C_15  and  C_16
REMARK                            x       y       z     vdW  Elec       q    Type
REMARK                         _______ _______ _______ _____ _____    ______ ____
ROOT
ATOM      1  C   UNL     1       2.844   6.980  18.662  0.00  0.00    +0.000 A 
ATOM      2  C   UNL     1       2.610   8.054  17.789  0.00  0.00    +0.000 A 
ATOM      3  C   UNL     1       1.822   9.146  18.173  0.00  0.00    +0.000 A 
ATOM      4  C   UNL     1       1.297   9.205  19.465  0.00  0.00    +0.000 A 
ATOM      5  C   UNL     1       1.519   8.141  20.335  0.00  0.00    +0.000 A 
ATOM      6  F   UNL     1       0.992   8.123  21.568  0.00  0.00    +0.000 F 
ATOM      7  C   UNL     1       2.261   7.029  19.933  0.00  0.00    +0.000 A 
ENDROOT
BRANCH   1  10
ATOM      8  C   UNL     1       5.425   4.445  17.997  0.00  0.00    +0.000 C 
ATOM      9  C   UNL     1       5.063   5.905  18.179  0.00  0.00    +0.000 C 
ATOM     10  N   UNL     1       3.634   5.871  18.270  0.00  0.00    +0.000 N 
ATOM     11  C   UNL     1       3.173   4.669  17.754  0.00  0.00    +0.000 C 
ATOM     12  O   UNL     1       2.024   4.323  17.528  0.00  0.00    +0.000 OA
ATOM     13  O   UNL     1       4.237   3.859  17.441  0.00  0.00    +0.000 OA
BRANCH   8  14
ATOM     14  C   UNL     1       6.600   4.255  17.038  0.00  0.00    +0.000 C 
BRANCH  14  18
ATOM     15  C   UNL     1       6.198   3.734  13.307  0.00  0.00    +0.000 C 
ATOM     16  C   UNL     1       6.693   4.378  14.573  0.00  0.00    +0.000 C 
ATOM     17  O   UNL     1       7.477   5.321  14.582  0.00  0.00    +0.000 OA
ATOM     18  N   UNL     1       6.191   3.806  15.719  0.00  0.00    +0.000 N 
ATOM     19  H   UNL     1       5.635   2.960  15.647  0.00  0.00    +0.000 HD
ENDBRANCH  14  18
ENDBRANCH   8  14
ENDBRANCH   1  10
BRANCH   4  20
ATOM     20  N   UNL     1       0.582  10.347  19.877  0.00  0.00    +0.000 N 
ATOM     21  C   UNL     1      -0.702  10.423  20.349  0.00  0.00    +0.000 A 
ATOM     22  C   UNL     1      -0.869  11.741  20.702  0.00  0.00    +0.000 A 
ATOM     23  N   UNL     1       0.265  12.438  20.388  0.00  0.00    +0.000 NA
ATOM     24  N   UNL     1       1.158  11.575  19.923  0.00  0.00    +0.000 NA
BRANCH  22  25
ATOM     25  C   UNL     1      -2.026  12.299  21.376  0.00  0.00    +0.000 A 
ATOM     26  C   UNL     1      -2.847  13.197  20.732  0.00  0.00    +0.000 A 
ATOM     27  C   UNL     1      -3.871  13.717  21.486  0.00  0.00    +0.000 A 
ATOM     28  N   UNL     1      -4.086  13.390  22.772  0.00  0.00    +0.000 NA
ATOM     29  C   UNL     1      -3.232  12.504  23.302  0.00  0.00    +0.000 A 
ATOM     30  N   UNL     1      -2.201  11.929  22.666  0.00  0.00    +0.000 NA
ENDBRANCH  22  25
ENDBRANCH   4  20
TORSDOF 5
ENDMDL
MODEL 4
REMARK VINA RESULT:      -8.4      2.593      3.397
REMARK  Name = 
REMARK  6 active torsions:
REMARK  status: ('A' for Active; 'I' for Inactive)
REMARK    1  A    between atoms: C_1  and  C_2
REMARK    2  A    between atoms: N_4  and  C_5
REMARK    3  A    between atoms: C_5  and  C_6
REMARK    4  A    between atoms: N_8  and  C_9
REMARK    5  A    between atoms: C_12  and  N_13
REMARK    6  A    between atoms: C_15  and  C_16
REMARK                            x       y       z     vdW  Elec       q    Type
REMARK                         _______ _______ _______ _____ _____    ______ ____
ROOT
ATOM      1  C   UNL     1       3.349   6.940  18.758  0.00  0.00    +0.000 A 
ATOM      2  C   UNL     1       3.106   7.815  17.689  0.00  0.00    +0.000 A 
ATOM      3  C   UNL     1       2.064   8.750  17.735  0.00  0.00    +0.000 A 
ATOM      4  C   UNL     1       1.279   8.859  18.884  0.00  0.00    +0.000 A 
ATOM      5  C   UNL     1       1.510   7.991  19.948  0.00  0.00    +0.000 A 
ATOM      6  F   UNL     1       0.749   8.017  21.052  0.00  0.00    +0.000 F 
ATOM      7  C   UNL     1       2.515   7.024  19.878  0.00  0.00    +0.000 A 
ENDROOT
BRANCH   1  10
ATOM      8  C   UNL     1       6.490   5.043  18.483  0.00  0.00    +0.000 C 
ATOM      9  C   UNL     1       5.634   6.202  18.014  0.00  0.00    +0.000 C 
ATOM     10  N   UNL     1       4.398   5.989  18.708  0.00  0.00    +0.000 N 
ATOM     11  C   UNL     1       4.344   4.673  19.145  0.00  0.00    +0.000 C 
ATOM     12  O   UNL     1       3.406   4.072  19.647  0.00  0.00    +0.000 OA
ATOM     13  O   UNL     1       5.536   4.045  18.881  0.00  0.00    +0.000 OA
BRANCH   8  14
ATOM     14  C   UNL     1       7.385   4.498  17.370  0.00  0.00    +0.000 C 
BRANCH  14  18
ATOM     15  C   UNL     1       6.027   3.867  13.890  0.00  0.00    +0.000 C 
ATOM     16  C   UNL     1       6.852   4.529  14.959  0.00  0.00    +0.000 C 
ATOM     17  O   UNL     1       7.649   5.432  14.726  0.00  0.00    +0.000 OA
ATOM     18  N   UNL     1       6.636   4.023  16.220  0.00  0.00    +0.000 N 
ATOM     19  H   UNL     1       6.047   3.205  16.330  0.00  0.00    +0.000 HD
ENDBRANCH  14  18
ENDBRANCH   8  14
ENDBRANCH   1  10
BRANCH   4  20
ATOM     20  N   UNL     1       0.292   9.861  18.963  0.00  0.00    +0.000 N 
ATOM     21  C   UNL     1      -0.864   9.977  18.237  0.00  0.00    +0.000 A 
ATOM     22  C   UNL     1      -1.510  11.065  18.775  0.00  0.00    +0.000 A 
ATOM     23  N   UNL     1      -0.727  11.614  19.752  0.00  0.00    +0.000 NA
ATOM     24  N   UNL     1       0.350  10.853  19.888  0.00  0.00    +0.000 NA
BRANCH  22  25
ATOM     25  C   UNL     1      -2.845  11.516  18.429  0.00  0.00    +0.000 A 
ATOM     26  C   UNL     1      -3.648  12.116  19.373  0.00  0.00    +0.000 A 
ATOM     27  C   UNL     1      -4.917  12.440  18.959  0.00  0.00    +0.000 A 
ATOM     28  N   UNL     1      -5.376  12.200  17.718  0.00  0.00    +0.000 NA
ATOM     29  C   UNL     1      -4.512  11.617  16.876  0.00  0.00    +0.000 A 
ATOM     30  N   UNL     1      -3.253  11.259  17.165  0.00  0.00    +0.000 NA
ENDBRANCH  22  25
ENDBRANCH   4  20
TORSDOF 5
ENDMDL
MODEL 5
REMARK VINA RESULT:      -8.4      1.420      1.709
REMARK  Name = 
REMARK  6 active torsions:
REMARK  status: ('A' for Active; 'I' for Inactive)
REMARK    1  A    between atoms: C_1  and  C_2
REMARK    2  A    between atoms: N_4  and  C_5
REMARK    3  A    between atoms: C_5  and  C_6
REMARK    4  A    between atoms: N_8  and  C_9
REMARK    5  A    between atoms: C_12  and  N_13
REMARK    6  A    between atoms: C_15  and  C_16
REMARK                            x       y       z     vdW  Elec       q    Type
REMARK                         _______ _______ _______ _____ _____    ______ ____
ROOT
ATOM      1  C   UNL     1       2.834   6.948  18.780  0.00  0.00    +0.000 A 
ATOM      2  C   UNL     1       2.276   7.000  20.067  0.00  0.00    +0.000 A 
ATOM      3  C   UNL     1       1.548   8.115  20.500  0.00  0.00    +0.000 A 
ATOM      4  C   UNL     1       1.321   9.180  19.627  0.00  0.00    +0.000 A 
ATOM      5  C   UNL     1       1.877   9.139  18.351  0.00  0.00    +0.000 A 
ATOM      6  F   UNL     1       1.736  10.160  17.493  0.00  0.00    +0.000 F 
ATOM      7  C   UNL     1       2.647   8.050  17.939  0.00  0.00    +0.000 A 
ENDROOT
BRANCH   1  10
ATOM      8  C   UNL     1       5.302   4.324  18.032  0.00  0.00    +0.000 C 
ATOM      9  C   UNL     1       5.009   5.789  18.288  0.00  0.00    +0.000 C 
ATOM     10  N   UNL     1       3.578   5.823  18.345  0.00  0.00    +0.000 N 
ATOM     11  C   UNL     1       3.072   4.676  17.752  0.00  0.00    +0.000 C 
ATOM     12  O   UNL     1       1.912   4.402  17.481  0.00  0.00    +0.000 OA
ATOM     13  O   UNL     1       4.101   3.832  17.418  0.00  0.00    +0.000 OA
BRANCH   8  14
ATOM     14  C   UNL     1       6.491   4.129  17.090  0.00  0.00    +0.000 C 
BRANCH  14  18
ATOM     15  C   UNL     1       6.138   3.765  13.336  0.00  0.00    +0.000 C 
ATOM     16  C   UNL     1       6.624   4.349  14.635  0.00  0.00    +0.000 C 
ATOM     17  O   UNL     1       7.423   5.277  14.693  0.00  0.00    +0.000 OA
ATOM     18  N   UNL     1       6.094   3.740  15.748  0.00  0.00    +0.000 N 
ATOM     19  H   UNL     1       5.525   2.908  15.634  0.00  0.00    +0.000 HD
ENDBRANCH  14  18
ENDBRANCH   8  14
ENDBRANCH   1  10
BRANCH   4  20
ATOM     20  N   UNL     1       0.512  10.258  20.036  0.00  0.00    +0.000 N 
ATOM     21  C   UNL     1      -0.709  10.219  20.656  0.00  0.00    +0.000 A 
ATOM     22  C   UNL     1      -1.010  11.534  20.923  0.00  0.00    +0.000 A 
ATOM     23  N   UNL     1      -0.021  12.333  20.418  0.00  0.00    +0.000 NA
ATOM     24  N   UNL     1       0.921  11.546  19.914  0.00  0.00    +0.000 NA
BRANCH  22  25
ATOM     25  C   UNL     1      -2.146  12.006  21.691  0.00  0.00    +0.000 A 
ATOM     26  C   UNL     1      -2.189  11.833  23.057  0.00  0.00    +0.000 A 
ATOM     27  C   UNL     1      -3.341  12.252  23.676  0.00  0.00    +0.000 A 
ATOM     28  N   UNL     1      -4.379  12.801  23.020  0.00  0.00    +0.000 NA
ATOM     29  C   UNL     1      -4.232  12.928  21.694  0.00  0.00    +0.000 A 
ATOM     30  N   UNL     1      -3.157  12.559  20.983  0.00  0.00    +0.000 NA
ENDBRANCH  22  25
ENDBRANCH   4  20
TORSDOF 5
ENDMDL
MODEL 6
REMARK VINA RESULT:      -8.4      1.994      2.480
REMARK  Name = 
REMARK  6 active torsions:
REMARK  status: ('A' for Active; 'I' for Inactive)
REMARK    1  A    between atoms: C_1  and  C_2
REMARK    2  A    between atoms: N_4  and  C_5
REMARK    3  A    between atoms: C_5  and  C_6
REMARK    4  A    between atoms: N_8  and  C_9
REMARK    5  A    between atoms: C_12  and  N_13
REMARK    6  A    between atoms: C_15  and  C_16
REMARK                            x       y       z     vdW  Elec       q    Type
REMARK                         _______ _______ _______ _____ _____    ______ ____
ROOT
ATOM      1  C   UNL     1       2.637   7.085  18.800  0.00  0.00    +0.000 A 
ATOM      2  C   UNL     1       2.347   8.090  17.863  0.00  0.00    +0.000 A 
ATOM      3  C   UNL     1       1.562   9.198  18.204  0.00  0.00    +0.000 A 
ATOM      4  C   UNL     1       1.096   9.345  19.512  0.00  0.00    +0.000 A 
ATOM      5  C   UNL     1       1.373   8.349  20.445  0.00  0.00    +0.000 A 
ATOM      6  F   UNL     1       0.903   8.414  21.699  0.00  0.00    +0.000 F 
ATOM      7  C   UNL     1       2.111   7.219  20.089  0.00  0.00    +0.000 A 
ENDROOT
BRANCH   1  10
ATOM      8  C   UNL     1       5.198   4.496  18.277  0.00  0.00    +0.000 C 
ATOM      9  C   UNL     1       4.856   5.964  18.438  0.00  0.00    +0.000 C 
ATOM     10  N   UNL     1       3.424   5.960  18.452  0.00  0.00    +0.000 N 
ATOM     11  C   UNL     1       2.968   4.765  17.913  0.00  0.00    +0.000 C 
ATOM     12  O   UNL     1       1.825   4.442  17.626  0.00  0.00    +0.000 OA
ATOM     13  O   UNL     1       4.030   3.934  17.659  0.00  0.00    +0.000 OA
BRANCH   8  14
ATOM     14  C   UNL     1       6.419   4.282  17.382  0.00  0.00    +0.000 C 
BRANCH  14  18
ATOM     15  C   UNL     1       6.203   3.856  13.625  0.00  0.00    +0.000 C 
ATOM     16  C   UNL     1       6.643   4.460  14.930  0.00  0.00    +0.000 C 
ATOM     17  O   UNL     1       7.444   5.386  15.003  0.00  0.00    +0.000 OA
ATOM     18  N   UNL     1       6.070   3.872  16.034  0.00  0.00    +0.000 N 
ATOM     19  H   UNL     1       5.503   3.040  15.912  0.00  0.00    +0.000 HD
ENDBRANCH  14  18
ENDBRANCH   8  14
ENDBRANCH   1  10
BRANCH   4  20
ATOM     20  N   UNL     1       0.384  10.505  19.874  0.00  0.00    +0.000 N 
ATOM     21  C   UNL     1      -0.901  10.851  19.551  0.00  0.00    +0.000 A 
ATOM     22  C   UNL     1      -1.134  12.020  20.237  0.00  0.00    +0.000 A 
ATOM     23  N   UNL     1       0.005  12.387  20.899  0.00  0.00    +0.000 NA
ATOM     24  N   UNL     1       0.913  11.439  20.705  0.00  0.00    +0.000 NA
BRANCH  22  25
ATOM     25  C   UNL     1      -2.405  12.715  20.323  0.00  0.00    +0.000 A 
ATOM     26  C   UNL     1      -2.529  13.855  21.084  0.00  0.00    +0.000 A 
ATOM     27  C   UNL     1      -3.791  14.393  21.153  0.00  0.00    +0.000 A 
ATOM     28  N   UNL     1      -4.858  13.865  20.527  0.00  0.00    +0.000 NA
ATOM     29  C   UNL     1      -4.626  12.758  19.808  0.00  0.00    +0.000 A 
ATOM     30  N   UNL     1      -3.442  12.147  19.666  0.00  0.00    +0.000 NA
ENDBRANCH  22  25
ENDBRANCH   4  20
TORSDOF 5
ENDMDL
MODEL 7
REMARK VINA RESULT:      -8.3      1.847      2.342
REMARK  Name = 
REMARK  6 active torsions:
REMARK  status: ('A' for Active; 'I' for Inactive)
REMARK    1  A    between atoms: C_1  and  C_2
REMARK    2  A    between atoms: N_4  and  C_5
REMARK    3  A    between atoms: C_5  and  C_6
REMARK    4  A    between atoms: N_8  and  C_9
REMARK    5  A    between atoms: C_12  and  N_13
REMARK    6  A    between atoms: C_15  and  C_16
REMARK                            x       y       z     vdW  Elec       q    Type
REMARK                         _______ _______ _______ _____ _____    ______ ____
ROOT
ATOM      1  C   UNL     1       2.818   6.976  18.802  0.00  0.00    +0.000 A 
ATOM      2  C   UNL     1       2.201   7.042  20.061  0.00  0.00    +0.000 A 
ATOM      3  C   UNL     1       1.429   8.148  20.435  0.00  0.00    +0.000 A 
ATOM      4  C   UNL     1       1.216   9.188  19.528  0.00  0.00    +0.000 A 
ATOM      5  C   UNL     1       1.830   9.132  18.279  0.00  0.00    +0.000 A 
ATOM      6  F   UNL     1       1.703  10.130  17.391  0.00  0.00    +0.000 F 
ATOM      7  C   UNL     1       2.643   8.054  17.928  0.00  0.00    +0.000 A 
ENDROOT
BRANCH   1  10
ATOM      8  C   UNL     1       5.389   4.415  18.195  0.00  0.00    +0.000 C 
ATOM      9  C   UNL     1       5.038   5.879  18.374  0.00  0.00    +0.000 C 
ATOM     10  N   UNL     1       3.607   5.860  18.426  0.00  0.00    +0.000 N 
ATOM     11  C   UNL     1       3.148   4.664  17.892  0.00  0.00    +0.000 C 
ATOM     12  O   UNL     1       2.001   4.332  17.634  0.00  0.00    +0.000 OA
ATOM     13  O   UNL     1       4.211   3.845  17.604  0.00  0.00    +0.000 OA
BRANCH   8  14
ATOM     14  C   UNL     1       6.588   4.218  17.266  0.00  0.00    +0.000 C 
BRANCH  14  18
ATOM     15  C   UNL     1       6.238   3.829  13.514  0.00  0.00    +0.000 C 
ATOM     16  C   UNL     1       6.696   4.441  14.810  0.00  0.00    +0.000 C 
ATOM     17  O   UNL     1       7.442   5.414  14.863  0.00  0.00    +0.000 OA
ATOM     18  N   UNL     1       6.208   3.805  15.927  0.00  0.00    +0.000 N 
ATOM     19  H   UNL     1       5.687   2.942  15.816  0.00  0.00    +0.000 HD
ENDBRANCH  14  18
ENDBRANCH   8  14
ENDBRANCH   1  10
BRANCH   4  20
ATOM     20  N   UNL     1       0.364  10.255  19.874  0.00  0.00    +0.000 N 
ATOM     21  C   UNL     1      -0.855  10.580  19.339  0.00  0.00    +0.000 A 
ATOM     22  C   UNL     1      -1.302  11.634  20.100  0.00  0.00    +0.000 A 
ATOM     23  N   UNL     1      -0.346  11.963  21.020  0.00  0.00    +0.000 NA
ATOM     24  N   UNL     1       0.650  11.094  20.902  0.00  0.00    +0.000 NA
BRANCH  22  25
ATOM     25  C   UNL     1      -2.612  12.251  20.008  0.00  0.00    +0.000 A 
ATOM     26  C   UNL     1      -2.978  13.250  20.882  0.00  0.00    +0.000 A 
ATOM     27  C   UNL     1      -4.264  13.715  20.752  0.00  0.00    +0.000 A 
ATOM     28  N   UNL     1      -5.135  13.247  19.839  0.00  0.00    +0.000 NA
ATOM     29  C   UNL     1      -4.675  12.279  19.035  0.00  0.00    +0.000 A 
ATOM     30  N   UNL     1      -3.444  11.750  19.066  0.00  0.00    +0.000 NA
ENDBRANCH  22  25
ENDBRANCH   4  20
TORSDOF 5
ENDMDL
MODEL 8
REMARK VINA RESULT:      -8.2      1.339      1.670
REMARK  Name = 
REMARK  6 active torsions:
REMARK  status: ('A' for Active; 'I' for Inactive)
REMARK    1  A    between atoms: C_1  and  C_2
REMARK    2  A    between atoms: N_4  and  C_5
REMARK    3  A    between atoms: C_5  and  C_6
REMARK    4  A    between atoms: N_8  and  C_9
REMARK    5  A    between atoms: C_12  and  N_13
REMARK    6  A    between atoms: C_15  and  C_16
REMARK                            x       y       z     vdW  Elec       q    Type
REMARK                         _______ _______ _______ _____ _____    ______ ____
ROOT
ATOM      1  C   UNL     1       2.638   7.018  18.875  0.00  0.00    +0.000 A 
ATOM      2  C   UNL     1       2.318   8.056  17.986  0.00  0.00    +0.000 A 
ATOM      3  C   UNL     1       1.546   9.151  18.392  0.00  0.00    +0.000 A 
ATOM      4  C   UNL     1       1.126   9.252  19.720  0.00  0.00    +0.000 A 
ATOM      5  C   UNL     1       1.433   8.224  20.607  0.00  0.00    +0.000 A 
ATOM      6  F   UNL     1       1.006   8.244  21.878  0.00  0.00    +0.000 F 
ATOM      7  C   UNL     1       2.157   7.107  20.186  0.00  0.00    +0.000 A 
ENDROOT
BRANCH   1  10
ATOM      8  C   UNL     1       5.164   4.429  18.206  0.00  0.00    +0.000 C 
ATOM      9  C   UNL     1       4.843   5.889  18.459  0.00  0.00    +0.000 C 
ATOM     10  N   UNL     1       3.411   5.905  18.462  0.00  0.00    +0.000 N 
ATOM     11  C   UNL     1       2.942   4.756  17.842  0.00  0.00    +0.000 C 
ATOM     12  O   UNL     1       1.797   4.470  17.526  0.00  0.00    +0.000 OA
ATOM     13  O   UNL     1       3.994   3.926  17.543  0.00  0.00    +0.000 OA
BRANCH   8  14
ATOM     14  C   UNL     1       6.390   4.254  17.309  0.00  0.00    +0.000 C 
BRANCH  14  18
ATOM     15  C   UNL     1       6.206   3.809  13.551  0.00  0.00    +0.000 C 
ATOM     16  C   UNL     1       6.637   4.417  14.858  0.00  0.00    +0.000 C 
ATOM     17  O   UNL     1       7.441   5.340  14.932  0.00  0.00    +0.000 OA
ATOM     18  N   UNL     1       6.052   3.838  15.959  0.00  0.00    +0.000 N 
ATOM     19  H   UNL     1       5.481   3.008  15.837  0.00  0.00    +0.000 HD
ENDBRANCH  14  18
ENDBRANCH   8  14
ENDBRANCH   1  10
BRANCH   4  20
ATOM     20  N   UNL     1       0.428  10.399  20.147  0.00  0.00    +0.000 N 
ATOM     21  C   UNL     1      -0.293  10.577  21.298  0.00  0.00    +0.000 A 
ATOM     22  C   UNL     1      -0.676  11.898  21.271  0.00  0.00    +0.000 A 
ATOM     23  N   UNL     1      -0.244  12.468  20.106  0.00  0.00    +0.000 NA
ATOM     24  N   UNL     1       0.461  11.559  19.444  0.00  0.00    +0.000 NA
BRANCH  22  25
ATOM     25  C   UNL     1      -1.354  12.606  22.340  0.00  0.00    +0.000 A 
ATOM     26  C   UNL     1      -2.617  12.230  22.739  0.00  0.00    +0.000 A 
ATOM     27  C   UNL     1      -3.195  13.012  23.709  0.00  0.00    +0.000 A 
ATOM     28  N   UNL     1      -2.592  14.082  24.256  0.00  0.00    +0.000 NA
ATOM     29  C   UNL     1      -1.362  14.358  23.801  0.00  0.00    +0.000 A 
ATOM     30  N   UNL     1      -0.698  13.668  22.863  0.00  0.00    +0.000 NA
ENDBRANCH  22  25
ENDBRANCH   4  20
TORSDOF 5
ENDMDL
MODEL 9
REMARK VINA RESULT:      -8.2      1.738      1.999
REMARK  Name = 
REMARK  6 active torsions:
REMARK  status: ('A' for Active; 'I' for Inactive)
REMARK    1  A    between atoms: C_1  and  C_2
REMARK    2  A    between atoms: N_4  and  C_5
REMARK    3  A    between atoms: C_5  and  C_6
REMARK    4  A    between atoms: N_8  and  C_9
REMARK    5  A    between atoms: C_12  and  N_13
REMARK    6  A    between atoms: C_15  and  C_16
REMARK                            x       y       z     vdW  Elec       q    Type
REMARK                         _______ _______ _______ _____ _____    ______ ____
ROOT
ATOM      1  C   UNL     1       2.674   6.986  18.928  0.00  0.00    +0.000 A 
ATOM      2  C   UNL     1       2.165   6.962  20.236  0.00  0.00    +0.000 A 
ATOM      3  C   UNL     1       1.474   8.058  20.767  0.00  0.00    +0.000 A 
ATOM      4  C   UNL     1       1.234   9.181  19.973  0.00  0.00    +0.000 A 
ATOM      5  C   UNL     1       1.741   9.214  18.677  0.00  0.00    +0.000 A 
ATOM      6  F   UNL     1       1.586  10.291  17.892  0.00  0.00    +0.000 F 
ATOM      7  C   UNL     1       2.476   8.143  18.167  0.00  0.00    +0.000 A 
ENDROOT
BRANCH   1  10
ATOM      8  C   UNL     1       5.059   4.366  17.936  0.00  0.00    +0.000 C 
ATOM      9  C   UNL     1       4.810   5.813  18.311  0.00  0.00    +0.000 C 
ATOM     10  N   UNL     1       3.381   5.880  18.393  0.00  0.00    +0.000 N 
ATOM     11  C   UNL     1       2.836   4.797  17.719  0.00  0.00    +0.000 C 
ATOM     12  O   UNL     1       1.665   4.576  17.446  0.00  0.00    +0.000 OA
ATOM     13  O   UNL     1       3.837   3.956  17.303  0.00  0.00    +0.000 OA
BRANCH   8  14
ATOM     14  C   UNL     1       6.229   4.215  16.963  0.00  0.00    +0.000 C 
BRANCH  14  18
ATOM     15  C   UNL     1       5.908   3.767  13.215  0.00  0.00    +0.000 C 
ATOM     16  C   UNL     1       6.443   4.324  14.506  0.00  0.00    +0.000 C 
ATOM     17  O   UNL     1       7.363   5.134  14.554  0.00  0.00    +0.000 OA
ATOM     18  N   UNL     1       5.810   3.836  15.625  0.00  0.00    +0.000 N 
ATOM     19  H   UNL     1       5.133   3.088  15.524  0.00  0.00    +0.000 HD
ENDBRANCH  14  18
ENDBRANCH   8  14
ENDBRANCH   1  10
BRANCH   4  20
ATOM     20  N   UNL     1       0.460  10.243  20.481  0.00  0.00    +0.000 N 
ATOM     21  C   UNL     1      -0.824  10.592  20.155  0.00  0.00    +0.000 A 
ATOM     22  C   UNL     1      -1.134  11.626  21.006  0.00  0.00    +0.000 A 
ATOM     23  N   UNL     1      -0.041  11.921  21.773  0.00  0.00    +0.000 NA
ATOM     24  N   UNL     1       0.913  11.048  21.474  0.00  0.00    +0.000 NA
BRANCH  22  25
ATOM     25  C   UNL     1      -2.435  12.255  21.140  0.00  0.00    +0.000 A 
ATOM     26  C   UNL     1      -3.223  12.475  20.033  0.00  0.00    +0.000 A 
ATOM     27  C   UNL     1      -4.403  13.141  20.263  0.00  0.00    +0.000 A 
ATOM     28  N   UNL     1      -4.793  13.562  21.479  0.00  0.00    +0.000 NA
ATOM     29  C   UNL     1      -3.954  13.292  22.489  0.00  0.00    +0.000 A 
ATOM     30  N   UNL     1      -2.782  12.650  22.386  0.00  0.00    +0.000 NA
ENDBRANCH  22  25
ENDBRANCH   4  20
TORSDOF 5
ENDMDL
