MODEL 1
REMARK VINA RESULT:      -7.5      0.000      0.000
REMARK  Name = 
REMARK  7 active torsions:
REMARK  status: ('A' for Active; 'I' for Inactive)
REMARK    1  A    between atoms: C_2  and  C_3
REMARK    2  A    between atoms: C_3  and  O_4
REMARK    3  A    between atoms: O_4  and  C_5
REMARK    4  A    between atoms: C_5  and  C_7
REMARK    5  A    between atoms: C_7  and  O_8
REMARK    6  A    between atoms: O_8  and  C_9
REMARK    7  A    between atoms: N_15  and  C_16
REMARK                            x       y       z     vdW  Elec       q    Type
REMARK                         _______ _______ _______ _____ _____    ______ ____
ROOT
ATOM      1  O   UNL     1       7.467   4.505  16.000  0.00  0.00    +0.000 OA
ATOM      2  C   UNL     1       6.934   4.482  17.114  0.00  0.00    +0.000 C 
ATOM      3  N   UNL     1       5.714   3.887  17.223  0.00  0.00    +0.000 N 
ATOM      4  H   UNL     1       5.431   3.392  16.385  0.00  0.00    +0.000 HD
ENDROOT
BRANCH   3   5
ATOM      5  C   UNL     1       4.844   3.840  18.315  0.00  0.00    +0.000 A 
ATOM      6  N   UNL     1       4.885   2.785  19.156  0.00  0.00    +0.000 NA
ATOM      7  C   UNL     1       3.979   2.744  20.161  0.00  0.00    +0.000 A 
ATOM      8  C   UNL     1       3.032   3.728  20.384  0.00  0.00    +0.000 A 
ATOM      9 CL   UNL     1       1.889   3.579  21.652  0.00  0.00    +0.000 Cl
ATOM     10  C   UNL     1       3.024   4.836  19.548  0.00  0.00    +0.000 A 
ATOM     11  C   UNL     1       3.950   4.902  18.509  0.00  0.00    +0.000 A 
ATOM     12 CL   UNL     1       3.926   6.279  17.465  0.00  0.00    +0.000 Cl
ENDBRANCH   3   5
BRANCH   2  13
ATOM     13  C   UNL     1       7.615   5.131  18.318  0.00  0.00    +0.000 C 
BRANCH  13  14
ATOM     14  O   UNL     1       7.178   6.428  18.709  0.00  0.00    +0.000 OA
BRANCH  14  15
ATOM     15  C   UNL     1       7.478   7.432  17.853  0.00  0.00    +0.000 C 
ATOM     16  O   UNL     1       6.906   7.658  16.797  0.00  0.00    +0.000 OA
BRANCH  15  17
ATOM     17  C   UNL     1       8.525   8.342  18.483  0.00  0.00    +0.000 C 
BRANCH  17  18
ATOM     18  O   UNL     1       8.425   9.691  18.070  0.00  0.00    +0.000 OA
BRANCH  18  19
ATOM     19  C   UNL     1       9.366  10.533  18.610  0.00  0.00    +0.000 A 
ATOM     20  C   UNL     1       9.285  10.708  19.990  0.00  0.00    +0.000 A 
ATOM     21  C   UNL     1      10.183  11.550  20.654  0.00  0.00    +0.000 A 
ATOM     22  C   UNL     1      11.178  12.212  19.934  0.00  0.00    +0.000 A 
ATOM     23  C   UNL     1      11.276  12.024  18.559  0.00  0.00    +0.000 A 
ATOM     24  C   UNL     1      10.376  11.186  17.899  0.00  0.00    +0.000 A 
ENDBRANCH  18  19
ENDBRANCH  17  18
ENDBRANCH  15  17
ENDBRANCH  14  15
ENDBRANCH  13  14
ENDBRANCH   2  13
TORSDOF 7
ENDMDL
MODEL 2
REMARK VINA RESULT:      -7.4      1.335      1.570
REMARK  Name = 
REMARK  7 active torsions:
REMARK  status: ('A' for Active; 'I' for Inactive)
REMARK    1  A    between atoms: C_2  and  C_3
REMARK    2  A    between atoms: C_3  and  O_4
REMARK    3  A    between atoms: O_4  and  C_5
REMARK    4  A    between atoms: C_5  and  C_7
REMARK    5  A    between atoms: C_7  and  O_8
REMARK    6  A    between atoms: O_8  and  C_9
REMARK    7  A    between atoms: N_15  and  C_16
REMARK                            x       y       z     vdW  Elec       q    Type
REMARK                         _______ _______ _______ _____ _____    ______ ____
ROOT
ATOM      1  O   UNL     1       5.308   6.528  15.223  0.00  0.00    +0.000 OA
ATOM      2  C   UNL     1       5.211   6.137  16.390  0.00  0.00    +0.000 C 
ATOM      3  N   UNL     1       4.281   5.180  16.666  0.00  0.00    +0.000 N 
ATOM      4  H   UNL     1       3.854   4.784  15.836  0.00  0.00    +0.000 HD
ENDROOT
BRANCH   3   5
ATOM      5  C   UNL     1       3.877   4.665  17.899  0.00  0.00    +0.000 A 
ATOM      6  N   UNL     1       4.382   3.490  18.330  0.00  0.00    +0.000 NA
ATOM      7  C   UNL     1       3.913   2.991  19.498  0.00  0.00    +0.000 A 
ATOM      8  C   UNL     1       2.962   3.626  20.279  0.00  0.00    +0.000 A 
ATOM      9 CL   UNL     1       2.385   2.906  21.723  0.00  0.00    +0.000 Cl
ATOM     10  C   UNL     1       2.481   4.858  19.859  0.00  0.00    +0.000 A 
ATOM     11  C   UNL     1       2.953   5.393  18.662  0.00  0.00    +0.000 A 
ATOM     12 CL   UNL     1       2.339   6.922  18.139  0.00  0.00    +0.000 Cl
ENDBRANCH   3   5
BRANCH   2  13
ATOM     13  C   UNL     1       6.089   6.734  17.489  0.00  0.00    +0.000 C 
BRANCH  13  14
ATOM     14  O   UNL     1       7.023   7.742  17.119  0.00  0.00    +0.000 OA
BRANCH  14  15
ATOM     15  C   UNL     1       7.962   8.041  18.046  0.00  0.00    +0.000 C 
ATOM     16  O   UNL     1       8.478   7.245  18.817  0.00  0.00    +0.000 OA
BRANCH  15  17
ATOM     17  C   UNL     1       8.406   9.489  17.871  0.00  0.00    +0.000 C 
BRANCH  17  18
ATOM     18  O   UNL     1       8.782  10.116  19.082  0.00  0.00    +0.000 OA
BRANCH  18  19
ATOM     19  C   UNL     1       9.880  10.935  18.992  0.00  0.00    +0.000 A 
ATOM     20  C   UNL     1      10.444  11.310  20.211  0.00  0.00    +0.000 A 
ATOM     21  C   UNL     1      11.560  12.151  20.249  0.00  0.00    +0.000 A 
ATOM     22  C   UNL     1      12.125  12.612  19.059  0.00  0.00    +0.000 A 
ATOM     23  C   UNL     1      11.578  12.225  17.840  0.00  0.00    +0.000 A 
ATOM     24  C   UNL     1      10.462  11.388  17.806  0.00  0.00    +0.000 A 
ENDBRANCH  18  19
ENDBRANCH  17  18
ENDBRANCH  15  17
ENDBRANCH  14  15
ENDBRANCH  13  14
ENDBRANCH   2  13
TORSDOF 7
ENDMDL
MODEL 3
REMARK VINA RESULT:      -7.4      4.354      6.303
REMARK  Name = 
REMARK  7 active torsions:
REMARK  status: ('A' for Active; 'I' for Inactive)
REMARK    1  A    between atoms: C_2  and  C_3
REMARK    2  A    between atoms: C_3  and  O_4
REMARK    3  A    between atoms: O_4  and  C_5
REMARK    4  A    between atoms: C_5  and  C_7
REMARK    5  A    between atoms: C_7  and  O_8
REMARK    6  A    between atoms: O_8  and  C_9
REMARK    7  A    between atoms: N_15  and  C_16
REMARK                            x       y       z     vdW  Elec       q    Type
REMARK                         _______ _______ _______ _____ _____    ______ ____
ROOT
ATOM      1  O   UNL     1       4.036   3.083  17.306  0.00  0.00    +0.000 OA
ATOM      2  C   UNL     1       3.931   4.102  17.995  0.00  0.00    +0.000 C 
ATOM      3  N   UNL     1       2.677   4.542  18.294  0.00  0.00    +0.000 N 
ATOM      4  H   UNL     1       1.948   3.891  18.028  0.00  0.00    +0.000 HD
ENDROOT
BRANCH   3   5
ATOM      5  C   UNL     1       2.278   5.719  18.931  0.00  0.00    +0.000 A 
ATOM      6  N   UNL     1       2.343   6.893  18.267  0.00  0.00    +0.000 NA
ATOM      7  C   UNL     1       2.014   8.019  18.942  0.00  0.00    +0.000 A 
ATOM      8  C   UNL     1       1.598   8.031  20.262  0.00  0.00    +0.000 A 
ATOM      9 CL   UNL     1       1.243   9.506  21.060  0.00  0.00    +0.000 Cl
ATOM     10  C   UNL     1       1.484   6.819  20.927  0.00  0.00    +0.000 A 
ATOM     11  C   UNL     1       1.813   5.646  20.252  0.00  0.00    +0.000 A 
ATOM     12 CL   UNL     1       1.681   4.141  21.091  0.00  0.00    +0.000 Cl
ENDBRANCH   3   5
BRANCH   2  13
ATOM     13  C   UNL     1       5.173   4.856  18.467  0.00  0.00    +0.000 C 
BRANCH  13  14
ATOM     14  O   UNL     1       6.399   4.137  18.542  0.00  0.00    +0.000 OA
BRANCH  14  15
ATOM     15  C   UNL     1       7.385   4.569  17.722  0.00  0.00    +0.000 C 
ATOM     16  O   UNL     1       8.518   4.113  17.672  0.00  0.00    +0.000 OA
BRANCH  15  17
ATOM     17  C   UNL     1       6.823   5.599  16.750  0.00  0.00    +0.000 C 
BRANCH  17  18
ATOM     18  O   UNL     1       7.534   5.674  15.530  0.00  0.00    +0.000 OA
BRANCH  18  19
ATOM     19  C   UNL     1       6.984   4.958  14.495  0.00  0.00    +0.000 A 
ATOM     20  C   UNL     1       7.732   4.941  13.319  0.00  0.00    +0.000 A 
ATOM     21  C   UNL     1       7.271   4.254  12.193  0.00  0.00    +0.000 A 
ATOM     22  C   UNL     1       6.058   3.568  12.245  0.00  0.00    +0.000 A 
ATOM     23  C   UNL     1       5.316   3.564  13.422  0.00  0.00    +0.000 A 
ATOM     24  C   UNL     1       5.778   4.254  14.544  0.00  0.00    +0.000 A 
ENDBRANCH  18  19
ENDBRANCH  17  18
ENDBRANCH  15  17
ENDBRANCH  14  15
ENDBRANCH  13  14
ENDBRANCH   2  13
TORSDOF 7
ENDMDL
MODEL 4
REMARK VINA RESULT:      -7.4      4.368      6.139
REMARK  Name = 
REMARK  7 active torsions:
REMARK  status: ('A' for Active; 'I' for Inactive)
REMARK    1  A    between atoms: C_2  and  C_3
REMARK    2  A    between atoms: C_3  and  O_4
REMARK    3  A    between atoms: O_4  and  C_5
REMARK    4  A    between atoms: C_5  and  C_7
REMARK    5  A    between atoms: C_7  and  O_8
REMARK    6  A    between atoms: O_8  and  C_9
REMARK    7  A    between atoms: N_15  and  C_16
REMARK                            x       y       z     vdW  Elec       q    Type
REMARK                         _______ _______ _______ _____ _____    ______ ____
ROOT
ATOM      1  O   UNL     1       4.401   2.782  17.210  0.00  0.00    +0.000 OA
ATOM      2  C   UNL     1       4.190   3.665  18.047  0.00  0.00    +0.000 C 
ATOM      3  N   UNL     1       2.977   4.286  18.026  0.00  0.00    +0.000 N 
ATOM      4  H   UNL     1       2.312   3.848  17.398  0.00  0.00    +0.000 HD
ENDROOT
BRANCH   3   5
ATOM      5  C   UNL     1       2.532   5.389  18.757  0.00  0.00    +0.000 A 
ATOM      6  N   UNL     1       2.693   6.632  18.256  0.00  0.00    +0.000 NA
ATOM      7  C   UNL     1       2.311   7.678  19.026  0.00  0.00    +0.000 A 
ATOM      8  C   UNL     1       1.751   7.542  20.284  0.00  0.00    +0.000 A 
ATOM      9 CL   UNL     1       1.337   8.919  21.217  0.00  0.00    +0.000 Cl
ATOM     10  C   UNL     1       1.540   6.262  20.777  0.00  0.00    +0.000 A 
ATOM     11  C   UNL     1       1.921   5.170  20.000  0.00  0.00    +0.000 A 
ATOM     12 CL   UNL     1       1.667   3.579  20.626  0.00  0.00    +0.000 Cl
ENDBRANCH   3   5
BRANCH   2  13
ATOM     13  C   UNL     1       5.271   4.064  19.050  0.00  0.00    +0.000 C 
BRANCH  13  14
ATOM     14  O   UNL     1       6.084   5.190  18.739  0.00  0.00    +0.000 OA
BRANCH  14  15
ATOM     15  C   UNL     1       6.976   5.012  17.738  0.00  0.00    +0.000 C 
ATOM     16  O   UNL     1       7.992   4.335  17.805  0.00  0.00    +0.000 OA
BRANCH  15  17
ATOM     17  C   UNL     1       6.439   5.643  16.459  0.00  0.00    +0.000 C 
BRANCH  17  18
ATOM     18  O   UNL     1       7.392   5.706  15.416  0.00  0.00    +0.000 OA
BRANCH  18  19
ATOM     19  C   UNL     1       7.048   5.019  14.277  0.00  0.00    +0.000 A 
ATOM     20  C   UNL     1       5.842   4.324  14.344  0.00  0.00    +0.000 A 
ATOM     21  C   UNL     1       5.390   3.578  13.251  0.00  0.00    +0.000 A 
ATOM     22  C   UNL     1       6.144   3.537  12.077  0.00  0.00    +0.000 A 
ATOM     23  C   UNL     1       7.339   4.246  11.999  0.00  0.00    +0.000 A 
ATOM     24  C   UNL     1       7.788   4.986  13.093  0.00  0.00    +0.000 A 
ENDBRANCH  18  19
ENDBRANCH  17  18
ENDBRANCH  15  17
ENDBRANCH  14  15
ENDBRANCH  13  14
ENDBRANCH   2  13
TORSDOF 7
ENDMDL
MODEL 5
REMARK VINA RESULT:      -7.2      4.697      6.609
REMARK  Name = 
REMARK  7 active torsions:
REMARK  status: ('A' for Active; 'I' for Inactive)
REMARK    1  A    between atoms: C_2  and  C_3
REMARK    2  A    between atoms: C_3  and  O_4
REMARK    3  A    between atoms: O_4  and  C_5
REMARK    4  A    between atoms: C_5  and  C_7
REMARK    5  A    between atoms: C_7  and  O_8
REMARK    6  A    between atoms: O_8  and  C_9
REMARK    7  A    between atoms: N_15  and  C_16
REMARK                            x       y       z     vdW  Elec       q    Type
REMARK                         _______ _______ _______ _____ _____    ______ ____
ROOT
ATOM      1  O   UNL     1       2.116   2.122  17.119  0.00  0.00    +0.000 OA
ATOM      2  C   UNL     1       2.960   2.783  17.732  0.00  0.00    +0.000 C 
ATOM      3  N   UNL     1       3.759   3.620  17.013  0.00  0.00    +0.000 N 
ATOM      4  H   UNL     1       3.474   3.715  16.045  0.00  0.00    +0.000 HD
ENDROOT
BRANCH   3   5
ATOM      5  C   UNL     1       4.862   4.367  17.429  0.00  0.00    +0.000 A 
ATOM      6  N   UNL     1       5.111   4.515  18.748  0.00  0.00    +0.000 NA
ATOM      7  C   UNL     1       6.150   5.304  19.110  0.00  0.00    +0.000 A 
ATOM      8  C   UNL     1       6.977   5.949  18.208  0.00  0.00    +0.000 A 
ATOM      9 CL   UNL     1       8.244   6.969  18.748  0.00  0.00    +0.000 Cl
ATOM     10  C   UNL     1       6.751   5.756  16.852  0.00  0.00    +0.000 A 
ATOM     11  C   UNL     1       5.690   4.944  16.455  0.00  0.00    +0.000 A 
ATOM     12 CL   UNL     1       5.407   4.719  14.765  0.00  0.00    +0.000 Cl
ENDBRANCH   3   5
BRANCH   2  13
ATOM     13  C   UNL     1       3.116   2.638  19.245  0.00  0.00    +0.000 C 
BRANCH  13  14
ATOM     14  O   UNL     1       1.944   2.738  20.047  0.00  0.00    +0.000 OA
BRANCH  14  15
ATOM     15  C   UNL     1       2.034   3.559  21.119  0.00  0.00    +0.000 C 
ATOM     16  O   UNL     1       2.503   3.258  22.207  0.00  0.00    +0.000 OA
BRANCH  15  17
ATOM     17  C   UNL     1       1.617   4.969  20.715  0.00  0.00    +0.000 C 
BRANCH  17  18
ATOM     18  O   UNL     1       2.701   5.790  20.327  0.00  0.00    +0.000 OA
BRANCH  18  19
ATOM     19  C   UNL     1       2.347   6.937  19.661  0.00  0.00    +0.000 A 
ATOM     20  C   UNL     1       1.609   7.855  20.407  0.00  0.00    +0.000 A 
ATOM     21  C   UNL     1       1.182   9.056  19.835  0.00  0.00    +0.000 A 
ATOM     22  C   UNL     1       1.505   9.350  18.510  0.00  0.00    +0.000 A 
ATOM     23  C   UNL     1       2.258   8.447  17.766  0.00  0.00    +0.000 A 
ATOM     24  C   UNL     1       2.680   7.246  18.340  0.00  0.00    +0.000 A 
ENDBRANCH  18  19
ENDBRANCH  17  18
ENDBRANCH  15  17
ENDBRANCH  14  15
ENDBRANCH  13  14
ENDBRANCH   2  13
TORSDOF 7
ENDMDL
MODEL 6
REMARK VINA RESULT:      -7.1      4.372      7.002
REMARK  Name = 
REMARK  7 active torsions:
REMARK  status: ('A' for Active; 'I' for Inactive)
REMARK    1  A    between atoms: C_2  and  C_3
REMARK    2  A    between atoms: C_3  and  O_4
REMARK    3  A    between atoms: O_4  and  C_5
REMARK    4  A    between atoms: C_5  and  C_7
REMARK    5  A    between atoms: C_7  and  O_8
REMARK    6  A    between atoms: O_8  and  C_9
REMARK    7  A    between atoms: N_15  and  C_16
REMARK                            x       y       z     vdW  Elec       q    Type
REMARK                         _______ _______ _______ _____ _____    ______ ____
ROOT
ATOM      1  O   UNL     1       3.947   1.870  17.612  0.00  0.00    +0.000 OA
ATOM      2  C   UNL     1       4.490   2.876  18.080  0.00  0.00    +0.000 C 
ATOM      3  N   UNL     1       5.320   3.587  17.266  0.00  0.00    +0.000 N 
ATOM      4  H   UNL     1       5.293   3.284  16.299  0.00  0.00    +0.000 HD
ENDROOT
BRANCH   3   5
ATOM      5  C   UNL     1       6.151   4.667  17.572  0.00  0.00    +0.000 A 
ATOM      6  N   UNL     1       6.975   4.595  18.638  0.00  0.00    +0.000 NA
ATOM      7  C   UNL     1       7.713   5.689  18.942  0.00  0.00    +0.000 A 
ATOM      8  C   UNL     1       7.683   6.864  18.210  0.00  0.00    +0.000 A 
ATOM      9 CL   UNL     1       8.613   8.222  18.687  0.00  0.00    +0.000 Cl
ATOM     10  C   UNL     1       6.872   6.918  17.085  0.00  0.00    +0.000 A 
ATOM     11  C   UNL     1       6.107   5.803  16.751  0.00  0.00    +0.000 A 
ATOM     12 CL   UNL     1       5.091   5.884  15.356  0.00  0.00    +0.000 Cl
ENDBRANCH   3   5
BRANCH   2  13
ATOM     13  C   UNL     1       4.257   3.285  19.533  0.00  0.00    +0.000 C 
BRANCH  13  14
ATOM     14  O   UNL     1       3.725   2.309  20.421  0.00  0.00    +0.000 OA
BRANCH  14  15
ATOM     15  C   UNL     1       2.626   2.684  21.117  0.00  0.00    +0.000 C 
ATOM     16  O   UNL     1       2.569   2.829  22.329  0.00  0.00    +0.000 OA
BRANCH  15  17
ATOM     17  C   UNL     1       1.514   3.063  20.145  0.00  0.00    +0.000 C 
BRANCH  17  18
ATOM     18  O   UNL     1       0.896   4.299  20.447  0.00  0.00    +0.000 OA
BRANCH  18  19
ATOM     19  C   UNL     1       1.437   5.386  19.806  0.00  0.00    +0.000 A 
ATOM     20  C   UNL     1       1.484   6.558  20.561  0.00  0.00    +0.000 A 
ATOM     21  C   UNL     1       2.003   7.735  20.014  0.00  0.00    +0.000 A 
ATOM     22  C   UNL     1       2.491   7.739  18.707  0.00  0.00    +0.000 A 
ATOM     23  C   UNL     1       2.465   6.568  17.956  0.00  0.00    +0.000 A 
ATOM     24  C   UNL     1       1.943   5.395  18.505  0.00  0.00    +0.000 A 
ENDBRANCH  18  19
ENDBRANCH  17  18
ENDBRANCH  15  17
ENDBRANCH  14  15
ENDBRANCH  13  14
ENDBRANCH   2  13
TORSDOF 7
ENDMDL
MODEL 7
REMARK VINA RESULT:      -7.0      4.290      6.583
REMARK  Name = 
REMARK  7 active torsions:
REMARK  status: ('A' for Active; 'I' for Inactive)
REMARK    1  A    between atoms: C_2  and  C_3
REMARK    2  A    between atoms: C_3  and  O_4
REMARK    3  A    between atoms: O_4  and  C_5
REMARK    4  A    between atoms: C_5  and  C_7
REMARK    5  A    between atoms: C_7  and  O_8
REMARK    6  A    between atoms: O_8  and  C_9
REMARK    7  A    between atoms: N_15  and  C_16
REMARK                            x       y       z     vdW  Elec       q    Type
REMARK                         _______ _______ _______ _____ _____    ______ ____
ROOT
ATOM      1  O   UNL     1       3.525   1.638  18.122  0.00  0.00    +0.000 OA
ATOM      2  C   UNL     1       4.115   2.657  18.495  0.00  0.00    +0.000 C 
ATOM      3  N   UNL     1       4.953   3.267  17.611  0.00  0.00    +0.000 N 
ATOM      4  H   UNL     1       4.893   2.887  16.673  0.00  0.00    +0.000 HD
ENDROOT
BRANCH   3   5
ATOM      5  C   UNL     1       5.830   4.335  17.812  0.00  0.00    +0.000 A 
ATOM      6  N   UNL     1       6.418   4.499  19.015  0.00  0.00    +0.000 NA
ATOM      7  C   UNL     1       7.207   5.586  19.190  0.00  0.00    +0.000 A 
ATOM      8  C   UNL     1       7.456   6.521  18.201  0.00  0.00    +0.000 A 
ATOM      9 CL   UNL     1       8.430   7.896  18.516  0.00  0.00    +0.000 Cl
ATOM     10  C   UNL     1       6.891   6.324  16.949  0.00  0.00    +0.000 A 
ATOM     11  C   UNL     1       6.079   5.210  16.745  0.00  0.00    +0.000 A 
ATOM     12 CL   UNL     1       5.368   4.978  15.187  0.00  0.00    +0.000 Cl
ENDBRANCH   3   5
BRANCH   2  13
ATOM     13  C   UNL     1       3.930   3.191  19.915  0.00  0.00    +0.000 C 
BRANCH  13  14
ATOM     14  O   UNL     1       2.723   2.866  20.595  0.00  0.00    +0.000 OA
BRANCH  14  15
ATOM     15  C   UNL     1       1.662   3.660  20.320  0.00  0.00    +0.000 C 
ATOM     16  O   UNL     1       0.534   3.271  20.055  0.00  0.00    +0.000 OA
BRANCH  15  17
ATOM     17  C   UNL     1       2.042   5.117  20.556  0.00  0.00    +0.000 C 
BRANCH  17  18
ATOM     18  O   UNL     1       2.633   5.737  19.431  0.00  0.00    +0.000 OA
BRANCH  18  19
ATOM     19  C   UNL     1       2.231   7.031  19.207  0.00  0.00    +0.000 A 
ATOM     20  C   UNL     1       1.693   7.687  20.313  0.00  0.00    +0.000 A 
ATOM     21  C   UNL     1       1.239   9.005  20.207  0.00  0.00    +0.000 A 
ATOM     22  C   UNL     1       1.334   9.677  18.988  0.00  0.00    +0.000 A 
ATOM     23  C   UNL     1       1.888   9.034  17.886  0.00  0.00    +0.000 A 
ATOM     24  C   UNL     1       2.337   7.717  17.995  0.00  0.00    +0.000 A 
ENDBRANCH  18  19
ENDBRANCH  17  18
ENDBRANCH  15  17
ENDBRANCH  14  15
ENDBRANCH  13  14
ENDBRANCH   2  13
TORSDOF 7
ENDMDL
MODEL 8
REMARK VINA RESULT:      -7.0      5.110      6.757
REMARK  Name = 
REMARK  7 active torsions:
REMARK  status: ('A' for Active; 'I' for Inactive)
REMARK    1  A    between atoms: C_2  and  C_3
REMARK    2  A    between atoms: C_3  and  O_4
REMARK    3  A    between atoms: O_4  and  C_5
REMARK    4  A    between atoms: C_5  and  C_7
REMARK    5  A    between atoms: C_7  and  O_8
REMARK    6  A    between atoms: O_8  and  C_9
REMARK    7  A    between atoms: N_15  and  C_16
REMARK                            x       y       z     vdW  Elec       q    Type
REMARK                         _______ _______ _______ _____ _____    ______ ____
ROOT
ATOM      1  O   UNL     1       1.074   1.696  18.171  0.00  0.00    +0.000 OA
ATOM      2  C   UNL     1       1.736   2.738  18.184  0.00  0.00    +0.000 C 
ATOM      3  N   UNL     1       3.005   2.693  17.692  0.00  0.00    +0.000 N 
ATOM      4  H   UNL     1       3.226   1.819  17.229  0.00  0.00    +0.000 HD
ENDROOT
BRANCH   3   5
ATOM      5  C   UNL     1       3.999   3.674  17.710  0.00  0.00    +0.000 A 
ATOM      6  N   UNL     1       4.075   4.566  16.701  0.00  0.00    +0.000 NA
ATOM      7  C   UNL     1       5.094   5.457  16.720  0.00  0.00    +0.000 A 
ATOM      8  C   UNL     1       6.047   5.514  17.723  0.00  0.00    +0.000 A 
ATOM      9 CL   UNL     1       7.335   6.642  17.651  0.00  0.00    +0.000 Cl
ATOM     10  C   UNL     1       5.938   4.628  18.785  0.00  0.00    +0.000 A 
ATOM     11  C   UNL     1       4.894   3.705  18.789  0.00  0.00    +0.000 A 
ATOM     12 CL   UNL     1       4.773   2.597  20.110  0.00  0.00    +0.000 Cl
ENDBRANCH   3   5
BRANCH   2  13
ATOM     13  C   UNL     1       1.152   4.026  18.765  0.00  0.00    +0.000 C 
BRANCH  13  14
ATOM     14  O   UNL     1       0.719   4.007  20.120  0.00  0.00    +0.000 OA
BRANCH  14  15
ATOM     15  C   UNL     1       1.690   4.156  21.050  0.00  0.00    +0.000 C 
ATOM     16  O   UNL     1       1.956   3.354  21.934  0.00  0.00    +0.000 OA
BRANCH  15  17
ATOM     17  C   UNL     1       2.517   5.395  20.728  0.00  0.00    +0.000 C 
BRANCH  17  18
ATOM     18  O   UNL     1       1.831   6.610  20.964  0.00  0.00    +0.000 OA
BRANCH  18  19
ATOM     19  C   UNL     1       1.880   7.511  19.930  0.00  0.00    +0.000 A 
ATOM     20  C   UNL     1       1.161   8.689  20.133  0.00  0.00    +0.000 A 
ATOM     21  C   UNL     1       1.126   9.679  19.147  0.00  0.00    +0.000 A 
ATOM     22  C   UNL     1       1.824   9.497  17.953  0.00  0.00    +0.000 A 
ATOM     23  C   UNL     1       2.559   8.333  17.753  0.00  0.00    +0.000 A 
ATOM     24  C   UNL     1       2.589   7.345  18.738  0.00  0.00    +0.000 A 
ENDBRANCH  18  19
ENDBRANCH  17  18
ENDBRANCH  15  17
ENDBRANCH  14  15
ENDBRANCH  13  14
ENDBRANCH   2  13
TORSDOF 7
ENDMDL
MODEL 9
REMARK VINA RESULT:      -7.0      3.891      7.661
REMARK  Name = 
REMARK  7 active torsions:
REMARK  status: ('A' for Active; 'I' for Inactive)
REMARK    1  A    between atoms: C_2  and  C_3
REMARK    2  A    between atoms: C_3  and  O_4
REMARK    3  A    between atoms: O_4  and  C_5
REMARK    4  A    between atoms: C_5  and  C_7
REMARK    5  A    between atoms: C_7  and  O_8
REMARK    6  A    between atoms: O_8  and  C_9
REMARK    7  A    between atoms: N_15  and  C_16
REMARK                            x       y       z     vdW  Elec       q    Type
REMARK                         _______ _______ _______ _____ _____    ______ ____
ROOT
ATOM      1  O   UNL     1       7.838   7.268  18.358  0.00  0.00    +0.000 OA
ATOM      2  C   UNL     1       7.154   6.785  17.450  0.00  0.00    +0.000 C 
ATOM      3  N   UNL     1       7.654   5.711  16.779  0.00  0.00    +0.000 N 
ATOM      4  H   UNL     1       8.493   5.328  17.200  0.00  0.00    +0.000 HD
ENDROOT
BRANCH   3   5
ATOM      5  C   UNL     1       7.159   5.065  15.644  0.00  0.00    +0.000 A 
ATOM      6  N   UNL     1       7.648   5.384  14.427  0.00  0.00    +0.000 NA
ATOM      7  C   UNL     1       7.094   4.786  13.347  0.00  0.00    +0.000 A 
ATOM      8  C   UNL     1       6.072   3.856  13.423  0.00  0.00    +0.000 A 
ATOM      9 CL   UNL     1       5.391   3.178  12.004  0.00  0.00    +0.000 Cl
ATOM     10  C   UNL     1       5.604   3.492  14.678  0.00  0.00    +0.000 A 
ATOM     11  C   UNL     1       6.163   4.091  15.804  0.00  0.00    +0.000 A 
ATOM     12 CL   UNL     1       5.566   3.642  17.363  0.00  0.00    +0.000 Cl
ENDBRANCH   3   5
BRANCH   2  13
ATOM     13  C   UNL     1       5.805   7.399  17.079  0.00  0.00    +0.000 C 
BRANCH  13  14
ATOM     14  O   UNL     1       4.628   6.676  17.423  0.00  0.00    +0.000 OA
BRANCH  14  15
ATOM     15  C   UNL     1       3.545   7.426  17.728  0.00  0.00    +0.000 C 
ATOM     16  O   UNL     1       3.240   8.483  17.195  0.00  0.00    +0.000 OA
BRANCH  15  17
ATOM     17  C   UNL     1       2.667   6.672  18.721  0.00  0.00    +0.000 C 
BRANCH  17  18
ATOM     18  O   UNL     1       1.693   5.852  18.106  0.00  0.00    +0.000 OA
BRANCH  18  19
ATOM     19  C   UNL     1       1.780   4.518  18.418  0.00  0.00    +0.000 A 
ATOM     20  C   UNL     1       1.398   4.185  19.717  0.00  0.00    +0.000 A 
ATOM     21  C   UNL     1       1.453   2.859  20.156  0.00  0.00    +0.000 A 
ATOM     22  C   UNL     1       1.881   1.855  19.288  0.00  0.00    +0.000 A 
ATOM     23  C   UNL     1       2.245   2.179  17.984  0.00  0.00    +0.000 A 
ATOM     24  C   UNL     1       2.192   3.504  17.550  0.00  0.00    +0.000 A 
ENDBRANCH  18  19
ENDBRANCH  17  18
ENDBRANCH  15  17
ENDBRANCH  14  15
ENDBRANCH  13  14
ENDBRANCH   2  13
TORSDOF 7
ENDMDL
