MODEL 1
REMARK VINA RESULT:      -8.9      0.000      0.000
REMARK  Name = 
REMARK  4 active torsions:
REMARK  status: ('A' for Active; 'I' for Inactive)
REMARK    1  A    between atoms: O_1  and  C_2
REMARK    2  A    between atoms: C_4  and  C_5
REMARK    3  A    between atoms: C_8  and  O_9
REMARK    4  A    between atoms: O_9  and  C_10
REMARK                            x       y       z     vdW  Elec       q    Type
REMARK                         _______ _______ _______ _____ _____    ______ ____
ROOT
ATOM      1  C   UNL     1       1.458   9.735  18.436  0.00  0.00    +0.000 A 
ATOM      2  N   UNL     1       2.224   8.823  17.830  0.00  0.00    +0.000 NA
ATOM      3  C   UNL     1       2.544   7.718  18.533  0.00  0.00    +0.000 A 
ATOM      4  N   UNL     1       2.179   7.453  19.799  0.00  0.00    +0.000 NA
ATOM      5  C   UNL     1       1.414   8.407  20.348  0.00  0.00    +0.000 A 
ATOM      6  S   UNL     1       0.850   8.259  21.949  0.00  0.00    +0.000 S 
ATOM      7  C   UNL     1       0.039   9.750  21.854  0.00  0.00    +0.000 A 
ATOM      8  C   UNL     1       0.169  10.351  20.615  0.00  0.00    +0.000 A 
ATOM      9  C   UNL     1       0.998   9.575  19.736  0.00  0.00    +0.000 A 
ATOM     10  C   UNL     1      -0.469  11.671  20.302  0.00  0.00    +0.000 C 
ATOM     11  C   UNL     1      -1.557  12.029  21.327  0.00  0.00    +0.000 C 
ATOM     12  C   UNL     1      -1.074  11.779  22.763  0.00  0.00    +0.000 C 
ATOM     13  C   UNL     1      -0.758  10.295  22.999  0.00  0.00    +0.000 C 
ENDROOT
BRANCH   3  14
ATOM     14  C   UNL     1       3.364   6.689  17.858  0.00  0.00    +0.000 A 
ATOM     15  C   UNL     1       3.020   5.324  17.879  0.00  0.00    +0.000 A 
ATOM     16  C   UNL     1       3.795   4.368  17.209  0.00  0.00    +0.000 A 
ATOM     17  C   UNL     1       4.930   4.758  16.502  0.00  0.00    +0.000 A 
ATOM     18  C   UNL     1       5.329   6.092  16.523  0.00  0.00    +0.000 A 
ATOM     19  C   UNL     1       4.539   7.045  17.168  0.00  0.00    +0.000 A 
BRANCH  17  20
ATOM     20  O   UNL     1       5.627   3.762  15.857  0.00  0.00    +0.000 OA
BRANCH  20  21
ATOM     21  C   UNL     1       6.157   4.010  14.609  0.00  0.00    +0.000 A 
ATOM     22  C   UNL     1       5.512   3.391  13.536  0.00  0.00    +0.000 A 
ATOM     23  C   UNL     1       5.974   3.585  12.233  0.00  0.00    +0.000 A 
ATOM     24  C   UNL     1       7.084   4.398  12.001  0.00  0.00    +0.000 A 
ATOM     25  C   UNL     1       7.715   5.039  13.066  0.00  0.00    +0.000 A 
ATOM     26  C   UNL     1       7.236   4.866  14.366  0.00  0.00    +0.000 A 
ENDBRANCH  20  21
ENDBRANCH  17  20
ENDBRANCH   3  14
BRANCH   1  27
ATOM     27  O   UNL     1       1.166  10.830  17.676  0.00  0.00    +0.000 OA
ATOM     28  H   UNL     1       0.194  10.831  17.729  0.00  0.00    +0.000 HD
ENDBRANCH   1  27
TORSDOF 4
ENDMDL
MODEL 2
REMARK VINA RESULT:      -8.8      2.277      3.365
REMARK  Name = 
REMARK  4 active torsions:
REMARK  status: ('A' for Active; 'I' for Inactive)
REMARK    1  A    between atoms: O_1  and  C_2
REMARK    2  A    between atoms: C_4  and  C_5
REMARK    3  A    between atoms: C_8  and  O_9
REMARK    4  A    between atoms: O_9  and  C_10
REMARK                            x       y       z     vdW  Elec       q    Type
REMARK                         _______ _______ _______ _____ _____    ______ ____
ROOT
ATOM      1  C   UNL     1       0.420   9.682  22.360  0.00  0.00    +0.000 A 
ATOM      2  N   UNL     1       1.076   8.627  21.868  0.00  0.00    +0.000 NA
ATOM      3  C   UNL     1       1.179   8.533  20.527  0.00  0.00    +0.000 A 
ATOM      4  N   UNL     1       0.667   9.395  19.632  0.00  0.00    +0.000 NA
ATOM      5  C   UNL     1       0.021  10.429  20.191  0.00  0.00    +0.000 A 
ATOM      6  S   UNL     1      -0.702  11.631  19.224  0.00  0.00    +0.000 S 
ATOM      7  C   UNL     1      -1.245  12.476  20.595  0.00  0.00    +0.000 A 
ATOM      8  C   UNL     1      -0.865  11.873  21.781  0.00  0.00    +0.000 A 
ATOM      9  C   UNL     1      -0.142  10.655  21.545  0.00  0.00    +0.000 A 
ATOM     10  C   UNL     1      -1.229  12.449  23.117  0.00  0.00    +0.000 C 
ATOM     11  C   UNL     1      -1.677  13.914  22.997  0.00  0.00    +0.000 C 
ATOM     12  C   UNL     1      -2.661  14.103  21.834  0.00  0.00    +0.000 C 
ATOM     13  C   UNL     1      -2.010  13.759  20.486  0.00  0.00    +0.000 C 
ENDROOT
BRANCH   3  14
ATOM     14  C   UNL     1       1.932   7.386  19.975  0.00  0.00    +0.000 A 
ATOM     15  C   UNL     1       1.997   6.145  20.637  0.00  0.00    +0.000 A 
ATOM     16  C   UNL     1       2.693   5.061  20.085  0.00  0.00    +0.000 A 
ATOM     17  C   UNL     1       3.336   5.195  18.856  0.00  0.00    +0.000 A 
ATOM     18  C   UNL     1       3.343   6.432  18.215  0.00  0.00    +0.000 A 
ATOM     19  C   UNL     1       2.626   7.500  18.755  0.00  0.00    +0.000 A 
BRANCH  17  20
ATOM     20  O   UNL     1       3.982   4.081  18.374  0.00  0.00    +0.000 OA
BRANCH  20  21
ATOM     21  C   UNL     1       5.067   4.240  17.538  0.00  0.00    +0.000 A 
ATOM     22  C   UNL     1       4.810   4.122  16.171  0.00  0.00    +0.000 A 
ATOM     23  C   UNL     1       5.846   4.270  15.247  0.00  0.00    +0.000 A 
ATOM     24  C   UNL     1       7.142   4.535  15.689  0.00  0.00    +0.000 A 
ATOM     25  C   UNL     1       7.398   4.680  17.052  0.00  0.00    +0.000 A 
ATOM     26  C   UNL     1       6.357   4.559  17.974  0.00  0.00    +0.000 A 
ENDBRANCH  20  21
ENDBRANCH  17  20
ENDBRANCH   3  14
BRANCH   1  27
ATOM     27  O   UNL     1       0.348   9.724  23.722  0.00  0.00    +0.000 OA
ATOM     28  H   UNL     1       1.083   9.131  23.959  0.00  0.00    +0.000 HD
ENDBRANCH   1  27
TORSDOF 4
ENDMDL
MODEL 3
REMARK VINA RESULT:      -8.8      2.778     10.430
REMARK  Name = 
REMARK  4 active torsions:
REMARK  status: ('A' for Active; 'I' for Inactive)
REMARK    1  A    between atoms: O_1  and  C_2
REMARK    2  A    between atoms: C_4  and  C_5
REMARK    3  A    between atoms: C_8  and  O_9
REMARK    4  A    between atoms: O_9  and  C_10
REMARK                            x       y       z     vdW  Elec       q    Type
REMARK                         _______ _______ _______ _____ _____    ______ ____
ROOT
ATOM      1  C   UNL     1       2.296   7.884  18.557  0.00  0.00    +0.000 A 
ATOM      2  N   UNL     1       1.640   8.828  19.238  0.00  0.00    +0.000 NA
ATOM      3  C   UNL     1       1.157   8.491  20.452  0.00  0.00    +0.000 A 
ATOM      4  N   UNL     1       1.258   7.285  21.037  0.00  0.00    +0.000 NA
ATOM      5  C   UNL     1       1.926   6.386  20.301  0.00  0.00    +0.000 A 
ATOM      6  S   UNL     1       2.160   4.797  20.868  0.00  0.00    +0.000 S 
ATOM      7  C   UNL     1       3.014   4.369  19.462  0.00  0.00    +0.000 A 
ATOM      8  C   UNL     1       3.147   5.422  18.576  0.00  0.00    +0.000 A 
ATOM      9  C   UNL     1       2.487   6.603  19.056  0.00  0.00    +0.000 A 
ATOM     10  C   UNL     1       3.872   5.275  17.271  0.00  0.00    +0.000 C 
ATOM     11  C   UNL     1       4.746   4.011  17.250  0.00  0.00    +0.000 C 
ATOM     12  C   UNL     1       3.983   2.796  17.796  0.00  0.00    +0.000 C 
ATOM     13  C   UNL     1       3.586   2.998  19.266  0.00  0.00    +0.000 C 
ENDROOT
BRANCH   3  14
ATOM     14  C   UNL     1       0.457   9.539  21.226  0.00  0.00    +0.000 A 
ATOM     15  C   UNL     1       0.475  10.893  20.840  0.00  0.00    +0.000 A 
ATOM     16  C   UNL     1      -0.218  11.867  21.572  0.00  0.00    +0.000 A 
ATOM     17  C   UNL     1      -0.945  11.507  22.704  0.00  0.00    +0.000 A 
ATOM     18  C   UNL     1      -0.921  10.186  23.145  0.00  0.00    +0.000 A 
ATOM     19  C   UNL     1      -0.254   9.214  22.398  0.00  0.00    +0.000 A 
BRANCH  17  20
ATOM     20  O   UNL     1      -1.610  12.518  23.357  0.00  0.00    +0.000 OA
BRANCH  20  21
ATOM     21  C   UNL     1      -2.972  12.651  23.183  0.00  0.00    +0.000 A 
ATOM     22  C   UNL     1      -3.740  12.662  24.348  0.00  0.00    +0.000 A 
ATOM     23  C   UNL     1      -5.128  12.795  24.273  0.00  0.00    +0.000 A 
ATOM     24  C   UNL     1      -5.750  12.916  23.030  0.00  0.00    +0.000 A 
ATOM     25  C   UNL     1      -4.984  12.932  21.866  0.00  0.00    +0.000 A 
ATOM     26  C   UNL     1      -3.594  12.826  21.943  0.00  0.00    +0.000 A 
ENDBRANCH  20  21
ENDBRANCH  17  20
ENDBRANCH   3  14
BRANCH   1  27
ATOM     27  O   UNL     1       2.762   8.281  17.338  0.00  0.00    +0.000 OA
ATOM     28  H   UNL     1       2.990   7.421  16.944  0.00  0.00    +0.000 HD
ENDBRANCH   1  27
TORSDOF 4
ENDMDL
MODEL 4
REMARK VINA RESULT:      -8.7      2.312      3.617
REMARK  Name = 
REMARK  4 active torsions:
REMARK  status: ('A' for Active; 'I' for Inactive)
REMARK    1  A    between atoms: O_1  and  C_2
REMARK    2  A    between atoms: C_4  and  C_5
REMARK    3  A    between atoms: C_8  and  O_9
REMARK    4  A    between atoms: O_9  and  C_10
REMARK                            x       y       z     vdW  Elec       q    Type
REMARK                         _______ _______ _______ _____ _____    ______ ____
ROOT
ATOM      1  C   UNL     1       0.447   9.677  22.360  0.00  0.00    +0.000 A 
ATOM      2  N   UNL     1       1.062   8.585  21.896  0.00  0.00    +0.000 NA
ATOM      3  C   UNL     1       1.218   8.484  20.560  0.00  0.00    +0.000 A 
ATOM      4  N   UNL     1       0.796   9.373  19.645  0.00  0.00    +0.000 NA
ATOM      5  C   UNL     1       0.187  10.442  20.176  0.00  0.00    +0.000 A 
ATOM      6  S   UNL     1      -0.423  11.682  19.180  0.00  0.00    +0.000 S 
ATOM      7  C   UNL     1      -0.975  12.560  20.527  0.00  0.00    +0.000 A 
ATOM      8  C   UNL     1      -0.683  11.938  21.727  0.00  0.00    +0.000 A 
ATOM      9  C   UNL     1      -0.021  10.681  21.522  0.00  0.00    +0.000 A 
ATOM     10  C   UNL     1      -1.070  12.536  23.046  0.00  0.00    +0.000 C 
ATOM     11  C   UNL     1      -1.427  14.024  22.908  0.00  0.00    +0.000 C 
ATOM     12  C   UNL     1      -2.348  14.268  21.703  0.00  0.00    +0.000 C 
ATOM     13  C   UNL     1      -1.659  13.885  20.385  0.00  0.00    +0.000 C 
ENDROOT
BRANCH   3  14
ATOM     14  C   UNL     1       1.926   7.294  20.042  0.00  0.00    +0.000 A 
ATOM     15  C   UNL     1       2.680   7.329  18.853  0.00  0.00    +0.000 A 
ATOM     16  C   UNL     1       3.367   6.199  18.393  0.00  0.00    +0.000 A 
ATOM     17  C   UNL     1       3.317   5.007  19.114  0.00  0.00    +0.000 A 
ATOM     18  C   UNL     1       2.524   4.928  20.256  0.00  0.00    +0.000 A 
ATOM     19  C   UNL     1       1.864   6.064  20.726  0.00  0.00    +0.000 A 
BRANCH  17  20
ATOM     20  O   UNL     1       4.032   3.948  18.605  0.00  0.00    +0.000 OA
BRANCH  20  21
ATOM     21  C   UNL     1       4.989   4.183  17.640  0.00  0.00    +0.000 A 
ATOM     22  C   UNL     1       6.265   4.502  18.109  0.00  0.00    +0.000 A 
ATOM     23  C   UNL     1       7.301   4.754  17.206  0.00  0.00    +0.000 A 
ATOM     24  C   UNL     1       7.061   4.688  15.834  0.00  0.00    +0.000 A 
ATOM     25  C   UNL     1       5.795   4.343  15.363  0.00  0.00    +0.000 A 
ATOM     26  C   UNL     1       4.767   4.065  16.265  0.00  0.00    +0.000 A 
ENDBRANCH  20  21
ENDBRANCH  17  20
ENDBRANCH   3  14
BRANCH   1  27
ATOM     27  O   UNL     1       0.319   9.726  23.718  0.00  0.00    +0.000 OA
ATOM     28  H   UNL     1       1.239   9.904  23.979  0.00  0.00    +0.000 HD
ENDBRANCH   1  27
TORSDOF 4
ENDMDL
MODEL 5
REMARK VINA RESULT:      -8.7      2.740     10.360
REMARK  Name = 
REMARK  4 active torsions:
REMARK  status: ('A' for Active; 'I' for Inactive)
REMARK    1  A    between atoms: O_1  and  C_2
REMARK    2  A    between atoms: C_4  and  C_5
REMARK    3  A    between atoms: C_8  and  O_9
REMARK    4  A    between atoms: O_9  and  C_10
REMARK                            x       y       z     vdW  Elec       q    Type
REMARK                         _______ _______ _______ _____ _____    ______ ____
ROOT
ATOM      1  C   UNL     1       2.321   7.955  18.515  0.00  0.00    +0.000 A 
ATOM      2  N   UNL     1       1.644   8.889  19.190  0.00  0.00    +0.000 NA
ATOM      3  C   UNL     1       1.159   8.547  20.401  0.00  0.00    +0.000 A 
ATOM      4  N   UNL     1       1.278   7.345  20.990  0.00  0.00    +0.000 NA
ATOM      5  C   UNL     1       1.966   6.456  20.261  0.00  0.00    +0.000 A 
ATOM      6  S   UNL     1       2.223   4.872  20.833  0.00  0.00    +0.000 S 
ATOM      7  C   UNL     1       3.093   4.455  19.433  0.00  0.00    +0.000 A 
ATOM      8  C   UNL     1       3.214   5.508  18.545  0.00  0.00    +0.000 A 
ATOM      9  C   UNL     1       2.531   6.678  19.018  0.00  0.00    +0.000 A 
ATOM     10  C   UNL     1       3.949   5.370  17.245  0.00  0.00    +0.000 C 
ATOM     11  C   UNL     1       4.844   4.121  17.233  0.00  0.00    +0.000 C 
ATOM     12  C   UNL     1       4.099   2.894  17.778  0.00  0.00    +0.000 C 
ATOM     13  C   UNL     1       3.689   3.093  19.245  0.00  0.00    +0.000 C 
ENDROOT
BRANCH   3  14
ATOM     14  C   UNL     1       0.438   9.585  21.168  0.00  0.00    +0.000 A 
ATOM     15  C   UNL     1      -0.257   9.291  22.357  0.00  0.00    +0.000 A 
ATOM     16  C   UNL     1      -0.911  10.294  23.085  0.00  0.00    +0.000 A 
ATOM     17  C   UNL     1      -0.883  11.614  22.639  0.00  0.00    +0.000 A 
ATOM     18  C   UNL     1      -0.261  11.918  21.430  0.00  0.00    +0.000 A 
ATOM     19  C   UNL     1       0.413  10.922  20.724  0.00  0.00    +0.000 A 
BRANCH  17  20
ATOM     20  O   UNL     1      -1.534  12.542  23.418  0.00  0.00    +0.000 OA
BRANCH  20  21
ATOM     21  C   UNL     1      -2.906  12.656  23.325  0.00  0.00    +0.000 A 
ATOM     22  C   UNL     1      -3.418  12.845  22.040  0.00  0.00    +0.000 A 
ATOM     23  C   UNL     1      -4.796  12.969  21.846  0.00  0.00    +0.000 A 
ATOM     24  C   UNL     1      -5.662  12.905  22.937  0.00  0.00    +0.000 A 
ATOM     25  C   UNL     1      -5.156  12.689  24.218  0.00  0.00    +0.000 A 
ATOM     26  C   UNL     1      -3.781  12.539  24.409  0.00  0.00    +0.000 A 
ENDBRANCH  20  21
ENDBRANCH  17  20
ENDBRANCH   3  14
BRANCH   1  27
ATOM     27  O   UNL     1       2.788   8.358  17.298  0.00  0.00    +0.000 OA
ATOM     28  H   UNL     1       3.743   8.211  17.414  0.00  0.00    +0.000 HD
ENDBRANCH   1  27
TORSDOF 4
ENDMDL
MODEL 6
REMARK VINA RESULT:      -8.6      1.740      2.849
REMARK  Name = 
REMARK  4 active torsions:
REMARK  status: ('A' for Active; 'I' for Inactive)
REMARK    1  A    between atoms: O_1  and  C_2
REMARK    2  A    between atoms: C_4  and  C_5
REMARK    3  A    between atoms: C_8  and  O_9
REMARK    4  A    between atoms: O_9  and  C_10
REMARK                            x       y       z     vdW  Elec       q    Type
REMARK                         _______ _______ _______ _____ _____    ______ ____
ROOT
ATOM      1  C   UNL     1      -0.079  10.795  19.158  0.00  0.00    +0.000 A 
ATOM      2  N   UNL     1       0.714   9.764  18.852  0.00  0.00    +0.000 NA
ATOM      3  C   UNL     1       1.039   8.916  19.850  0.00  0.00    +0.000 A 
ATOM      4  N   UNL     1       0.653   9.020  21.133  0.00  0.00    +0.000 NA
ATOM      5  C   UNL     1      -0.139  10.075  21.372  0.00  0.00    +0.000 A 
ATOM      6  S   UNL     1      -0.732  10.383  22.939  0.00  0.00    +0.000 S 
ATOM      7  C   UNL     1      -1.565  11.765  22.405  0.00  0.00    +0.000 A 
ATOM      8  C   UNL     1      -1.421  11.985  21.048  0.00  0.00    +0.000 A 
ATOM      9  C   UNL     1      -0.562  11.007  20.442  0.00  0.00    +0.000 A 
ATOM     10  C   UNL     1      -2.075  13.144  20.358  0.00  0.00    +0.000 C 
ATOM     11  C   UNL     1      -3.189  13.759  21.220  0.00  0.00    +0.000 C 
ATOM     12  C   UNL     1      -2.731  13.946  22.673  0.00  0.00    +0.000 C 
ATOM     13  C   UNL     1      -2.395  12.599  23.333  0.00  0.00    +0.000 C 
ENDROOT
BRANCH   3  14
ATOM     14  C   UNL     1       1.890   7.755  19.513  0.00  0.00    +0.000 A 
ATOM     15  C   UNL     1       1.972   6.620  20.342  0.00  0.00    +0.000 A 
ATOM     16  C   UNL     1       2.762   5.517  19.991  0.00  0.00    +0.000 A 
ATOM     17  C   UNL     1       3.486   5.525  18.800  0.00  0.00    +0.000 A 
ATOM     18  C   UNL     1       3.474   6.663  17.997  0.00  0.00    +0.000 A 
ATOM     19  C   UNL     1       2.664   7.748  18.336  0.00  0.00    +0.000 A 
BRANCH  17  20
ATOM     20  O   UNL     1       4.223   4.399  18.519  0.00  0.00    +0.000 OA
BRANCH  20  21
ATOM     21  C   UNL     1       5.106   4.418  17.461  0.00  0.00    +0.000 A 
ATOM     22  C   UNL     1       6.443   4.662  17.783  0.00  0.00    +0.000 A 
ATOM     23  C   UNL     1       7.411   4.698  16.778  0.00  0.00    +0.000 A 
ATOM     24  C   UNL     1       7.044   4.492  15.448  0.00  0.00    +0.000 A 
ATOM     25  C   UNL     1       5.715   4.221  15.125  0.00  0.00    +0.000 A 
ATOM     26  C   UNL     1       4.751   4.159  16.134  0.00  0.00    +0.000 A 
ENDBRANCH  20  21
ENDBRANCH  17  20
ENDBRANCH   3  14
BRANCH   1  27
ATOM     27  O   UNL     1      -0.374  11.618  18.110  0.00  0.00    +0.000 OA
ATOM     28  H   UNL     1      -0.045  11.084  17.366  0.00  0.00    +0.000 HD
ENDBRANCH   1  27
TORSDOF 4
ENDMDL
MODEL 7
REMARK VINA RESULT:      -8.5      3.021      3.891
REMARK  Name = 
REMARK  4 active torsions:
REMARK  status: ('A' for Active; 'I' for Inactive)
REMARK    1  A    between atoms: O_1  and  C_2
REMARK    2  A    between atoms: C_4  and  C_5
REMARK    3  A    between atoms: C_8  and  O_9
REMARK    4  A    between atoms: O_9  and  C_10
REMARK                            x       y       z     vdW  Elec       q    Type
REMARK                         _______ _______ _______ _____ _____    ______ ____
ROOT
ATOM      1  C   UNL     1      -0.500  11.305  19.014  0.00  0.00    +0.000 A 
ATOM      2  N   UNL     1       0.375  10.377  18.616  0.00  0.00    +0.000 NA
ATOM      3  C   UNL     1       0.847   9.529  19.553  0.00  0.00    +0.000 A 
ATOM      4  N   UNL     1       0.532   9.539  20.859  0.00  0.00    +0.000 NA
ATOM      5  C   UNL     1      -0.349  10.493  21.192  0.00  0.00    +0.000 A 
ATOM      6  S   UNL     1      -0.873  10.673  22.803  0.00  0.00    +0.000 S 
ATOM      7  C   UNL     1      -1.876  11.979  22.382  0.00  0.00    +0.000 A 
ATOM      8  C   UNL     1      -1.839  12.269  21.031  0.00  0.00    +0.000 A 
ATOM      9  C   UNL     1      -0.923  11.412  20.332  0.00  0.00    +0.000 A 
ATOM     10  C   UNL     1      -2.651  13.379  20.434  0.00  0.00    +0.000 C 
ATOM     11  C   UNL     1      -3.767  13.837  21.386  0.00  0.00    +0.000 C 
ATOM     12  C   UNL     1      -3.242  14.012  22.818  0.00  0.00    +0.000 C 
ATOM     13  C   UNL     1      -2.729  12.683  23.393  0.00  0.00    +0.000 C 
ENDROOT
BRANCH   3  14
ATOM     14  C   UNL     1       1.791   8.478  19.114  0.00  0.00    +0.000 A 
ATOM     15  C   UNL     1       2.091   7.359  19.913  0.00  0.00    +0.000 A 
ATOM     16  C   UNL     1       2.966   6.360  19.467  0.00  0.00    +0.000 A 
ATOM     17  C   UNL     1       3.559   6.459  18.210  0.00  0.00    +0.000 A 
ATOM     18  C   UNL     1       3.331   7.590  17.430  0.00  0.00    +0.000 A 
ATOM     19  C   UNL     1       2.437   8.568  17.865  0.00  0.00    +0.000 A 
BRANCH  17  20
ATOM     20  O   UNL     1       4.392   5.430  17.839  0.00  0.00    +0.000 OA
BRANCH  20  21
ATOM     21  C   UNL     1       4.048   4.134  18.162  0.00  0.00    +0.000 A 
ATOM     22  C   UNL     1       3.103   3.527  17.333  0.00  0.00    +0.000 A 
ATOM     23  C   UNL     1       2.694   2.214  17.580  0.00  0.00    +0.000 A 
ATOM     24  C   UNL     1       3.228   1.509  18.657  0.00  0.00    +0.000 A 
ATOM     25  C   UNL     1       4.192   2.102  19.471  0.00  0.00    +0.000 A 
ATOM     26  C   UNL     1       4.621   3.404  19.208  0.00  0.00    +0.000 A 
ENDBRANCH  20  21
ENDBRANCH  17  20
ENDBRANCH   3  14
BRANCH   1  27
ATOM     27  O   UNL     1      -0.942  12.134  18.025  0.00  0.00    +0.000 OA
ATOM     28  H   UNL     1      -1.883  11.888  17.993  0.00  0.00    +0.000 HD
ENDBRANCH   1  27
TORSDOF 4
ENDMDL
MODEL 8
REMARK VINA RESULT:      -8.5      1.860      2.913
REMARK  Name = 
REMARK  4 active torsions:
REMARK  status: ('A' for Active; 'I' for Inactive)
REMARK    1  A    between atoms: O_1  and  C_2
REMARK    2  A    between atoms: C_4  and  C_5
REMARK    3  A    between atoms: C_8  and  O_9
REMARK    4  A    between atoms: O_9  and  C_10
REMARK                            x       y       z     vdW  Elec       q    Type
REMARK                         _______ _______ _______ _____ _____    ______ ____
ROOT
ATOM      1  C   UNL     1       0.315  10.817  19.268  0.00  0.00    +0.000 A 
ATOM      2  N   UNL     1       1.012   9.715  18.977  0.00  0.00    +0.000 NA
ATOM      3  C   UNL     1       1.151   8.795  19.954  0.00  0.00    +0.000 A 
ATOM      4  N   UNL     1       0.666   8.890  21.203  0.00  0.00    +0.000 NA
ATOM      5  C   UNL     1      -0.022  10.018  21.429  0.00  0.00    +0.000 A 
ATOM      6  S   UNL     1      -0.714  10.327  22.954  0.00  0.00    +0.000 S 
ATOM      7  C   UNL     1      -1.338  11.817  22.424  0.00  0.00    +0.000 A 
ATOM      8  C   UNL     1      -1.049  12.075  21.096  0.00  0.00    +0.000 A 
ATOM      9  C   UNL     1      -0.255  11.030  20.516  0.00  0.00    +0.000 A 
ATOM     10  C   UNL     1      -1.507  13.329  20.414  0.00  0.00    +0.000 C 
ATOM     11  C   UNL     1      -2.617  14.032  21.210  0.00  0.00    +0.000 C 
ATOM     12  C   UNL     1      -2.272  14.104  22.705  0.00  0.00    +0.000 C 
ATOM     13  C   UNL     1      -2.148  12.702  23.320  0.00  0.00    +0.000 C 
ENDROOT
BRANCH   3  14
ATOM     14  C   UNL     1       1.893   7.558  19.630  0.00  0.00    +0.000 A 
ATOM     15  C   UNL     1       2.649   7.425  18.449  0.00  0.00    +0.000 A 
ATOM     16  C   UNL     1       3.368   6.254  18.174  0.00  0.00    +0.000 A 
ATOM     17  C   UNL     1       3.349   5.192  19.075  0.00  0.00    +0.000 A 
ATOM     18  C   UNL     1       2.555   5.274  20.217  0.00  0.00    +0.000 A 
ATOM     19  C   UNL     1       1.863   6.451  20.501  0.00  0.00    +0.000 A 
BRANCH  17  20
ATOM     20  O   UNL     1       4.095   4.086  18.740  0.00  0.00    +0.000 OA
BRANCH  20  21
ATOM     21  C   UNL     1       5.135   4.220  17.844  0.00  0.00    +0.000 A 
ATOM     22  C   UNL     1       4.840   3.915  16.515  0.00  0.00    +0.000 A 
ATOM     23  C   UNL     1       5.828   4.023  15.534  0.00  0.00    +0.000 A 
ATOM     24  C   UNL     1       7.114   4.436  15.883  0.00  0.00    +0.000 A 
ATOM     25  C   UNL     1       7.405   4.768  17.205  0.00  0.00    +0.000 A 
ATOM     26  C   UNL     1       6.409   4.685  18.181  0.00  0.00    +0.000 A 
ENDBRANCH  20  21
ENDBRANCH  17  20
ENDBRANCH   3  14
BRANCH   1  27
ATOM     27  O   UNL     1       0.207  11.711  18.242  0.00  0.00    +0.000 OA
ATOM     28  H   UNL     1       0.788  12.422  18.563  0.00  0.00    +0.000 HD
ENDBRANCH   1  27
TORSDOF 4
ENDMDL
MODEL 9
REMARK VINA RESULT:      -8.5      1.485      2.568
REMARK  Name = 
REMARK  4 active torsions:
REMARK  status: ('A' for Active; 'I' for Inactive)
REMARK    1  A    between atoms: O_1  and  C_2
REMARK    2  A    between atoms: C_4  and  C_5
REMARK    3  A    between atoms: C_8  and  O_9
REMARK    4  A    between atoms: O_9  and  C_10
REMARK                            x       y       z     vdW  Elec       q    Type
REMARK                         _______ _______ _______ _____ _____    ______ ____
ROOT
ATOM      1  C   UNL     1       0.049  10.539  18.920  0.00  0.00    +0.000 A 
ATOM      2  N   UNL     1       0.884   9.548  18.592  0.00  0.00    +0.000 NA
ATOM      3  C   UNL     1       1.306   8.740  19.586  0.00  0.00    +0.000 A 
ATOM      4  N   UNL     1       0.978   8.847  20.885  0.00  0.00    +0.000 NA
ATOM      5  C   UNL     1       0.140   9.859  21.146  0.00  0.00    +0.000 A 
ATOM      6  S   UNL     1      -0.392  10.164  22.735  0.00  0.00    +0.000 S 
ATOM      7  C   UNL     1      -1.329  11.486  22.221  0.00  0.00    +0.000 A 
ATOM      8  C   UNL     1      -1.264  11.688  20.855  0.00  0.00    +0.000 A 
ATOM      9  C   UNL     1      -0.382  10.748  20.223  0.00  0.00    +0.000 A 
ATOM     10  C   UNL     1      -2.017  12.794  20.179  0.00  0.00    +0.000 C 
ATOM     11  C   UNL     1      -3.120  13.362  21.086  0.00  0.00    +0.000 C 
ATOM     12  C   UNL     1      -2.602  13.602  22.512  0.00  0.00    +0.000 C 
ATOM     13  C   UNL     1      -2.157  12.290  23.175  0.00  0.00    +0.000 C 
ENDROOT
BRANCH   3  14
ATOM     14  C   UNL     1       2.204   7.622  19.225  0.00  0.00    +0.000 A 
ATOM     15  C   UNL     1       2.992   7.640  18.059  0.00  0.00    +0.000 A 
ATOM     16  C   UNL     1       3.858   6.583  17.749  0.00  0.00    +0.000 A 
ATOM     17  C   UNL     1       3.956   5.485  18.602  0.00  0.00    +0.000 A 
ATOM     18  C   UNL     1       3.137   5.413  19.726  0.00  0.00    +0.000 A 
ATOM     19  C   UNL     1       2.297   6.480  20.046  0.00  0.00    +0.000 A 
BRANCH  17  20
ATOM     20  O   UNL     1       4.841   4.498  18.236  0.00  0.00    +0.000 OA
BRANCH  20  21
ATOM     21  C   UNL     1       5.447   4.560  16.999  0.00  0.00    +0.000 A 
ATOM     22  C   UNL     1       6.765   5.021  16.985  0.00  0.00    +0.000 A 
ATOM     23  C   UNL     1       7.462   5.116  15.779  0.00  0.00    +0.000 A 
ATOM     24  C   UNL     1       6.841   4.752  14.585  0.00  0.00    +0.000 A 
ATOM     25  C   UNL     1       5.534   4.266  14.597  0.00  0.00    +0.000 A 
ATOM     26  C   UNL     1       4.847   4.146  15.806  0.00  0.00    +0.000 A 
ENDBRANCH  20  21
ENDBRANCH  17  20
ENDBRANCH   3  14
BRANCH   1  27
ATOM     27  O   UNL     1      -0.344  11.323  17.875  0.00  0.00    +0.000 OA
ATOM     28  H   UNL     1      -0.486  12.171  18.331  0.00  0.00    +0.000 HD
ENDBRANCH   1  27
TORSDOF 4
ENDMDL
