MODEL 1
REMARK VINA RESULT:      -7.8      0.000      0.000
REMARK  Name = 
REMARK  11 active torsions:
REMARK  status: ('A' for Active; 'I' for Inactive)
REMARK    1  A    between atoms: O_1  and  C_2
REMARK    2  A    between atoms: C_2  and  C_3
REMARK    3  A    between atoms: C_2  and  C_10
REMARK    4  A    between atoms: C_3  and  C_4
REMARK    5  A    between atoms: C_10  and  N_11
REMARK    6  A    between atoms: N_14  and  C_15
REMARK    7  A    between atoms: C_15  and  C_16
REMARK    8  A    between atoms: C_16  and  C_17
REMARK    9  A    between atoms: C_17  and  N_18
REMARK   10  A    between atoms: N_18  and  C_19
REMARK   11  A    between atoms: N_18  and  C_26
REMARK                            x       y       z     vdW  Elec       q    Type
REMARK                         _______ _______ _______ _____ _____    ______ ____
ROOT
ATOM      1  C   UNL     1       1.784   9.058  18.816  0.00  0.00    +0.000 C 
ENDROOT
BRANCH   1   5
ATOM      2  N   UNL     1      -0.119  11.988  20.271  0.00  0.00    +0.000 NA
ATOM      3  C   UNL     1       0.621  10.964  21.034  0.00  0.00    +0.000 C 
ATOM      4  C   UNL     1       0.234   9.513  20.669  0.00  0.00    +0.000 C 
ATOM      5  N   UNL     1       0.376   9.187  19.233  0.00  0.00    +0.000 NA
ATOM      6  C   UNL     1      -0.317  10.221  18.433  0.00  0.00    +0.000 C 
ATOM      7  C   UNL     1       0.023  11.684  18.824  0.00  0.00    +0.000 C 
BRANCH   2   8
ATOM      8  C   UNL     1      -1.545  12.051  20.645  0.00  0.00    +0.000 C 
BRANCH   8   9
ATOM      9  C   UNL     1      -2.416  13.109  19.921  0.00  0.00    +0.000 C 
BRANCH   9  10
ATOM     10  O   UNL     1      -1.732  14.368  20.047  0.00  0.00    +0.000 OA
ATOM     11  H   UNL     1      -2.351  14.989  20.468  0.00  0.00    +0.000 HD
ENDBRANCH   9  10
BRANCH   9  12
ATOM     12  C   UNL     1      -3.822  13.215  20.533  0.00  0.00    +0.000 C 
BRANCH  12  13
ATOM     13  C   UNL     1      -4.856  12.362  19.826  0.00  0.00    +0.000 A 
ATOM     14  C   UNL     1      -4.674  11.939  18.502  0.00  0.00    +0.000 A 
ATOM     15  C   UNL     1      -5.641  11.147  17.876  0.00  0.00    +0.000 A 
ATOM     16  C   UNL     1      -6.796  10.773  18.561  0.00  0.00    +0.000 A 
ATOM     17  C   UNL     1      -6.989  11.193  19.875  0.00  0.00    +0.000 A 
ATOM     18  C   UNL     1      -6.026  11.984  20.502  0.00  0.00    +0.000 A 
ENDBRANCH  12  13
ENDBRANCH   9  12
ENDBRANCH   8   9
ENDBRANCH   2   8
ENDBRANCH   1   5
BRANCH   1  19
ATOM     19  C   UNL     1       2.056   7.820  17.953  0.00  0.00    +0.000 C 
BRANCH  19  20
ATOM     20  C   UNL     1       3.501   7.332  18.113  0.00  0.00    +0.000 C 
BRANCH  20  21
ATOM     21  N   UNL     1       3.604   5.870  17.896  0.00  0.00    +0.000 N 
BRANCH  21  22
ATOM     22  C   UNL     1       4.485   5.414  16.873  0.00  0.00    +0.000 A 
ATOM     23  C   UNL     1       4.825   4.060  16.703  0.00  0.00    +0.000 A 
ATOM     24  C   UNL     1       5.662   3.632  15.662  0.00  0.00    +0.000 A 
ATOM     25  C   UNL     1       6.171   4.559  14.767  0.00  0.00    +0.000 A 
ATOM     26  F   UNL     1       6.952   4.148  13.760  0.00  0.00    +0.000 F 
ATOM     27  C   UNL     1       5.872   5.902  14.905  0.00  0.00    +0.000 A 
ATOM     28  C   UNL     1       5.044   6.324  15.954  0.00  0.00    +0.000 A 
ENDBRANCH  21  22
BRANCH  21  29
ATOM     29  C   UNL     1       2.856   5.067  18.802  0.00  0.00    +0.000 A 
ATOM     30  C   UNL     1       1.810   4.220  18.379  0.00  0.00    +0.000 A 
ATOM     31  C   UNL     1       1.061   3.459  19.280  0.00  0.00    +0.000 A 
ATOM     32  C   UNL     1       1.341   3.536  20.631  0.00  0.00    +0.000 A 
ATOM     33  F   UNL     1       0.614   2.820  21.497  0.00  0.00    +0.000 F 
ATOM     34  C   UNL     1       2.360   4.356  21.094  0.00  0.00    +0.000 A 
ATOM     35  C   UNL     1       3.105   5.116  20.185  0.00  0.00    +0.000 A 
ENDBRANCH  21  29
ENDBRANCH  20  21
ENDBRANCH  19  20
ENDBRANCH   1  19
TORSDOF 11
ENDMDL
MODEL 2
REMARK VINA RESULT:      -7.7      2.778      5.762
REMARK  Name = 
REMARK  11 active torsions:
REMARK  status: ('A' for Active; 'I' for Inactive)
REMARK    1  A    between atoms: O_1  and  C_2
REMARK    2  A    between atoms: C_2  and  C_3
REMARK    3  A    between atoms: C_2  and  C_10
REMARK    4  A    between atoms: C_3  and  C_4
REMARK    5  A    between atoms: C_10  and  N_11
REMARK    6  A    between atoms: N_14  and  C_15
REMARK    7  A    between atoms: C_15  and  C_16
REMARK    8  A    between atoms: C_16  and  C_17
REMARK    9  A    between atoms: C_17  and  N_18
REMARK   10  A    between atoms: N_18  and  C_19
REMARK   11  A    between atoms: N_18  and  C_26
REMARK                            x       y       z     vdW  Elec       q    Type
REMARK                         _______ _______ _______ _____ _____    ______ ____
ROOT
ATOM      1  C   UNL     1       1.180   9.190  18.296  0.00  0.00    +0.000 C 
ENDROOT
BRANCH   1   5
ATOM      2  N   UNL     1      -0.304  12.666  18.492  0.00  0.00    +0.000 NA
ATOM      3  C   UNL     1       1.134  12.328  18.521  0.00  0.00    +0.000 C 
ATOM      4  C   UNL     1       1.503  11.263  19.577  0.00  0.00    +0.000 C 
ATOM      5  N   UNL     1       0.751   9.994  19.453  0.00  0.00    +0.000 NA
ATOM      6  C   UNL     1      -0.696  10.298  19.376  0.00  0.00    +0.000 C 
ATOM      7  C   UNL     1      -1.075  11.404  18.355  0.00  0.00    +0.000 C 
BRANCH   2   8
ATOM      8  C   UNL     1      -0.735  13.404  19.695  0.00  0.00    +0.000 C 
BRANCH   8   9
ATOM      9  C   UNL     1       0.073  14.674  20.067  0.00  0.00    +0.000 C 
BRANCH   9  10
ATOM     10  O   UNL     1       0.394  14.568  21.465  0.00  0.00    +0.000 OA
ATOM     11  H   UNL     1       0.960  15.327  21.687  0.00  0.00    +0.000 HD
ENDBRANCH   9  10
BRANCH   9  12
ATOM     12  C   UNL     1      -0.727  15.962  19.811  0.00  0.00    +0.000 C 
BRANCH  12  13
ATOM     13  C   UNL     1      -0.143  16.828  18.713  0.00  0.00    +0.000 A 
ATOM     14  C   UNL     1      -0.943  17.712  17.976  0.00  0.00    +0.000 A 
ATOM     15  C   UNL     1      -0.377  18.504  16.973  0.00  0.00    +0.000 A 
ATOM     16  C   UNL     1       0.987  18.420  16.695  0.00  0.00    +0.000 A 
ATOM     17  C   UNL     1       1.788  17.541  17.418  0.00  0.00    +0.000 A 
ATOM     18  C   UNL     1       1.226  16.748  18.418  0.00  0.00    +0.000 A 
ENDBRANCH  12  13
ENDBRANCH   9  12
ENDBRANCH   8   9
ENDBRANCH   2   8
ENDBRANCH   1   5
BRANCH   1  19
ATOM     19  C   UNL     1       2.157   8.066  18.661  0.00  0.00    +0.000 C 
BRANCH  19  20
ATOM     20  C   UNL     1       2.212   6.993  17.567  0.00  0.00    +0.000 C 
BRANCH  20  21
ATOM     21  N   UNL     1       2.976   5.805  18.013  0.00  0.00    +0.000 N 
BRANCH  21  22
ATOM     22  C   UNL     1       2.399   4.991  19.031  0.00  0.00    +0.000 A 
ATOM     23  C   UNL     1       1.334   4.104  18.791  0.00  0.00    +0.000 A 
ATOM     24  C   UNL     1       0.812   3.285  19.802  0.00  0.00    +0.000 A 
ATOM     25  C   UNL     1       1.353   3.338  21.075  0.00  0.00    +0.000 A 
ATOM     26  F   UNL     1       0.870   2.539  22.035  0.00  0.00    +0.000 F 
ATOM     27  C   UNL     1       2.393   4.204  21.358  0.00  0.00    +0.000 A 
ATOM     28  C   UNL     1       2.903   5.029  20.346  0.00  0.00    +0.000 A 
ENDBRANCH  21  22
BRANCH  21  29
ATOM     29  C   UNL     1       4.188   5.562  17.309  0.00  0.00    +0.000 A 
ATOM     30  C   UNL     1       4.451   4.344  16.648  0.00  0.00    +0.000 A 
ATOM     31  C   UNL     1       5.658   4.103  15.986  0.00  0.00    +0.000 A 
ATOM     32  C   UNL     1       6.634   5.081  15.977  0.00  0.00    +0.000 A 
ATOM     33  F   UNL     1       7.797   4.847  15.357  0.00  0.00    +0.000 F 
ATOM     34  C   UNL     1       6.421   6.295  16.615  0.00  0.00    +0.000 A 
ATOM     35  C   UNL     1       5.210   6.527  17.276  0.00  0.00    +0.000 A 
ENDBRANCH  21  29
ENDBRANCH  20  21
ENDBRANCH  19  20
ENDBRANCH   1  19
TORSDOF 11
ENDMDL
MODEL 3
REMARK VINA RESULT:      -7.7      2.454      2.765
REMARK  Name = 
REMARK  11 active torsions:
REMARK  status: ('A' for Active; 'I' for Inactive)
REMARK    1  A    between atoms: O_1  and  C_2
REMARK    2  A    between atoms: C_2  and  C_3
REMARK    3  A    between atoms: C_2  and  C_10
REMARK    4  A    between atoms: C_3  and  C_4
REMARK    5  A    between atoms: C_10  and  N_11
REMARK    6  A    between atoms: N_14  and  C_15
REMARK    7  A    between atoms: C_15  and  C_16
REMARK    8  A    between atoms: C_16  and  C_17
REMARK    9  A    between atoms: C_17  and  N_18
REMARK   10  A    between atoms: N_18  and  C_19
REMARK   11  A    between atoms: N_18  and  C_26
REMARK                            x       y       z     vdW  Elec       q    Type
REMARK                         _______ _______ _______ _____ _____    ______ ____
ROOT
ATOM      1  C   UNL     1       1.953   9.267  18.539  0.00  0.00    +0.000 C 
ENDROOT
BRANCH   1   5
ATOM      2  N   UNL     1       0.823  11.794  21.118  0.00  0.00    +0.000 NA
ATOM      3  C   UNL     1       0.993  10.343  21.335  0.00  0.00    +0.000 C 
ATOM      4  C   UNL     1       0.251   9.467  20.301  0.00  0.00    +0.000 C 
ATOM      5  N   UNL     1       0.607   9.752  18.893  0.00  0.00    +0.000 NA
ATOM      6  C   UNL     1       0.492  11.207  18.651  0.00  0.00    +0.000 C 
ATOM      7  C   UNL     1       1.189  12.100  19.712  0.00  0.00    +0.000 C 
BRANCH   2   8
ATOM      8  C   UNL     1      -0.551  12.251  21.404  0.00  0.00    +0.000 C 
BRANCH   8   9
ATOM      9  C   UNL     1      -0.701  13.566  22.211  0.00  0.00    +0.000 C 
BRANCH   9  10
ATOM     10  O   UNL     1       0.625  14.084  22.412  0.00  0.00    +0.000 OA
ATOM     11  H   UNL     1       0.568  15.053  22.338  0.00  0.00    +0.000 HD
ENDBRANCH   9  10
BRANCH   9  12
ATOM     12  C   UNL     1      -1.383  13.332  23.570  0.00  0.00    +0.000 C 
BRANCH  12  13
ATOM     13  C   UNL     1      -2.877  13.589  23.549  0.00  0.00    +0.000 A 
ATOM     14  C   UNL     1      -3.788  12.646  24.044  0.00  0.00    +0.000 A 
ATOM     15  C   UNL     1      -5.160  12.912  24.019  0.00  0.00    +0.000 A 
ATOM     16  C   UNL     1      -5.635  14.115  23.497  0.00  0.00    +0.000 A 
ATOM     17  C   UNL     1      -4.737  15.055  22.997  0.00  0.00    +0.000 A 
ATOM     18  C   UNL     1      -3.368  14.792  23.020  0.00  0.00    +0.000 A 
ENDBRANCH  12  13
ENDBRANCH   9  12
ENDBRANCH   8   9
ENDBRANCH   2   8
ENDBRANCH   1   5
BRANCH   1  19
ATOM     19  C   UNL     1       2.220   7.825  18.986  0.00  0.00    +0.000 C 
BRANCH  19  20
ATOM     20  C   UNL     1       2.143   6.848  17.805  0.00  0.00    +0.000 C 
BRANCH  20  21
ATOM     21  N   UNL     1       2.926   5.619  18.069  0.00  0.00    +0.000 N 
BRANCH  21  22
ATOM     22  C   UNL     1       4.136   5.436  17.339  0.00  0.00    +0.000 A 
ATOM     23  C   UNL     1       5.142   6.417  17.265  0.00  0.00    +0.000 A 
ATOM     24  C   UNL     1       6.341   6.195  16.573  0.00  0.00    +0.000 A 
ATOM     25  C   UNL     1       6.556   4.980  15.944  0.00  0.00    +0.000 A 
ATOM     26  F   UNL     1       7.711   4.760  15.303  0.00  0.00    +0.000 F 
ATOM     27  C   UNL     1       5.589   3.992  15.982  0.00  0.00    +0.000 A 
ATOM     28  C   UNL     1       4.387   4.224  16.666  0.00  0.00    +0.000 A 
ENDBRANCH  21  22
BRANCH  21  29
ATOM     29  C   UNL     1       2.412   4.779  19.096  0.00  0.00    +0.000 A 
ATOM     30  C   UNL     1       1.360   3.866  18.875  0.00  0.00    +0.000 A 
ATOM     31  C   UNL     1       0.841   3.069  19.898  0.00  0.00    +0.000 A 
ATOM     32  C   UNL     1       1.365   3.173  21.173  0.00  0.00    +0.000 A 
ATOM     33  F   UNL     1       0.859   2.422  22.157  0.00  0.00    +0.000 F 
ATOM     34  C   UNL     1       2.400   4.058  21.439  0.00  0.00    +0.000 A 
ATOM     35  C   UNL     1       2.912   4.854  20.408  0.00  0.00    +0.000 A 
ENDBRANCH  21  29
ENDBRANCH  20  21
ENDBRANCH  19  20
ENDBRANCH   1  19
TORSDOF 11
ENDMDL
MODEL 4
REMARK VINA RESULT:      -7.6      1.969      2.459
REMARK  Name = 
REMARK  11 active torsions:
REMARK  status: ('A' for Active; 'I' for Inactive)
REMARK    1  A    between atoms: O_1  and  C_2
REMARK    2  A    between atoms: C_2  and  C_3
REMARK    3  A    between atoms: C_2  and  C_10
REMARK    4  A    between atoms: C_3  and  C_4
REMARK    5  A    between atoms: C_10  and  N_11
REMARK    6  A    between atoms: N_14  and  C_15
REMARK    7  A    between atoms: C_15  and  C_16
REMARK    8  A    between atoms: C_16  and  C_17
REMARK    9  A    between atoms: C_17  and  N_18
REMARK   10  A    between atoms: N_18  and  C_19
REMARK   11  A    between atoms: N_18  and  C_26
REMARK                            x       y       z     vdW  Elec       q    Type
REMARK                         _______ _______ _______ _____ _____    ______ ____
ROOT
ATOM      1  C   UNL     1       1.579   9.099  18.945  0.00  0.00    +0.000 C 
ENDROOT
BRANCH   1   5
ATOM      2  N   UNL     1      -0.036  12.136  20.522  0.00  0.00    +0.000 NA
ATOM      3  C   UNL     1       0.960  11.249  21.156  0.00  0.00    +0.000 C 
ATOM      4  C   UNL     1       0.588   9.751  21.098  0.00  0.00    +0.000 C 
ATOM      5  N   UNL     1       0.342   9.237  19.732  0.00  0.00    +0.000 NA
ATOM      6  C   UNL     1      -0.621  10.129  19.048  0.00  0.00    +0.000 C 
ATOM      7  C   UNL     1      -0.288  11.642  19.144  0.00  0.00    +0.000 C 
BRANCH   2   8
ATOM      8  C   UNL     1      -1.299  12.202  21.283  0.00  0.00    +0.000 C 
BRANCH   8   9
ATOM      9  C   UNL     1      -1.186  12.263  22.828  0.00  0.00    +0.000 C 
BRANCH   9  10
ATOM     10  O   UNL     1      -1.720  11.027  23.333  0.00  0.00    +0.000 OA
ATOM     11  H   UNL     1      -1.162  10.759  24.083  0.00  0.00    +0.000 HD
ENDBRANCH   9  10
BRANCH   9  12
ATOM     12  C   UNL     1      -1.968  13.449  23.416  0.00  0.00    +0.000 C 
BRANCH  12  13
ATOM     13  C   UNL     1      -3.470  13.247  23.409  0.00  0.00    +0.000 A 
ATOM     14  C   UNL     1      -4.138  12.693  24.509  0.00  0.00    +0.000 A 
ATOM     15  C   UNL     1      -5.526  12.524  24.479  0.00  0.00    +0.000 A 
ATOM     16  C   UNL     1      -6.256  12.902  23.353  0.00  0.00    +0.000 A 
ATOM     17  C   UNL     1      -5.600  13.448  22.252  0.00  0.00    +0.000 A 
ATOM     18  C   UNL     1      -4.216  13.616  22.280  0.00  0.00    +0.000 A 
ENDBRANCH  12  13
ENDBRANCH   9  12
ENDBRANCH   8   9
ENDBRANCH   2   8
ENDBRANCH   1   5
BRANCH   1  19
ATOM     19  C   UNL     1       2.277   7.747  19.134  0.00  0.00    +0.000 C 
BRANCH  19  20
ATOM     20  C   UNL     1       2.233   6.908  17.850  0.00  0.00    +0.000 C 
BRANCH  20  21
ATOM     21  N   UNL     1       2.935   5.616  18.025  0.00  0.00    +0.000 N 
BRANCH  21  22
ATOM     22  C   UNL     1       4.091   5.378  17.225  0.00  0.00    +0.000 A 
ATOM     23  C   UNL     1       4.493   4.091  16.824  0.00  0.00    +0.000 A 
ATOM     24  C   UNL     1       5.611   3.888  16.003  0.00  0.00    +0.000 A 
ATOM     25  C   UNL     1       6.347   4.976  15.565  0.00  0.00    +0.000 A 
ATOM     26  F   UNL     1       7.402   4.784  14.762  0.00  0.00    +0.000 F 
ATOM     27  C   UNL     1       5.994   6.258  15.945  0.00  0.00    +0.000 A 
ATOM     28  C   UNL     1       4.881   6.454  16.775  0.00  0.00    +0.000 A 
ENDBRANCH  21  22
BRANCH  21  29
ATOM     29  C   UNL     1       2.412   4.772  19.044  0.00  0.00    +0.000 A 
ATOM     30  C   UNL     1       1.363   3.859  18.809  0.00  0.00    +0.000 A 
ATOM     31  C   UNL     1       0.835   3.058  19.825  0.00  0.00    +0.000 A 
ATOM     32  C   UNL     1       1.346   3.160  21.105  0.00  0.00    +0.000 A 
ATOM     33  F   UNL     1       0.830   2.405  22.083  0.00  0.00    +0.000 F 
ATOM     34  C   UNL     1       2.377   4.045  21.384  0.00  0.00    +0.000 A 
ATOM     35  C   UNL     1       2.899   4.845  20.361  0.00  0.00    +0.000 A 
ENDBRANCH  21  29
ENDBRANCH  20  21
ENDBRANCH  19  20
ENDBRANCH   1  19
TORSDOF 11
ENDMDL
MODEL 5
REMARK VINA RESULT:      -7.6      2.228      2.740
REMARK  Name = 
REMARK  11 active torsions:
REMARK  status: ('A' for Active; 'I' for Inactive)
REMARK    1  A    between atoms: O_1  and  C_2
REMARK    2  A    between atoms: C_2  and  C_3
REMARK    3  A    between atoms: C_2  and  C_10
REMARK    4  A    between atoms: C_3  and  C_4
REMARK    5  A    between atoms: C_10  and  N_11
REMARK    6  A    between atoms: N_14  and  C_15
REMARK    7  A    between atoms: C_15  and  C_16
REMARK    8  A    between atoms: C_16  and  C_17
REMARK    9  A    between atoms: C_17  and  N_18
REMARK   10  A    between atoms: N_18  and  C_19
REMARK   11  A    between atoms: N_18  and  C_26
REMARK                            x       y       z     vdW  Elec       q    Type
REMARK                         _______ _______ _______ _____ _____    ______ ____
ROOT
ATOM      1  C   UNL     1       1.747   8.837  19.352  0.00  0.00    +0.000 C 
ENDROOT
BRANCH   1   5
ATOM      2  N   UNL     1       0.655  11.833  21.390  0.00  0.00    +0.000 NA
ATOM      3  C   UNL     1       0.387  10.416  21.710  0.00  0.00    +0.000 C 
ATOM      4  C   UNL     1      -0.252   9.624  20.547  0.00  0.00    +0.000 C 
ATOM      5  N   UNL     1       0.524   9.657  19.288  0.00  0.00    +0.000 NA
ATOM      6  C   UNL     1       0.850  11.063  18.959  0.00  0.00    +0.000 C 
ATOM      7  C   UNL     1       1.445  11.885  20.133  0.00  0.00    +0.000 C 
BRANCH   2   8
ATOM      8  C   UNL     1      -0.583  12.624  21.252  0.00  0.00    +0.000 C 
BRANCH   8   9
ATOM      9  C   UNL     1      -0.765  13.820  22.222  0.00  0.00    +0.000 C 
BRANCH   9  10
ATOM     10  O   UNL     1       0.549  14.330  22.505  0.00  0.00    +0.000 OA
ATOM     11  H   UNL     1       0.694  14.232  23.462  0.00  0.00    +0.000 HD
ENDBRANCH   9  10
BRANCH   9  12
ATOM     12  C   UNL     1      -1.456  13.400  23.530  0.00  0.00    +0.000 C 
BRANCH  12  13
ATOM     13  C   UNL     1      -2.929  13.756  23.578  0.00  0.00    +0.000 A 
ATOM     14  C   UNL     1      -3.356  15.075  23.780  0.00  0.00    +0.000 A 
ATOM     15  C   UNL     1      -4.721  15.376  23.813  0.00  0.00    +0.000 A 
ATOM     16  C   UNL     1      -5.669  14.367  23.648  0.00  0.00    +0.000 A 
ATOM     17  C   UNL     1      -5.254  13.052  23.452  0.00  0.00    +0.000 A 
ATOM     18  C   UNL     1      -3.892  12.749  23.420  0.00  0.00    +0.000 A 
ENDBRANCH  12  13
ENDBRANCH   9  12
ENDBRANCH   8   9
ENDBRANCH   2   8
ENDBRANCH   1   5
BRANCH   1  19
ATOM     19  C   UNL     1       1.864   7.823  18.208  0.00  0.00    +0.000 C 
BRANCH  19  20
ATOM     20  C   UNL     1       3.327   7.445  17.941  0.00  0.00    +0.000 C 
BRANCH  20  21
ATOM     21  N   UNL     1       3.494   5.978  17.832  0.00  0.00    +0.000 N 
BRANCH  21  22
ATOM     22  C   UNL     1       4.416   5.487  16.862  0.00  0.00    +0.000 A 
ATOM     23  C   UNL     1       4.719   4.122  16.715  0.00  0.00    +0.000 A 
ATOM     24  C   UNL     1       5.599   3.662  15.724  0.00  0.00    +0.000 A 
ATOM     25  C   UNL     1       6.191   4.567  14.859  0.00  0.00    +0.000 A 
ATOM     26  F   UNL     1       7.013   4.126  13.898  0.00  0.00    +0.000 F 
ATOM     27  C   UNL     1       5.930   5.920  14.976  0.00  0.00    +0.000 A 
ATOM     28  C   UNL     1       5.058   6.375  15.975  0.00  0.00    +0.000 A 
ENDBRANCH  21  22
BRANCH  21  29
ATOM     29  C   UNL     1       2.759   5.210  18.778  0.00  0.00    +0.000 A 
ATOM     30  C   UNL     1       3.042   5.233  20.159  0.00  0.00    +0.000 A 
ATOM     31  C   UNL     1       2.335   4.451  21.076  0.00  0.00    +0.000 A 
ATOM     32  C   UNL     1       1.327   3.620  20.624  0.00  0.00    +0.000 A 
ATOM     33  F   UNL     1       0.659   2.858  21.498  0.00  0.00    +0.000 F 
ATOM     34  C   UNL     1       1.013   3.562  19.273  0.00  0.00    +0.000 A 
ATOM     35  C   UNL     1       1.728   4.348  18.362  0.00  0.00    +0.000 A 
ENDBRANCH  21  29
ENDBRANCH  20  21
ENDBRANCH  19  20
ENDBRANCH   1  19
TORSDOF 11
ENDMDL
MODEL 6
REMARK VINA RESULT:      -7.5      1.877      4.724
REMARK  Name = 
REMARK  11 active torsions:
REMARK  status: ('A' for Active; 'I' for Inactive)
REMARK    1  A    between atoms: O_1  and  C_2
REMARK    2  A    between atoms: C_2  and  C_3
REMARK    3  A    between atoms: C_2  and  C_10
REMARK    4  A    between atoms: C_3  and  C_4
REMARK    5  A    between atoms: C_10  and  N_11
REMARK    6  A    between atoms: N_14  and  C_15
REMARK    7  A    between atoms: C_15  and  C_16
REMARK    8  A    between atoms: C_16  and  C_17
REMARK    9  A    between atoms: C_17  and  N_18
REMARK   10  A    between atoms: N_18  and  C_19
REMARK   11  A    between atoms: N_18  and  C_26
REMARK                            x       y       z     vdW  Elec       q    Type
REMARK                         _______ _______ _______ _____ _____    ______ ____
ROOT
ATOM      1  C   UNL     1       1.512   9.257  19.237  0.00  0.00    +0.000 C 
ENDROOT
BRANCH   1   5
ATOM      2  N   UNL     1      -0.442  12.385  20.083  0.00  0.00    +0.000 NA
ATOM      3  C   UNL     1       0.283  11.524  21.039  0.00  0.00    +0.000 C 
ATOM      4  C   UNL     1      -0.088  10.027  20.937  0.00  0.00    +0.000 C 
ATOM      5  N   UNL     1       0.094   9.446  19.588  0.00  0.00    +0.000 NA
ATOM      6  C   UNL     1      -0.584  10.309  18.595  0.00  0.00    +0.000 C 
ATOM      7  C   UNL     1      -0.260  11.822  18.721  0.00  0.00    +0.000 C 
BRANCH   2   8
ATOM      8  C   UNL     1      -1.877  12.501  20.404  0.00  0.00    +0.000 C 
BRANCH   8   9
ATOM      9  C   UNL     1      -2.440  13.933  20.599  0.00  0.00    +0.000 C 
BRANCH   9  10
ATOM     10  O   UNL     1      -1.588  14.820  19.854  0.00  0.00    +0.000 OA
ATOM     11  H   UNL     1      -1.904  15.725  20.019  0.00  0.00    +0.000 HD
ENDBRANCH   9  10
BRANCH   9  12
ATOM     12  C   UNL     1      -2.460  14.347  22.080  0.00  0.00    +0.000 C 
BRANCH  12  13
ATOM     13  C   UNL     1      -3.616  13.753  22.859  0.00  0.00    +0.000 A 
ATOM     14  C   UNL     1      -3.401  12.883  23.937  0.00  0.00    +0.000 A 
ATOM     15  C   UNL     1      -4.485  12.354  24.643  0.00  0.00    +0.000 A 
ATOM     16  C   UNL     1      -5.790  12.684  24.279  0.00  0.00    +0.000 A 
ATOM     17  C   UNL     1      -6.014  13.543  23.206  0.00  0.00    +0.000 A 
ATOM     18  C   UNL     1      -4.934  14.071  22.499  0.00  0.00    +0.000 A 
ENDBRANCH  12  13
ENDBRANCH   9  12
ENDBRANCH   8   9
ENDBRANCH   2   8
ENDBRANCH   1   5
BRANCH   1  19
ATOM     19  C   UNL     1       2.007   7.820  19.442  0.00  0.00    +0.000 C 
BRANCH  19  20
ATOM     20  C   UNL     1       2.392   7.164  18.110  0.00  0.00    +0.000 C 
BRANCH  20  21
ATOM     21  N   UNL     1       3.043   5.851  18.324  0.00  0.00    +0.000 N 
BRANCH  21  22
ATOM     22  C   UNL     1       2.438   4.955  19.252  0.00  0.00    +0.000 A 
ATOM     23  C   UNL     1       1.361   4.115  18.915  0.00  0.00    +0.000 A 
ATOM     24  C   UNL     1       0.810   3.213  19.836  0.00  0.00    +0.000 A 
ATOM     25  C   UNL     1       1.334   3.133  21.116  0.00  0.00    +0.000 A 
ATOM     26  F   UNL     1       0.823   2.256  21.989  0.00  0.00    +0.000 F 
ATOM     27  C   UNL     1       2.386   3.949  21.493  0.00  0.00    +0.000 A 
ATOM     28  C   UNL     1       2.924   4.857  20.570  0.00  0.00    +0.000 A 
ENDBRANCH  21  22
BRANCH  21  29
ATOM     29  C   UNL     1       4.180   5.596  17.506  0.00  0.00    +0.000 A 
ATOM     30  C   UNL     1       5.207   6.543  17.318  0.00  0.00    +0.000 A 
ATOM     31  C   UNL     1       6.304   6.295  16.488  0.00  0.00    +0.000 A 
ATOM     32  C   UNL     1       6.391   5.088  15.820  0.00  0.00    +0.000 A 
ATOM     33  F   UNL     1       7.431   4.855  15.013  0.00  0.00    +0.000 F 
ATOM     34  C   UNL     1       5.403   4.125  15.974  0.00  0.00    +0.000 A 
ATOM     35  C   UNL     1       4.308   4.383  16.806  0.00  0.00    +0.000 A 
ENDBRANCH  21  29
ENDBRANCH  20  21
ENDBRANCH  19  20
ENDBRANCH   1  19
TORSDOF 11
ENDMDL
MODEL 7
REMARK VINA RESULT:      -7.5      1.624      4.607
REMARK  Name = 
REMARK  11 active torsions:
REMARK  status: ('A' for Active; 'I' for Inactive)
REMARK    1  A    between atoms: O_1  and  C_2
REMARK    2  A    between atoms: C_2  and  C_3
REMARK    3  A    between atoms: C_2  and  C_10
REMARK    4  A    between atoms: C_3  and  C_4
REMARK    5  A    between atoms: C_10  and  N_11
REMARK    6  A    between atoms: N_14  and  C_15
REMARK    7  A    between atoms: C_15  and  C_16
REMARK    8  A    between atoms: C_16  and  C_17
REMARK    9  A    between atoms: C_17  and  N_18
REMARK   10  A    between atoms: N_18  and  C_19
REMARK   11  A    between atoms: N_18  and  C_26
REMARK                            x       y       z     vdW  Elec       q    Type
REMARK                         _______ _______ _______ _____ _____    ______ ____
ROOT
ATOM      1  C   UNL     1       1.871   8.356  19.578  0.00  0.00    +0.000 C 
ENDROOT
BRANCH   1   5
ATOM      2  N   UNL     1       0.623  11.367  21.501  0.00  0.00    +0.000 NA
ATOM      3  C   UNL     1       0.713   9.983  22.009  0.00  0.00    +0.000 C 
ATOM      4  C   UNL     1       0.029   8.938  21.099  0.00  0.00    +0.000 C 
ATOM      5  N   UNL     1       0.521   8.932  19.703  0.00  0.00    +0.000 NA
ATOM      6  C   UNL     1       0.487  10.314  19.174  0.00  0.00    +0.000 C 
ATOM      7  C   UNL     1       1.124  11.382  20.103  0.00  0.00    +0.000 C 
BRANCH   2   8
ATOM      8  C   UNL     1      -0.751  11.902  21.561  0.00  0.00    +0.000 C 
BRANCH   8   9
ATOM      9  C   UNL     1      -1.285  12.314  22.957  0.00  0.00    +0.000 C 
BRANCH   9  10
ATOM     10  O   UNL     1      -2.052  11.203  23.453  0.00  0.00    +0.000 OA
ATOM     11  H   UNL     1      -1.914  11.167  24.415  0.00  0.00    +0.000 HD
ENDBRANCH   9  10
BRANCH   9  12
ATOM     12  C   UNL     1      -2.168  13.571  22.888  0.00  0.00    +0.000 C 
BRANCH  12  13
ATOM     13  C   UNL     1      -3.647  13.264  22.766  0.00  0.00    +0.000 A 
ATOM     14  C   UNL     1      -4.230  12.954  21.530  0.00  0.00    +0.000 A 
ATOM     15  C   UNL     1      -5.596  12.668  21.447  0.00  0.00    +0.000 A 
ATOM     16  C   UNL     1      -6.391  12.694  22.592  0.00  0.00    +0.000 A 
ATOM     17  C   UNL     1      -5.822  13.007  23.824  0.00  0.00    +0.000 A 
ATOM     18  C   UNL     1      -4.460  13.293  23.909  0.00  0.00    +0.000 A 
ENDBRANCH  12  13
ENDBRANCH   9  12
ENDBRANCH   8   9
ENDBRANCH   2   8
ENDBRANCH   1   5
BRANCH   1  19
ATOM     19  C   UNL     1       2.172   7.799  18.181  0.00  0.00    +0.000 C 
BRANCH  19  20
ATOM     20  C   UNL     1       3.615   7.290  18.079  0.00  0.00    +0.000 C 
BRANCH  20  21
ATOM     21  N   UNL     1       3.659   5.815  17.946  0.00  0.00    +0.000 N 
BRANCH  21  22
ATOM     22  C   UNL     1       2.842   5.047  18.826  0.00  0.00    +0.000 A 
ATOM     23  C   UNL     1       1.746   4.285  18.383  0.00  0.00    +0.000 A 
ATOM     24  C   UNL     1       0.983   3.505  19.264  0.00  0.00    +0.000 A 
ATOM     25  C   UNL     1       1.310   3.473  20.610  0.00  0.00    +0.000 A 
ATOM     26  F   UNL     1       0.596   2.711  21.448  0.00  0.00    +0.000 F 
ATOM     27  C   UNL     1       2.372   4.217  21.090  0.00  0.00    +0.000 A 
ATOM     28  C   UNL     1       3.124   5.003  20.206  0.00  0.00    +0.000 A 
ENDBRANCH  21  22
BRANCH  21  29
ATOM     29  C   UNL     1       4.470   5.324  16.885  0.00  0.00    +0.000 A 
ATOM     30  C   UNL     1       4.802   3.960  16.753  0.00  0.00    +0.000 A 
ATOM     31  C   UNL     1       5.625   3.492  15.725  0.00  0.00    +0.000 A 
ATOM     32  C   UNL     1       6.140   4.388  14.807  0.00  0.00    +0.000 A 
ATOM     33  F   UNL     1       6.942   3.944  13.832  0.00  0.00    +0.000 F 
ATOM     34  C   UNL     1       5.843   5.740  14.898  0.00  0.00    +0.000 A 
ATOM     35  C   UNL     1       5.019   6.199  15.931  0.00  0.00    +0.000 A 
ENDBRANCH  21  29
ENDBRANCH  20  21
ENDBRANCH  19  20
ENDBRANCH   1  19
TORSDOF 11
ENDMDL
MODEL 8
REMARK VINA RESULT:      -7.5      1.894      2.495
REMARK  Name = 
REMARK  11 active torsions:
REMARK  status: ('A' for Active; 'I' for Inactive)
REMARK    1  A    between atoms: O_1  and  C_2
REMARK    2  A    between atoms: C_2  and  C_3
REMARK    3  A    between atoms: C_2  and  C_10
REMARK    4  A    between atoms: C_3  and  C_4
REMARK    5  A    between atoms: C_10  and  N_11
REMARK    6  A    between atoms: N_14  and  C_15
REMARK    7  A    between atoms: C_15  and  C_16
REMARK    8  A    between atoms: C_16  and  C_17
REMARK    9  A    between atoms: C_17  and  N_18
REMARK   10  A    between atoms: N_18  and  C_19
REMARK   11  A    between atoms: N_18  and  C_26
REMARK                            x       y       z     vdW  Elec       q    Type
REMARK                         _______ _______ _______ _____ _____    ______ ____
ROOT
ATOM      1  C   UNL     1       2.021   9.225  18.218  0.00  0.00    +0.000 C 
ENDROOT
BRANCH   1   5
ATOM      2  N   UNL     1       0.424  11.628  20.667  0.00  0.00    +0.000 NA
ATOM      3  C   UNL     1       1.035  10.324  20.996  0.00  0.00    +0.000 C 
ATOM      4  C   UNL     1       0.498   9.151  20.146  0.00  0.00    +0.000 C 
ATOM      5  N   UNL     1       0.629   9.347  18.685  0.00  0.00    +0.000 NA
ATOM      6  C   UNL     1       0.066  10.667  18.324  0.00  0.00    +0.000 C 
ATOM      7  C   UNL     1       0.557  11.847  19.204  0.00  0.00    +0.000 C 
BRANCH   2   8
ATOM      8  C   UNL     1      -0.993  11.706  21.072  0.00  0.00    +0.000 C 
BRANCH   8   9
ATOM      9  C   UNL     1      -1.338  12.665  22.240  0.00  0.00    +0.000 C 
BRANCH   9  10
ATOM     10  O   UNL     1      -0.089  13.119  22.788  0.00  0.00    +0.000 OA
ATOM     11  H   UNL     1       0.614  12.589  22.376  0.00  0.00    +0.000 HD
ENDBRANCH   9  10
BRANCH   9  12
ATOM     12  C   UNL     1      -2.166  11.968  23.332  0.00  0.00    +0.000 C 
BRANCH  12  13
ATOM     13  C   UNL     1      -3.625  12.378  23.340  0.00  0.00    +0.000 A 
ATOM     14  C   UNL     1      -4.368  12.417  24.527  0.00  0.00    +0.000 A 
ATOM     15  C   UNL     1      -5.710  12.806  24.506  0.00  0.00    +0.000 A 
ATOM     16  C   UNL     1      -6.323  13.156  23.304  0.00  0.00    +0.000 A 
ATOM     17  C   UNL     1      -5.595  13.115  22.118  0.00  0.00    +0.000 A 
ATOM     18  C   UNL     1      -4.255  12.726  22.136  0.00  0.00    +0.000 A 
ENDBRANCH  12  13
ENDBRANCH   9  12
ENDBRANCH   8   9
ENDBRANCH   2   8
ENDBRANCH   1   5
BRANCH   1  19
ATOM     19  C   UNL     1       2.433   7.785  17.891  0.00  0.00    +0.000 C 
BRANCH  19  20
ATOM     20  C   UNL     1       3.331   7.196  18.986  0.00  0.00    +0.000 C 
BRANCH  20  21
ATOM     21  N   UNL     1       3.689   5.789  18.693  0.00  0.00    +0.000 N 
BRANCH  21  22
ATOM     22  C   UNL     1       4.637   5.549  17.656  0.00  0.00    +0.000 A 
ATOM     23  C   UNL     1       4.378   4.705  16.562  0.00  0.00    +0.000 A 
ATOM     24  C   UNL     1       5.313   4.518  15.533  0.00  0.00    +0.000 A 
ATOM     25  C   UNL     1       6.528   5.183  15.582  0.00  0.00    +0.000 A 
ATOM     26  F   UNL     1       7.412   5.023  14.589  0.00  0.00    +0.000 F 
ATOM     27  C   UNL     1       6.828   6.014  16.646  0.00  0.00    +0.000 A 
ATOM     28  C   UNL     1       5.893   6.187  17.677  0.00  0.00    +0.000 A 
ENDBRANCH  21  22
BRANCH  21  29
ATOM     29  C   UNL     1       3.092   4.819  19.546  0.00  0.00    +0.000 A 
ATOM     30  C   UNL     1       3.756   3.634  19.929  0.00  0.00    +0.000 A 
ATOM     31  C   UNL     1       3.149   2.673  20.742  0.00  0.00    +0.000 A 
ATOM     32  C   UNL     1       1.856   2.878  21.186  0.00  0.00    +0.000 A 
ATOM     33  F   UNL     1       1.268   1.951  21.952  0.00  0.00    +0.000 F 
ATOM     34  C   UNL     1       1.163   4.027  20.834  0.00  0.00    +0.000 A 
ATOM     35  C   UNL     1       1.778   4.984  20.018  0.00  0.00    +0.000 A 
ENDBRANCH  21  29
ENDBRANCH  20  21
ENDBRANCH  19  20
ENDBRANCH   1  19
TORSDOF 11
ENDMDL
MODEL 9
REMARK VINA RESULT:      -7.5      1.232      4.485
REMARK  Name = 
REMARK  11 active torsions:
REMARK  status: ('A' for Active; 'I' for Inactive)
REMARK    1  A    between atoms: O_1  and  C_2
REMARK    2  A    between atoms: C_2  and  C_3
REMARK    3  A    between atoms: C_2  and  C_10
REMARK    4  A    between atoms: C_3  and  C_4
REMARK    5  A    between atoms: C_10  and  N_11
REMARK    6  A    between atoms: N_14  and  C_15
REMARK    7  A    between atoms: C_15  and  C_16
REMARK    8  A    between atoms: C_16  and  C_17
REMARK    9  A    between atoms: C_17  and  N_18
REMARK   10  A    between atoms: N_18  and  C_19
REMARK   11  A    between atoms: N_18  and  C_26
REMARK                            x       y       z     vdW  Elec       q    Type
REMARK                         _______ _______ _______ _____ _____    ______ ____
ROOT
ATOM      1  C   UNL     1       1.971   8.806  19.248  0.00  0.00    +0.000 C 
ENDROOT
BRANCH   1   5
ATOM      2  N   UNL     1       0.752  11.834  21.161  0.00  0.00    +0.000 NA
ATOM      3  C   UNL     1       0.652  10.427  21.599  0.00  0.00    +0.000 C 
ATOM      4  C   UNL     1       0.004   9.493  20.552  0.00  0.00    +0.000 C 
ATOM      5  N   UNL     1       0.673   9.501  19.232  0.00  0.00    +0.000 NA
ATOM      6  C   UNL     1       0.831  10.902  18.781  0.00  0.00    +0.000 C 
ATOM      7  C   UNL     1       1.432  11.863  19.841  0.00  0.00    +0.000 C 
BRANCH   2   8
ATOM      8  C   UNL     1      -0.565  12.494  21.076  0.00  0.00    +0.000 C 
BRANCH   8   9
ATOM      9  C   UNL     1      -1.209  12.599  19.670  0.00  0.00    +0.000 C 
BRANCH   9  10
ATOM     10  O   UNL     1      -1.284  13.999  19.349  0.00  0.00    +0.000 OA
ATOM     11  H   UNL     1      -1.188  14.489  20.184  0.00  0.00    +0.000 HD
ENDBRANCH   9  10
BRANCH   9  12
ATOM     12  C   UNL     1      -2.616  11.979  19.633  0.00  0.00    +0.000 C 
BRANCH  12  13
ATOM     13  C   UNL     1      -3.042  11.526  18.250  0.00  0.00    +0.000 A 
ATOM     14  C   UNL     1      -4.327  11.790  17.758  0.00  0.00    +0.000 A 
ATOM     15  C   UNL     1      -4.691  11.367  16.476  0.00  0.00    +0.000 A 
ATOM     16  C   UNL     1      -3.780  10.677  15.678  0.00  0.00    +0.000 A 
ATOM     17  C   UNL     1      -2.502  10.405  16.160  0.00  0.00    +0.000 A 
ATOM     18  C   UNL     1      -2.137  10.825  17.440  0.00  0.00    +0.000 A 
ENDBRANCH  12  13
ENDBRANCH   9  12
ENDBRANCH   8   9
ENDBRANCH   2   8
ENDBRANCH   1   5
BRANCH   1  19
ATOM     19  C   UNL     1       2.043   7.622  18.275  0.00  0.00    +0.000 C 
BRANCH  19  20
ATOM     20  C   UNL     1       3.495   7.238  17.965  0.00  0.00    +0.000 C 
BRANCH  20  21
ATOM     21  N   UNL     1       3.658   5.768  17.878  0.00  0.00    +0.000 N 
BRANCH  21  22
ATOM     22  C   UNL     1       2.915   4.965  18.790  0.00  0.00    +0.000 A 
ATOM     23  C   UNL     1       3.193   4.914  20.168  0.00  0.00    +0.000 A 
ATOM     24  C   UNL     1       2.420   4.146  21.051  0.00  0.00    +0.000 A 
ATOM     25  C   UNL     1       1.347   3.416  20.566  0.00  0.00    +0.000 A 
ATOM     26  F   UNL     1       0.594   2.701  21.412  0.00  0.00    +0.000 F 
ATOM     27  C   UNL     1       1.046   3.429  19.216  0.00  0.00    +0.000 A 
ATOM     28  C   UNL     1       1.830   4.189  18.337  0.00  0.00    +0.000 A 
ENDBRANCH  21  22
BRANCH  21  29
ATOM     29  C   UNL     1       4.496   5.311  16.822  0.00  0.00    +0.000 A 
ATOM     30  C   UNL     1       4.810   3.949  16.638  0.00  0.00    +0.000 A 
ATOM     31  C   UNL     1       5.659   3.513  15.618  0.00  0.00    +0.000 A 
ATOM     32  C   UNL     1       6.220   4.440  14.760  0.00  0.00    +0.000 A 
ATOM     33  F   UNL     1       7.046   4.027  13.792  0.00  0.00    +0.000 F 
ATOM     34  C   UNL     1       5.942   5.792  14.903  0.00  0.00    +0.000 A 
ATOM     35  C   UNL     1       5.091   6.219  15.928  0.00  0.00    +0.000 A 
ENDBRANCH  21  29
ENDBRANCH  20  21
ENDBRANCH  19  20
ENDBRANCH   1  19
TORSDOF 11
ENDMDL
