MODEL 1
REMARK VINA RESULT:      -8.6      0.000      0.000
REMARK  Name = 
REMARK  5 active torsions:
REMARK  status: ('A' for Active; 'I' for Inactive)
REMARK    1  A    between atoms: C_2  and  C_4
REMARK    2  A    between atoms: C_8  and  N_9
REMARK    3  A    between atoms: N_14  and  C_15
REMARK    4  A    between atoms: N_18  and  C_19
REMARK    5  A    between atoms: C_19  and  C_20
REMARK                            x       y       z     vdW  Elec       q    Type
REMARK                         _______ _______ _______ _____ _____    ______ ____
ROOT
ATOM      1  N   UNL     1       6.560   4.689  16.126  0.00  0.00    +0.000 N 
ATOM      2  C   UNL     1       7.653   5.269  16.916  0.00  0.00    +0.000 C 
ATOM      3  C   UNL     1       7.697   4.839  18.388  0.00  0.00    +0.000 C 
ATOM      4  C   UNL     1       6.571   5.468  19.206  0.00  0.00    +0.000 C 
ATOM      5  C   UNL     1       5.249   4.714  19.080  0.00  0.00    +0.000 C 
ATOM      6  N   UNL     1       5.030   4.126  17.767  0.00  0.00    +0.000 N 
ATOM      7  C   UNL     1       5.281   4.952  16.667  0.00  0.00    +0.000 C 
ATOM      8  O   UNL     1       4.527   5.851  16.313  0.00  0.00    +0.000 OA
ENDROOT
BRANCH   1  13
ATOM      9  C   UNL     1       6.152   3.606  12.527  0.00  0.00    +0.000 A 
ATOM     10  C   UNL     1       7.105   4.397  11.886  0.00  0.00    +0.000 A 
ATOM     11  C   UNL     1       7.881   5.274  12.634  0.00  0.00    +0.000 A 
ATOM     12  C   UNL     1       7.722   5.348  14.022  0.00  0.00    +0.000 A 
ATOM     13  C   UNL     1       6.767   4.579  14.699  0.00  0.00    +0.000 A 
ATOM     14  C   UNL     1       5.960   3.736  13.913  0.00  0.00    +0.000 A 
BRANCH   9  16
ATOM     15  N   UNL     1       5.847   1.429  11.527  0.00  0.00    +0.000 NA
ATOM     16  C   UNL     1       5.347   2.598  11.766  0.00  0.00    +0.000 C 
ATOM     17  N   UNL     1       4.106   2.907  11.287  0.00  0.00    +0.000 N 
ATOM     18  H   UNL     1       5.172   0.863  11.012  0.00  0.00    +0.000 HD
ATOM     19  H   UNL     1       3.768   2.323  10.533  0.00  0.00    +0.000 HD
ATOM     20  H   UNL     1       3.933   3.888  11.095  0.00  0.00    +0.000 HD
ENDBRANCH   9  16
ENDBRANCH   1  13
BRANCH   6  21
ATOM     21  C   UNL     1       4.125   2.953  17.680  0.00  0.00    +0.000 C 
ATOM     22  C   UNL     1       2.737   3.207  17.088  0.00  0.00    +0.000 C 
ATOM     23  C   UNL     1       1.784   3.864  18.085  0.00  0.00    +0.000 C 
ATOM     24  N   UNL     1       1.720   3.266  19.432  0.00  0.00    +0.000 NA
ATOM     25  C   UNL     1       3.053   2.937  19.968  0.00  0.00    +0.000 C 
ATOM     26  C   UNL     1       3.931   2.174  18.985  0.00  0.00    +0.000 C 
BRANCH  24  27
ATOM     27  C   UNL     1       1.069   4.276  20.314  0.00  0.00    +0.000 C 
BRANCH  27  28
ATOM     28  C   UNL     1       1.466   5.696  20.029  0.00  0.00    +0.000 A 
ATOM     29  C   UNL     1       2.189   6.190  18.964  0.00  0.00    +0.000 A 
ATOM     30  C   UNL     1       2.415   7.590  19.066  0.00  0.00    +0.000 A 
ATOM     31  C   UNL     1       1.849   8.122  20.204  0.00  0.00    +0.000 A 
ATOM     32  S   UNL     1       1.052   6.938  21.139  0.00  0.00    +0.000 S 
ENDBRANCH  27  28
ENDBRANCH  24  27
ENDBRANCH   6  21
TORSDOF 5
ENDMDL
MODEL 2
REMARK VINA RESULT:      -8.6      3.427      8.600
REMARK  Name = 
REMARK  5 active torsions:
REMARK  status: ('A' for Active; 'I' for Inactive)
REMARK    1  A    between atoms: C_2  and  C_4
REMARK    2  A    between atoms: C_8  and  N_9
REMARK    3  A    between atoms: N_14  and  C_15
REMARK    4  A    between atoms: N_18  and  C_19
REMARK    5  A    between atoms: C_19  and  C_20
REMARK                            x       y       z     vdW  Elec       q    Type
REMARK                         _______ _______ _______ _____ _____    ______ ____
ROOT
ATOM      1  N   UNL     1       2.090   6.672  20.104  0.00  0.00    +0.000 N 
ATOM      2  C   UNL     1       1.463   5.628  20.925  0.00  0.00    +0.000 C 
ATOM      3  C   UNL     1       2.373   4.450  21.293  0.00  0.00    +0.000 C 
ATOM      4  C   UNL     1       2.660   3.546  20.095  0.00  0.00    +0.000 C 
ATOM      5  C   UNL     1       3.786   4.072  19.208  0.00  0.00    +0.000 C 
ATOM      6  N   UNL     1       3.843   5.524  19.126  0.00  0.00    +0.000 N 
ATOM      7  C   UNL     1       2.630   6.180  18.894  0.00  0.00    +0.000 C 
ATOM      8  O   UNL     1       2.078   6.210  17.801  0.00  0.00    +0.000 OA
ENDROOT
BRANCH   1  13
ATOM      9  C   UNL     1       0.421   9.761  21.507  0.00  0.00    +0.000 A 
ATOM     10  C   UNL     1       0.491  10.635  20.422  0.00  0.00    +0.000 A 
ATOM     11  C   UNL     1       1.075  10.207  19.236  0.00  0.00    +0.000 A 
ATOM     12  C   UNL     1       1.572   8.904  19.124  0.00  0.00    +0.000 A 
ATOM     13  C   UNL     1       1.530   8.003  20.195  0.00  0.00    +0.000 A 
ATOM     14  C   UNL     1       0.980   8.476  21.399  0.00  0.00    +0.000 A 
BRANCH   9  16
ATOM     15  N   UNL     1      -0.068   9.471  23.854  0.00  0.00    +0.000 NA
ATOM     16  C   UNL     1      -0.265  10.160  22.776  0.00  0.00    +0.000 C 
ATOM     17  N   UNL     1      -1.126  11.220  22.806  0.00  0.00    +0.000 N 
ATOM     18  H   UNL     1      -0.596   9.879  24.627  0.00  0.00    +0.000 HD
ATOM     19  H   UNL     1      -1.780  11.233  23.578  0.00  0.00    +0.000 HD
ATOM     20  H   UNL     1      -1.589  11.443  21.932  0.00  0.00    +0.000 HD
ENDBRANCH   9  16
ENDBRANCH   1  13
BRANCH   6  21
ATOM     21  C   UNL     1       5.149   6.144  18.795  0.00  0.00    +0.000 C 
ATOM     22  C   UNL     1       5.232   6.883  17.457  0.00  0.00    +0.000 C 
ATOM     23  C   UNL     1       5.386   5.934  16.270  0.00  0.00    +0.000 C 
ATOM     24  N   UNL     1       6.409   4.879  16.394  0.00  0.00    +0.000 NA
ATOM     25  C   UNL     1       6.391   4.226  17.715  0.00  0.00    +0.000 C 
ATOM     26  C   UNL     1       6.361   5.210  18.878  0.00  0.00    +0.000 C 
BRANCH  24  27
ATOM     27  C   UNL     1       6.108   3.870  15.340  0.00  0.00    +0.000 C 
BRANCH  27  28
ATOM     28  C   UNL     1       6.657   4.206  13.983  0.00  0.00    +0.000 A 
ATOM     29  C   UNL     1       7.578   5.175  13.645  0.00  0.00    +0.000 A 
ATOM     30  C   UNL     1       7.813   5.232  12.243  0.00  0.00    +0.000 A 
ATOM     31  C   UNL     1       7.068   4.298  11.557  0.00  0.00    +0.000 A 
ATOM     32  S   UNL     1       6.095   3.361  12.600  0.00  0.00    +0.000 S 
ENDBRANCH  27  28
ENDBRANCH  24  27
ENDBRANCH   6  21
TORSDOF 5
ENDMDL
MODEL 3
REMARK VINA RESULT:      -8.4      3.176      7.910
REMARK  Name = 
REMARK  5 active torsions:
REMARK  status: ('A' for Active; 'I' for Inactive)
REMARK    1  A    between atoms: C_2  and  C_4
REMARK    2  A    between atoms: C_8  and  N_9
REMARK    3  A    between atoms: N_14  and  C_15
REMARK    4  A    between atoms: N_18  and  C_19
REMARK    5  A    between atoms: C_19  and  C_20
REMARK                            x       y       z     vdW  Elec       q    Type
REMARK                         _______ _______ _______ _____ _____    ______ ____
ROOT
ATOM      1  N   UNL     1       2.553   5.913  19.730  0.00  0.00    +0.000 N 
ATOM      2  C   UNL     1       1.757   5.128  20.681  0.00  0.00    +0.000 C 
ATOM      3  C   UNL     1       2.522   4.024  21.421  0.00  0.00    +0.000 C 
ATOM      4  C   UNL     1       2.867   2.849  20.509  0.00  0.00    +0.000 C 
ATOM      5  C   UNL     1       4.124   3.091  19.676  0.00  0.00    +0.000 C 
ATOM      6  N   UNL     1       4.307   4.477  19.272  0.00  0.00    +0.000 N 
ATOM      7  C   UNL     1       3.184   5.122  18.744  0.00  0.00    +0.000 C 
ATOM      8  O   UNL     1       2.762   4.921  17.611  0.00  0.00    +0.000 OA
ENDROOT
BRANCH   1  13
ATOM      9  C   UNL     1       1.119   9.380  20.199  0.00  0.00    +0.000 A 
ATOM     10  C   UNL     1       1.258   9.917  18.919  0.00  0.00    +0.000 A 
ATOM     11  C   UNL     1       1.811   9.140  17.908  0.00  0.00    +0.000 A 
ATOM     12  C   UNL     1       2.208   7.824  18.167  0.00  0.00    +0.000 A 
ATOM     13  C   UNL     1       2.096   7.255  19.442  0.00  0.00    +0.000 A 
ATOM     14  C   UNL     1       1.579   8.078  20.459  0.00  0.00    +0.000 A 
BRANCH   9  16
ATOM     15  N   UNL     1       0.787   9.930  22.527  0.00  0.00    +0.000 NA
ATOM     16  C   UNL     1       0.462  10.160  21.296  0.00  0.00    +0.000 C 
ATOM     17  N   UNL     1      -0.503  11.085  21.019  0.00  0.00    +0.000 N 
ATOM     18  H   UNL     1       0.260  10.548  23.145  0.00  0.00    +0.000 HD
ATOM     19  H   UNL     1      -1.114  11.327  21.789  0.00  0.00    +0.000 HD
ATOM     20  H   UNL     1      -1.032  10.937  20.166  0.00  0.00    +0.000 HD
ENDBRANCH   9  16
ENDBRANCH   1  13
BRANCH   6  21
ATOM     21  C   UNL     1       5.687   4.932  18.978  0.00  0.00    +0.000 C 
ATOM     22  C   UNL     1       5.837   6.370  18.475  0.00  0.00    +0.000 C 
ATOM     23  C   UNL     1       5.477   6.516  16.997  0.00  0.00    +0.000 C 
ATOM     24  N   UNL     1       6.069   5.532  16.071  0.00  0.00    +0.000 NA
ATOM     25  C   UNL     1       6.008   4.156  16.594  0.00  0.00    +0.000 C 
ATOM     26  C   UNL     1       6.490   4.031  18.034  0.00  0.00    +0.000 C 
BRANCH  24  27
ATOM     27  C   UNL     1       5.286   5.616  14.807  0.00  0.00    +0.000 C 
BRANCH  27  28
ATOM     28  C   UNL     1       5.777   4.713  13.712  0.00  0.00    +0.000 A 
ATOM     29  C   UNL     1       5.113   3.675  13.091  0.00  0.00    +0.000 A 
ATOM     30  C   UNL     1       5.927   3.011  12.132  0.00  0.00    +0.000 A 
ATOM     31  C   UNL     1       7.183   3.569  12.046  0.00  0.00    +0.000 A 
ATOM     32  S   UNL     1       7.376   4.885  13.116  0.00  0.00    +0.000 S 
ENDBRANCH  27  28
ENDBRANCH  24  27
ENDBRANCH   6  21
TORSDOF 5
ENDMDL
MODEL 4
REMARK VINA RESULT:      -8.3      6.290      9.783
REMARK  Name = 
REMARK  5 active torsions:
REMARK  status: ('A' for Active; 'I' for Inactive)
REMARK    1  A    between atoms: C_2  and  C_4
REMARK    2  A    between atoms: C_8  and  N_9
REMARK    3  A    between atoms: N_14  and  C_15
REMARK    4  A    between atoms: N_18  and  C_19
REMARK    5  A    between atoms: C_19  and  C_20
REMARK                            x       y       z     vdW  Elec       q    Type
REMARK                         _______ _______ _______ _____ _____    ______ ____
ROOT
ATOM      1  N   UNL     1       0.720   9.292  20.695  0.00  0.00    +0.000 N 
ATOM      2  C   UNL     1       0.596   8.695  22.030  0.00  0.00    +0.000 C 
ATOM      3  C   UNL     1      -0.686   9.052  22.791  0.00  0.00    +0.000 C 
ATOM      4  C   UNL     1      -0.685  10.501  23.275  0.00  0.00    +0.000 C 
ATOM      5  C   UNL     1      -1.112  11.491  22.194  0.00  0.00    +0.000 C 
ATOM      6  N   UNL     1      -0.698  11.113  20.851  0.00  0.00    +0.000 N 
ATOM      7  C   UNL     1       0.631  10.702  20.704  0.00  0.00    +0.000 C 
ATOM      8  O   UNL     1       1.580  11.478  20.703  0.00  0.00    +0.000 OA
ENDROOT
BRANCH   1  13
ATOM      9  C   UNL     1       2.948   6.662  19.140  0.00  0.00    +0.000 A 
ATOM     10  C   UNL     1       3.129   7.171  17.855  0.00  0.00    +0.000 A 
ATOM     11  C   UNL     1       2.530   8.376  17.505  0.00  0.00    +0.000 A 
ATOM     12  C   UNL     1       1.766   9.081  18.442  0.00  0.00    +0.000 A 
ATOM     13  C   UNL     1       1.552   8.595  19.738  0.00  0.00    +0.000 A 
ATOM     14  C   UNL     1       2.128   7.351  20.051  0.00  0.00    +0.000 A 
BRANCH   9  16
ATOM     15  N   UNL     1       4.866   5.197  19.232  0.00  0.00    +0.000 NA
ATOM     16  C   UNL     1       3.636   5.406  19.577  0.00  0.00    +0.000 C 
ATOM     17  N   UNL     1       2.974   4.458  20.302  0.00  0.00    +0.000 N 
ATOM     18  H   UNL     1       5.187   4.308  19.616  0.00  0.00    +0.000 HD
ATOM     19  H   UNL     1       3.375   3.529  20.282  0.00  0.00    +0.000 HD
ATOM     20  H   UNL     1       1.968   4.423  20.179  0.00  0.00    +0.000 HD
ENDBRANCH   9  16
ENDBRANCH   1  13
BRANCH   6  21
ATOM     21  C   UNL     1      -1.489  11.639  19.712  0.00  0.00    +0.000 C 
ATOM     22  C   UNL     1      -0.706  11.999  18.448  0.00  0.00    +0.000 C 
ATOM     23  C   UNL     1       0.013  13.343  18.565  0.00  0.00    +0.000 C 
ATOM     24  N   UNL     1      -0.781  14.476  19.077  0.00  0.00    +0.000 NA
ATOM     25  C   UNL     1      -1.607  14.107  20.240  0.00  0.00    +0.000 C 
ATOM     26  C   UNL     1      -2.403  12.824  20.038  0.00  0.00    +0.000 C 
BRANCH  24  27
ATOM     27  C   UNL     1       0.194  15.530  19.476  0.00  0.00    +0.000 C 
BRANCH  27  28
ATOM     28  C   UNL     1       0.319  16.662  18.498  0.00  0.00    +0.000 A 
ATOM     29  C   UNL     1      -0.684  17.394  17.897  0.00  0.00    +0.000 A 
ATOM     30  C   UNL     1      -0.177  18.355  16.980  0.00  0.00    +0.000 A 
ATOM     31  C   UNL     1       1.199  18.332  16.917  0.00  0.00    +0.000 A 
ATOM     32  S   UNL     1       1.870  17.158  17.958  0.00  0.00    +0.000 S 
ENDBRANCH  27  28
ENDBRANCH  24  27
ENDBRANCH   6  21
TORSDOF 5
ENDMDL
MODEL 5
REMARK VINA RESULT:      -8.1      3.337      8.121
REMARK  Name = 
REMARK  5 active torsions:
REMARK  status: ('A' for Active; 'I' for Inactive)
REMARK    1  A    between atoms: C_2  and  C_4
REMARK    2  A    between atoms: C_8  and  N_9
REMARK    3  A    between atoms: N_14  and  C_15
REMARK    4  A    between atoms: N_18  and  C_19
REMARK    5  A    between atoms: C_19  and  C_20
REMARK                            x       y       z     vdW  Elec       q    Type
REMARK                         _______ _______ _______ _____ _____    ______ ____
ROOT
ATOM      1  N   UNL     1       2.105   6.384  20.293  0.00  0.00    +0.000 N 
ATOM      2  C   UNL     1       1.556   5.273  21.079  0.00  0.00    +0.000 C 
ATOM      3  C   UNL     1       2.524   4.112  21.338  0.00  0.00    +0.000 C 
ATOM      4  C   UNL     1       2.786   3.288  20.079  0.00  0.00    +0.000 C 
ATOM      5  C   UNL     1       3.850   3.905  19.174  0.00  0.00    +0.000 C 
ATOM      6  N   UNL     1       3.851   5.360  19.173  0.00  0.00    +0.000 N 
ATOM      7  C   UNL     1       2.606   5.982  19.034  0.00  0.00    +0.000 C 
ATOM      8  O   UNL     1       2.002   6.051  17.970  0.00  0.00    +0.000 OA
ENDROOT
BRANCH   1  13
ATOM      9  C   UNL     1       0.966   9.928  19.633  0.00  0.00    +0.000 A 
ATOM     10  C   UNL     1       0.269  10.223  20.805  0.00  0.00    +0.000 A 
ATOM     11  C   UNL     1       0.183   9.264  21.808  0.00  0.00    +0.000 A 
ATOM     12  C   UNL     1       0.806   8.021  21.651  0.00  0.00    +0.000 A 
ATOM     13  C   UNL     1       1.503   7.686  20.484  0.00  0.00    +0.000 A 
ATOM     14  C   UNL     1       1.535   8.654  19.465  0.00  0.00    +0.000 A 
BRANCH   9  16
ATOM     15  N   UNL     1       0.217  11.841  18.363  0.00  0.00    +0.000 NA
ATOM     16  C   UNL     1       1.143  10.960  18.562  0.00  0.00    +0.000 C 
ATOM     17  N   UNL     1       2.252  10.961  17.764  0.00  0.00    +0.000 N 
ATOM     18  H   UNL     1       0.496  12.472  17.611  0.00  0.00    +0.000 HD
ATOM     19  H   UNL     1       2.160  11.454  16.886  0.00  0.00    +0.000 HD
ATOM     20  H   UNL     1       2.709  10.065  17.634  0.00  0.00    +0.000 HD
ENDBRANCH   9  16
ENDBRANCH   1  13
BRANCH   6  21
ATOM     21  C   UNL     1       5.117   6.048  18.820  0.00  0.00    +0.000 C 
ATOM     22  C   UNL     1       5.123   6.831  17.505  0.00  0.00    +0.000 C 
ATOM     23  C   UNL     1       5.277   5.927  16.283  0.00  0.00    +0.000 C 
ATOM     24  N   UNL     1       6.349   4.914  16.339  0.00  0.00    +0.000 NA
ATOM     25  C   UNL     1       6.404   4.221  17.639  0.00  0.00    +0.000 C 
ATOM     26  C   UNL     1       6.370   5.166  18.833  0.00  0.00    +0.000 C 
BRANCH  24  27
ATOM     27  C   UNL     1       6.055   3.926  15.264  0.00  0.00    +0.000 C 
BRANCH  27  28
ATOM     28  C   UNL     1       6.658   4.262  13.930  0.00  0.00    +0.000 A 
ATOM     29  C   UNL     1       7.563   5.257  13.622  0.00  0.00    +0.000 A 
ATOM     30  C   UNL     1       7.863   5.303  12.233  0.00  0.00    +0.000 A 
ATOM     31  C   UNL     1       7.183   4.336  11.526  0.00  0.00    +0.000 A 
ATOM     32  S   UNL     1       6.192   3.381  12.534  0.00  0.00    +0.000 S 
ENDBRANCH  27  28
ENDBRANCH  24  27
ENDBRANCH   6  21
TORSDOF 5
ENDMDL
MODEL 6
REMARK VINA RESULT:      -8.1     10.118     12.201
REMARK  Name = 
REMARK  5 active torsions:
REMARK  status: ('A' for Active; 'I' for Inactive)
REMARK    1  A    between atoms: C_2  and  C_4
REMARK    2  A    between atoms: C_8  and  N_9
REMARK    3  A    between atoms: N_14  and  C_15
REMARK    4  A    between atoms: N_18  and  C_19
REMARK    5  A    between atoms: C_19  and  C_20
REMARK                            x       y       z     vdW  Elec       q    Type
REMARK                         _______ _______ _______ _____ _____    ______ ____
ROOT
ATOM      1  N   UNL     1       8.705  13.975  20.845  0.00  0.00    +0.000 N 
ATOM      2  C   UNL     1       8.001  13.252  21.912  0.00  0.00    +0.000 C 
ATOM      3  C   UNL     1       6.851  14.020  22.574  0.00  0.00    +0.000 C 
ATOM      4  C   UNL     1       7.352  15.154  23.467  0.00  0.00    +0.000 C 
ATOM      5  C   UNL     1       7.682  16.424  22.688  0.00  0.00    +0.000 C 
ATOM      6  N   UNL     1       8.220  16.178  21.358  0.00  0.00    +0.000 N 
ATOM      7  C   UNL     1       9.232  15.216  21.266  0.00  0.00    +0.000 C 
ATOM      8  O   UNL     1      10.388  15.419  21.620  0.00  0.00    +0.000 OA
ENDROOT
BRANCH   1  13
ATOM      9  C   UNL     1      10.742  13.026  17.805  0.00  0.00    +0.000 A 
ATOM     10  C   UNL     1      10.741  11.634  17.889  0.00  0.00    +0.000 A 
ATOM     11  C   UNL     1      10.068  11.012  18.935  0.00  0.00    +0.000 A 
ATOM     12  C   UNL     1       9.381  11.777  19.884  0.00  0.00    +0.000 A 
ATOM     13  C   UNL     1       9.369  13.176  19.838  0.00  0.00    +0.000 A 
ATOM     14  C   UNL     1      10.098  13.782  18.799  0.00  0.00    +0.000 A 
BRANCH   9  16
ATOM     15  N   UNL     1      11.070  14.952  16.386  0.00  0.00    +0.000 NA
ATOM     16  C   UNL     1      11.393  13.728  16.654  0.00  0.00    +0.000 C 
ATOM     17  N   UNL     1      12.297  13.084  15.859  0.00  0.00    +0.000 N 
ATOM     18  H   UNL     1      11.609  15.285  15.585  0.00  0.00    +0.000 HD
ATOM     19  H   UNL     1      12.445  13.490  14.944  0.00  0.00    +0.000 HD
ATOM     20  H   UNL     1      12.202  12.076  15.800  0.00  0.00    +0.000 HD
ENDBRANCH   9  16
ENDBRANCH   1  13
BRANCH   6  21
ATOM     21  C   UNL     1       8.050  17.241  20.338  0.00  0.00    +0.000 C 
ATOM     22  C   UNL     1       6.860  18.185  20.530  0.00  0.00    +0.000 C 
ATOM     23  C   UNL     1       5.537  17.558  20.092  0.00  0.00    +0.000 C 
ATOM     24  N   UNL     1       5.522  16.895  18.775  0.00  0.00    +0.000 NA
ATOM     25  C   UNL     1       6.713  16.056  18.551  0.00  0.00    +0.000 C 
ATOM     26  C   UNL     1       8.023  16.760  18.884  0.00  0.00    +0.000 C 
BRANCH  24  27
ATOM     27  C   UNL     1       4.302  16.040  18.744  0.00  0.00    +0.000 C 
BRANCH  27  28
ATOM     28  C   UNL     1       3.068  16.737  18.247  0.00  0.00    +0.000 A 
ATOM     29  C   UNL     1       2.795  17.200  16.977  0.00  0.00    +0.000 A 
ATOM     30  C   UNL     1       1.537  17.859  16.902  0.00  0.00    +0.000 A 
ATOM     31  C   UNL     1       0.887  17.870  18.116  0.00  0.00    +0.000 A 
ATOM     32  S   UNL     1       1.790  17.090  19.336  0.00  0.00    +0.000 S 
ENDBRANCH  27  28
ENDBRANCH  24  27
ENDBRANCH   6  21
TORSDOF 5
ENDMDL
MODEL 7
REMARK VINA RESULT:      -7.9      3.340      7.446
REMARK  Name = 
REMARK  5 active torsions:
REMARK  status: ('A' for Active; 'I' for Inactive)
REMARK    1  A    between atoms: C_2  and  C_4
REMARK    2  A    between atoms: C_8  and  N_9
REMARK    3  A    between atoms: N_14  and  C_15
REMARK    4  A    between atoms: N_18  and  C_19
REMARK    5  A    between atoms: C_19  and  C_20
REMARK                            x       y       z     vdW  Elec       q    Type
REMARK                         _______ _______ _______ _____ _____    ______ ____
ROOT
ATOM      1  N   UNL     1       3.146   5.568  18.847  0.00  0.00    +0.000 N 
ATOM      2  C   UNL     1       3.300   4.761  20.064  0.00  0.00    +0.000 C 
ATOM      3  C   UNL     1       4.465   3.765  20.047  0.00  0.00    +0.000 C 
ATOM      4  C   UNL     1       4.199   2.582  19.117  0.00  0.00    +0.000 C 
ATOM      5  C   UNL     1       4.511   2.892  17.655  0.00  0.00    +0.000 C 
ATOM      6  N   UNL     1       4.234   4.269  17.272  0.00  0.00    +0.000 N 
ATOM      7  C   UNL     1       3.000   4.789  17.677  0.00  0.00    +0.000 C 
ATOM      8  O   UNL     1       1.937   4.499  17.141  0.00  0.00    +0.000 OA
ENDROOT
BRANCH   1  13
ATOM      9  C   UNL     1       1.420   8.550  20.402  0.00  0.00    +0.000 A 
ATOM     10  C   UNL     1       1.267   9.392  19.301  0.00  0.00    +0.000 A 
ATOM     11  C   UNL     1       1.722   8.978  18.055  0.00  0.00    +0.000 A 
ATOM     12  C   UNL     1       2.311   7.717  17.903  0.00  0.00    +0.000 A 
ATOM     13  C   UNL     1       2.491   6.850  18.987  0.00  0.00    +0.000 A 
ATOM     14  C   UNL     1       2.067   7.313  20.246  0.00  0.00    +0.000 A 
BRANCH   9  16
ATOM     15  N   UNL     1       1.685   9.351  22.665  0.00  0.00    +0.000 NA
ATOM     16  C   UNL     1       0.878   8.930  21.745  0.00  0.00    +0.000 C 
ATOM     17  N   UNL     1      -0.453   8.804  22.027  0.00  0.00    +0.000 N 
ATOM     18  H   UNL     1       1.159   9.577  23.510  0.00  0.00    +0.000 HD
ATOM     19  H   UNL     1      -0.692   8.765  23.010  0.00  0.00    +0.000 HD
ATOM     20  H   UNL     1      -0.956   8.098  21.501  0.00  0.00    +0.000 HD
ENDBRANCH   9  16
ENDBRANCH   1  13
BRANCH   6  21
ATOM     21  C   UNL     1       4.983   4.828  16.121  0.00  0.00    +0.000 C 
ATOM     22  C   UNL     1       6.458   4.434  16.013  0.00  0.00    +0.000 C 
ATOM     23  C   UNL     1       7.349   5.223  16.972  0.00  0.00    +0.000 C 
ATOM     24  N   UNL     1       7.157   6.686  17.000  0.00  0.00    +0.000 NA
ATOM     25  C   UNL     1       5.734   7.070  17.012  0.00  0.00    +0.000 C 
ATOM     26  C   UNL     1       4.902   6.349  15.959  0.00  0.00    +0.000 C 
BRANCH  24  27
ATOM     27  C   UNL     1       7.812   7.175  18.247  0.00  0.00    +0.000 C 
BRANCH  27  28
ATOM     28  C   UNL     1       8.150   8.638  18.237  0.00  0.00    +0.000 A 
ATOM     29  C   UNL     1       7.764   9.603  17.331  0.00  0.00    +0.000 A 
ATOM     30  C   UNL     1       8.330  10.875  17.623  0.00  0.00    +0.000 A 
ATOM     31  C   UNL     1       9.124  10.840  18.748  0.00  0.00    +0.000 A 
ATOM     32  S   UNL     1       9.183   9.284  19.445  0.00  0.00    +0.000 S 
ENDBRANCH  27  28
ENDBRANCH  24  27
ENDBRANCH   6  21
TORSDOF 5
ENDMDL
MODEL 8
REMARK VINA RESULT:      -7.9      3.384      8.130
REMARK  Name = 
REMARK  5 active torsions:
REMARK  status: ('A' for Active; 'I' for Inactive)
REMARK    1  A    between atoms: C_2  and  C_4
REMARK    2  A    between atoms: C_8  and  N_9
REMARK    3  A    between atoms: N_14  and  C_15
REMARK    4  A    between atoms: N_18  and  C_19
REMARK    5  A    between atoms: C_19  and  C_20
REMARK                            x       y       z     vdW  Elec       q    Type
REMARK                         _______ _______ _______ _____ _____    ______ ____
ROOT
ATOM      1  N   UNL     1       2.066   6.591  20.101  0.00  0.00    +0.000 N 
ATOM      2  C   UNL     1       1.547   5.474  20.900  0.00  0.00    +0.000 C 
ATOM      3  C   UNL     1       2.517   4.303  21.095  0.00  0.00    +0.000 C 
ATOM      4  C   UNL     1       2.710   3.494  19.813  0.00  0.00    +0.000 C 
ATOM      5  C   UNL     1       3.733   4.115  18.865  0.00  0.00    +0.000 C 
ATOM      6  N   UNL     1       3.746   5.570  18.883  0.00  0.00    +0.000 N 
ATOM      7  C   UNL     1       2.500   6.203  18.814  0.00  0.00    +0.000 C 
ATOM      8  O   UNL     1       1.845   6.291  17.782  0.00  0.00    +0.000 OA
ENDROOT
BRANCH   1  13
ATOM      9  C   UNL     1       0.970  10.170  19.564  0.00  0.00    +0.000 A 
ATOM     10  C   UNL     1       0.290  10.437  20.752  0.00  0.00    +0.000 A 
ATOM     11  C   UNL     1       0.201   9.449  21.726  0.00  0.00    +0.000 A 
ATOM     12  C   UNL     1       0.804   8.203  21.524  0.00  0.00    +0.000 A 
ATOM     13  C   UNL     1       1.485   7.895  20.339  0.00  0.00    +0.000 A 
ATOM     14  C   UNL     1       1.519   8.894  19.350  0.00  0.00    +0.000 A 
BRANCH   9  16
ATOM     15  N   UNL     1       2.290  11.351  17.922  0.00  0.00    +0.000 NA
ATOM     16  C   UNL     1       1.150  11.231  18.523  0.00  0.00    +0.000 C 
ATOM     17  N   UNL     1       0.141  12.100  18.224  0.00  0.00    +0.000 N 
ATOM     18  H   UNL     1       2.244  12.108  17.239  0.00  0.00    +0.000 HD
ATOM     19  H   UNL     1       0.421  12.961  17.773  0.00  0.00    +0.000 HD
ATOM     20  H   UNL     1      -0.530  12.278  18.964  0.00  0.00    +0.000 HD
ENDBRANCH   9  16
ENDBRANCH   1  13
BRANCH   6  21
ATOM     21  C   UNL     1       4.998   6.252  18.477  0.00  0.00    +0.000 C 
ATOM     22  C   UNL     1       5.037   6.815  17.054  0.00  0.00    +0.000 C 
ATOM     23  C   UNL     1       5.289   5.735  16.002  0.00  0.00    +0.000 C 
ATOM     24  N   UNL     1       6.397   4.798  16.267  0.00  0.00    +0.000 NA
ATOM     25  C   UNL     1       6.416   4.325  17.663  0.00  0.00    +0.000 C 
ATOM     26  C   UNL     1       6.285   5.447  18.686  0.00  0.00    +0.000 C 
BRANCH  24  27
ATOM     27  C   UNL     1       6.198   3.637  15.355  0.00  0.00    +0.000 C 
BRANCH  27  28
ATOM     28  C   UNL     1       6.484   3.928  13.909  0.00  0.00    +0.000 A 
ATOM     29  C   UNL     1       5.912   3.360  12.790  0.00  0.00    +0.000 A 
ATOM     30  C   UNL     1       6.482   3.855  11.584  0.00  0.00    +0.000 A 
ATOM     31  C   UNL     1       7.464   4.790  11.822  0.00  0.00    +0.000 A 
ATOM     32  S   UNL     1       7.695   5.068  13.490  0.00  0.00    +0.000 S 
ENDBRANCH  27  28
ENDBRANCH  24  27
ENDBRANCH   6  21
TORSDOF 5
ENDMDL
MODEL 9
REMARK VINA RESULT:      -7.9      9.157     11.835
REMARK  Name = 
REMARK  5 active torsions:
REMARK  status: ('A' for Active; 'I' for Inactive)
REMARK    1  A    between atoms: C_2  and  C_4
REMARK    2  A    between atoms: C_8  and  N_9
REMARK    3  A    between atoms: N_14  and  C_15
REMARK    4  A    between atoms: N_18  and  C_19
REMARK    5  A    between atoms: C_19  and  C_20
REMARK                            x       y       z     vdW  Elec       q    Type
REMARK                         _______ _______ _______ _____ _____    ______ ____
ROOT
ATOM      1  N   UNL     1      -1.210  10.834  19.260  0.00  0.00    +0.000 N 
ATOM      2  C   UNL     1      -0.855   9.553  19.883  0.00  0.00    +0.000 C 
ATOM      3  C   UNL     1      -0.388   9.641  21.341  0.00  0.00    +0.000 C 
ATOM      4  C   UNL     1       1.003  10.259  21.465  0.00  0.00    +0.000 C 
ATOM      5  C   UNL     1       0.982  11.785  21.434  0.00  0.00    +0.000 C 
ATOM      6  N   UNL     1      -0.049  12.343  20.573  0.00  0.00    +0.000 N 
ATOM      7  C   UNL     1      -0.163  11.781  19.297  0.00  0.00    +0.000 C 
ATOM      8  O   UNL     1       0.624  12.012  18.386  0.00  0.00    +0.000 OA
ENDROOT
BRANCH   1  13
ATOM      9  C   UNL     1      -4.334  11.393  17.205  0.00  0.00    +0.000 A 
ATOM     10  C   UNL     1      -3.989  10.786  15.997  0.00  0.00    +0.000 A 
ATOM     11  C   UNL     1      -2.740  10.190  15.864  0.00  0.00    +0.000 A 
ATOM     12  C   UNL     1      -1.844  10.182  16.939  0.00  0.00    +0.000 A 
ATOM     13  C   UNL     1      -2.151  10.791  18.162  0.00  0.00    +0.000 A 
ATOM     14  C   UNL     1      -3.401  11.430  18.255  0.00  0.00    +0.000 A 
BRANCH   9  16
ATOM     15  N   UNL     1      -6.648  11.240  17.878  0.00  0.00    +0.000 NA
ATOM     16  C   UNL     1      -5.696  11.981  17.411  0.00  0.00    +0.000 C 
ATOM     17  N   UNL     1      -5.958  13.278  17.077  0.00  0.00    +0.000 N 
ATOM     18  H   UNL     1      -7.503  11.791  17.968  0.00  0.00    +0.000 HD
ATOM     19  H   UNL     1      -6.934  13.507  16.936  0.00  0.00    +0.000 HD
ATOM     20  H   UNL     1      -5.381  13.676  16.344  0.00  0.00    +0.000 HD
ENDBRANCH   9  16
ENDBRANCH   1  13
BRANCH   6  21
ATOM     21  C   UNL     1      -0.533  13.712  20.875  0.00  0.00    +0.000 C 
ATOM     22  C   UNL     1      -0.471  14.148  22.341  0.00  0.00    +0.000 C 
ATOM     23  C   UNL     1      -1.610  13.564  23.176  0.00  0.00    +0.000 C 
ATOM     24  N   UNL     1      -2.969  13.677  22.613  0.00  0.00    +0.000 NA
ATOM     25  C   UNL     1      -3.015  13.345  21.178  0.00  0.00    +0.000 C 
ATOM     26  C   UNL     1      -1.937  14.043  20.358  0.00  0.00    +0.000 C 
BRANCH  24  27
ATOM     27  C   UNL     1      -3.822  12.718  23.370  0.00  0.00    +0.000 C 
BRANCH  27  28
ATOM     28  C   UNL     1      -5.202  13.224  23.677  0.00  0.00    +0.000 A 
ATOM     29  C   UNL     1      -6.322  12.503  24.036  0.00  0.00    +0.000 A 
ATOM     30  C   UNL     1      -7.468  13.330  24.195  0.00  0.00    +0.000 A 
ATOM     31  C   UNL     1      -7.184  14.657  23.959  0.00  0.00    +0.000 A 
ATOM     32  S   UNL     1      -5.545  14.900  23.551  0.00  0.00    +0.000 S 
ENDBRANCH  27  28
ENDBRANCH  24  27
ENDBRANCH   6  21
TORSDOF 5
ENDMDL
