MODEL 1
REMARK VINA RESULT:      -9.7      0.000      0.000
REMARK  Name = 
REMARK  4 active torsions:
REMARK  status: ('A' for Active; 'I' for Inactive)
REMARK    1  A    between atoms: C_3  and  C_4
REMARK    2  A    between atoms: C_8  and  C_9
REMARK    3  A    between atoms: C_13  and  C_14
REMARK    4  A    between atoms: C_14  and  N_15
REMARK                            x       y       z     vdW  Elec       q    Type
REMARK                         _______ _______ _______ _____ _____    ______ ____
ROOT
ATOM      1  C   UNL     1       1.675   7.951  20.319  0.00  0.00    +0.000 A 
ATOM      2  C   UNL     1       1.119   9.084  19.742  0.00  0.00    +0.000 A 
ATOM      3  C   UNL     1       0.432   9.793  20.783  0.00  0.00    +0.000 A 
ATOM      4  C   UNL     1      -0.424  10.910  20.829  0.00  0.00    +0.000 A 
ATOM      5  C   UNL     1      -1.072  11.241  22.043  0.00  0.00    +0.000 A 
ATOM      6  C   UNL     1      -0.804  10.481  23.194  0.00  0.00    +0.000 A 
ATOM      7  C   UNL     1       0.101   9.425  23.187  0.00  0.00    +0.000 A 
ATOM      8  C   UNL     1       0.671   9.094  21.961  0.00  0.00    +0.000 A 
ATOM      9  N   UNL     1       1.502   8.051  21.665  0.00  0.00    +0.000 N 
ATOM     10  H   UNL     1       1.839   7.348  22.309  0.00  0.00    +0.000 HD
ENDROOT
BRANCH   1  15
ATOM     11  C   UNL     1       4.832   5.618  16.633  0.00  0.00    +0.000 A 
ATOM     12  C   UNL     1       4.413   6.957  16.636  0.00  0.00    +0.000 A 
ATOM     13  C   UNL     1       3.717   7.503  17.708  0.00  0.00    +0.000 A 
ATOM     14  C   UNL     1       3.168   6.624  18.640  0.00  0.00    +0.000 A 
ATOM     15  C   UNL     1       2.311   6.737  19.756  0.00  0.00    +0.000 A 
ATOM     16  N   UNL     1       2.031   5.544  20.298  0.00  0.00    +0.000 NA
ATOM     17  N   UNL     1       2.686   4.676  19.509  0.00  0.00    +0.000 N 
ATOM     18  C   UNL     1       3.473   5.278  18.555  0.00  0.00    +0.000 A 
ATOM     19  C   UNL     1       4.385   4.747  17.640  0.00  0.00    +0.000 A 
ATOM     20  H   UNL     1       2.519   3.683  19.646  0.00  0.00    +0.000 HD
BRANCH  11  23
ATOM     21  C   UNL     1       6.814   4.395  13.810  0.00  0.00    +0.000 A 
ATOM     22  C   UNL     1       5.603   4.361  14.511  0.00  0.00    +0.000 A 
ATOM     23  C   UNL     1       5.772   5.207  15.592  0.00  0.00    +0.000 A 
ATOM     24  N   UNL     1       7.048   5.690  15.449  0.00  0.00    +0.000 N 
ATOM     25  N   UNL     1       7.709   5.200  14.386  0.00  0.00    +0.000 NA
ATOM     26  H   UNL     1       7.526   6.373  16.026  0.00  0.00    +0.000 HD
ENDBRANCH  11  23
ENDBRANCH   1  15
BRANCH   5  27
ATOM     27  C   UNL     1      -2.140  12.314  22.104  0.00  0.00    +0.000 C 
BRANCH  27  28
ATOM     28  N   UNL     1      -2.537  12.846  23.406  0.00  0.00    +0.000 NA
ATOM     29  C   UNL     1      -3.954  12.720  23.753  0.00  0.00    +0.000 C 
ATOM     30  C   UNL     1      -4.811  13.943  23.398  0.00  0.00    +0.000 C 
ATOM     31  O   UNL     1      -4.261  15.146  23.950  0.00  0.00    +0.000 OA
ATOM     32  C   UNL     1      -2.927  15.356  23.475  0.00  0.00    +0.000 C 
ATOM     33  C   UNL     1      -2.012  14.155  23.791  0.00  0.00    +0.000 C 
ENDBRANCH  27  28
ENDBRANCH   5  27
TORSDOF 4
ENDMDL
MODEL 2
REMARK VINA RESULT:      -9.5      0.801      1.132
REMARK  Name = 
REMARK  4 active torsions:
REMARK  status: ('A' for Active; 'I' for Inactive)
REMARK    1  A    between atoms: C_3  and  C_4
REMARK    2  A    between atoms: C_8  and  C_9
REMARK    3  A    between atoms: C_13  and  C_14
REMARK    4  A    between atoms: C_14  and  N_15
REMARK                            x       y       z     vdW  Elec       q    Type
REMARK                         _______ _______ _______ _____ _____    ______ ____
ROOT
ATOM      1  C   UNL     1       1.658   7.985  20.335  0.00  0.00    +0.000 A 
ATOM      2  C   UNL     1       1.108   9.114  19.744  0.00  0.00    +0.000 A 
ATOM      3  C   UNL     1       0.403   9.826  20.770  0.00  0.00    +0.000 A 
ATOM      4  C   UNL     1      -0.456  10.941  20.796  0.00  0.00    +0.000 A 
ATOM      5  C   UNL     1      -1.124  11.276  21.999  0.00  0.00    +0.000 A 
ATOM      6  C   UNL     1      -0.873  10.523  23.158  0.00  0.00    +0.000 A 
ATOM      7  C   UNL     1       0.035   9.470  23.170  0.00  0.00    +0.000 A 
ATOM      8  C   UNL     1       0.625   9.134  21.955  0.00  0.00    +0.000 A 
ATOM      9  N   UNL     1       1.463   8.091  21.678  0.00  0.00    +0.000 N 
ATOM     10  H   UNL     1       1.792   7.392  22.331  0.00  0.00    +0.000 HD
ENDROOT
BRANCH   1  15
ATOM     11  C   UNL     1       4.818   5.629  16.666  0.00  0.00    +0.000 A 
ATOM     12  C   UNL     1       4.381   6.963  16.649  0.00  0.00    +0.000 A 
ATOM     13  C   UNL     1       3.686   7.518  17.716  0.00  0.00    +0.000 A 
ATOM     14  C   UNL     1       3.155   6.648  18.668  0.00  0.00    +0.000 A 
ATOM     15  C   UNL     1       2.306   6.770  19.789  0.00  0.00    +0.000 A 
ATOM     16  N   UNL     1       2.046   5.582  20.353  0.00  0.00    +0.000 NA
ATOM     17  N   UNL     1       2.705   4.709  19.575  0.00  0.00    +0.000 N 
ATOM     18  C   UNL     1       3.478   5.305  18.604  0.00  0.00    +0.000 A 
ATOM     19  C   UNL     1       4.390   4.770  17.691  0.00  0.00    +0.000 A 
ATOM     20  H   UNL     1       2.553   3.717  19.730  0.00  0.00    +0.000 HD
BRANCH  11  23
ATOM     21  C   UNL     1       6.793   4.390  13.846  0.00  0.00    +0.000 A 
ATOM     22  C   UNL     1       5.584   4.359  14.550  0.00  0.00    +0.000 A 
ATOM     23  C   UNL     1       5.755   5.213  15.625  0.00  0.00    +0.000 A 
ATOM     24  N   UNL     1       7.030   5.696  15.476  0.00  0.00    +0.000 N 
ATOM     25  N   UNL     1       7.689   5.199  14.414  0.00  0.00    +0.000 NA
ATOM     26  H   UNL     1       7.510   6.382  16.047  0.00  0.00    +0.000 HD
ENDBRANCH  11  23
ENDBRANCH   1  15
BRANCH   5  27
ATOM     27  C   UNL     1      -2.196  12.347  22.037  0.00  0.00    +0.000 C 
BRANCH  27  28
ATOM     28  N   UNL     1      -1.795  13.752  21.988  0.00  0.00    +0.000 NA
ATOM     29  C   UNL     1      -0.815  14.182  22.987  0.00  0.00    +0.000 C 
ATOM     30  C   UNL     1      -1.422  14.776  24.266  0.00  0.00    +0.000 C 
ATOM     31  O   UNL     1      -2.337  15.838  23.967  0.00  0.00    +0.000 OA
ATOM     32  C   UNL     1      -3.394  15.371  23.120  0.00  0.00    +0.000 C 
ATOM     33  C   UNL     1      -2.850  14.751  21.817  0.00  0.00    +0.000 C 
ENDBRANCH  27  28
ENDBRANCH   5  27
TORSDOF 4
ENDMDL
MODEL 3
REMARK VINA RESULT:      -9.4      1.514      1.842
REMARK  Name = 
REMARK  4 active torsions:
REMARK  status: ('A' for Active; 'I' for Inactive)
REMARK    1  A    between atoms: C_3  and  C_4
REMARK    2  A    between atoms: C_8  and  C_9
REMARK    3  A    between atoms: C_13  and  C_14
REMARK    4  A    between atoms: C_14  and  N_15
REMARK                            x       y       z     vdW  Elec       q    Type
REMARK                         _______ _______ _______ _____ _____    ______ ____
ROOT
ATOM      1  C   UNL     1       1.659   8.005  20.307  0.00  0.00    +0.000 A 
ATOM      2  C   UNL     1       1.086   9.116  19.706  0.00  0.00    +0.000 A 
ATOM      3  C   UNL     1       0.384   9.835  20.730  0.00  0.00    +0.000 A 
ATOM      4  C   UNL     1      -0.490  10.939  20.750  0.00  0.00    +0.000 A 
ATOM      5  C   UNL     1      -1.146  11.285  21.957  0.00  0.00    +0.000 A 
ATOM      6  C   UNL     1      -0.868  10.554  23.124  0.00  0.00    +0.000 A 
ATOM      7  C   UNL     1       0.055   9.514  23.141  0.00  0.00    +0.000 A 
ATOM      8  C   UNL     1       0.633   9.166  21.923  0.00  0.00    +0.000 A 
ATOM      9  N   UNL     1       1.482   8.130  21.651  0.00  0.00    +0.000 N 
ATOM     10  H   UNL     1       1.829   7.448  22.311  0.00  0.00    +0.000 HD
ENDROOT
BRANCH   1  15
ATOM     11  C   UNL     1       4.833   5.640  16.656  0.00  0.00    +0.000 A 
ATOM     12  C   UNL     1       4.385   6.969  16.628  0.00  0.00    +0.000 A 
ATOM     13  C   UNL     1       3.686   7.529  17.690  0.00  0.00    +0.000 A 
ATOM     14  C   UNL     1       3.165   6.664  18.651  0.00  0.00    +0.000 A 
ATOM     15  C   UNL     1       2.316   6.790  19.772  0.00  0.00    +0.000 A 
ATOM     16  N   UNL     1       2.067   5.606  20.349  0.00  0.00    +0.000 NA
ATOM     17  N   UNL     1       2.733   4.731  19.578  0.00  0.00    +0.000 N 
ATOM     18  C   UNL     1       3.499   5.324  18.599  0.00  0.00    +0.000 A 
ATOM     19  C   UNL     1       4.413   4.787  17.691  0.00  0.00    +0.000 A 
ATOM     20  H   UNL     1       2.589   3.739  19.743  0.00  0.00    +0.000 HD
BRANCH  11  23
ATOM     21  C   UNL     1       6.813   4.395  13.842  0.00  0.00    +0.000 A 
ATOM     22  C   UNL     1       5.602   4.367  14.543  0.00  0.00    +0.000 A 
ATOM     23  C   UNL     1       5.772   5.221  15.618  0.00  0.00    +0.000 A 
ATOM     24  N   UNL     1       7.048   5.703  15.471  0.00  0.00    +0.000 N 
ATOM     25  N   UNL     1       7.708   5.204  14.411  0.00  0.00    +0.000 NA
ATOM     26  H   UNL     1       7.527   6.389  16.043  0.00  0.00    +0.000 HD
ENDBRANCH  11  23
ENDBRANCH   1  15
BRANCH   5  27
ATOM     27  C   UNL     1      -2.231  12.341  21.992  0.00  0.00    +0.000 C 
BRANCH  27  28
ATOM     28  N   UNL     1      -1.847  13.751  22.012  0.00  0.00    +0.000 NA
ATOM     29  C   UNL     1      -1.983  14.477  20.747  0.00  0.00    +0.000 C 
ATOM     30  C   UNL     1      -0.708  14.516  19.891  0.00  0.00    +0.000 C 
ATOM     31  O   UNL     1       0.410  15.011  20.640  0.00  0.00    +0.000 OA
ATOM     32  C   UNL     1       0.645  14.195  21.793  0.00  0.00    +0.000 C 
ATOM     33  C   UNL     1      -0.603  14.105  22.694  0.00  0.00    +0.000 C 
ENDBRANCH  27  28
ENDBRANCH   5  27
TORSDOF 4
ENDMDL
MODEL 4
REMARK VINA RESULT:      -9.1      1.279      1.607
REMARK  Name = 
REMARK  4 active torsions:
REMARK  status: ('A' for Active; 'I' for Inactive)
REMARK    1  A    between atoms: C_3  and  C_4
REMARK    2  A    between atoms: C_8  and  C_9
REMARK    3  A    between atoms: C_13  and  C_14
REMARK    4  A    between atoms: C_14  and  N_15
REMARK                            x       y       z     vdW  Elec       q    Type
REMARK                         _______ _______ _______ _____ _____    ______ ____
ROOT
ATOM      1  C   UNL     1       1.863   7.822  20.127  0.00  0.00    +0.000 A 
ATOM      2  C   UNL     1       1.452   9.049  19.627  0.00  0.00    +0.000 A 
ATOM      3  C   UNL     1       0.777   9.734  20.692  0.00  0.00    +0.000 A 
ATOM      4  C   UNL     1       0.030  10.923  20.795  0.00  0.00    +0.000 A 
ATOM      5  C   UNL     1      -0.652  11.214  22.002  0.00  0.00    +0.000 A 
ATOM      6  C   UNL     1      -0.523  10.339  23.092  0.00  0.00    +0.000 A 
ATOM      7  C   UNL     1       0.276   9.202  23.035  0.00  0.00    +0.000 A 
ATOM      8  C   UNL     1       0.881   8.919  21.814  0.00  0.00    +0.000 A 
ATOM      9  N   UNL     1       1.624   7.826  21.467  0.00  0.00    +0.000 N 
ATOM     10  H   UNL     1       1.856   7.042  22.062  0.00  0.00    +0.000 HD
ENDROOT
BRANCH   1  15
ATOM     11  C   UNL     1       4.932   5.500  16.360  0.00  0.00    +0.000 A 
ATOM     12  C   UNL     1       4.628   6.867  16.455  0.00  0.00    +0.000 A 
ATOM     13  C   UNL     1       3.946   7.391  17.546  0.00  0.00    +0.000 A 
ATOM     14  C   UNL     1       3.293   6.497  18.393  0.00  0.00    +0.000 A 
ATOM     15  C   UNL     1       2.412   6.602  19.491  0.00  0.00    +0.000 A 
ATOM     16  N   UNL     1       2.013   5.401  19.932  0.00  0.00    +0.000 NA
ATOM     17  N   UNL     1       2.617   4.540  19.097  0.00  0.00    +0.000 N 
ATOM     18  C   UNL     1       3.485   5.140  18.213  0.00  0.00    +0.000 A 
ATOM     19  C   UNL     1       4.378   4.599  17.285  0.00  0.00    +0.000 A 
ATOM     20  H   UNL     1       2.361   3.559  19.153  0.00  0.00    +0.000 HD
BRANCH  11  23
ATOM     21  C   UNL     1       6.915   4.220  13.565  0.00  0.00    +0.000 A 
ATOM     22  C   UNL     1       5.738   4.138  14.318  0.00  0.00    +0.000 A 
ATOM     23  C   UNL     1       5.867   5.086  15.317  0.00  0.00    +0.000 A 
ATOM     24  N   UNL     1       7.087   5.668  15.079  0.00  0.00    +0.000 N 
ATOM     25  N   UNL     1       7.751   5.148  14.032  0.00  0.00    +0.000 NA
ATOM     26  H   UNL     1       7.520   6.437  15.575  0.00  0.00    +0.000 HD
ENDBRANCH  11  23
ENDBRANCH   1  15
BRANCH   5  27
ATOM     27  C   UNL     1      -1.614  12.380  22.105  0.00  0.00    +0.000 C 
BRANCH  27  28
ATOM     28  N   UNL     1      -2.138  12.977  20.878  0.00  0.00    +0.000 NA
ATOM     29  C   UNL     1      -2.254  14.437  20.866  0.00  0.00    +0.000 C 
ATOM     30  C   UNL     1      -3.630  14.973  21.283  0.00  0.00    +0.000 C 
ATOM     31  O   UNL     1      -4.681  14.377  20.511  0.00  0.00    +0.000 OA
ATOM     32  C   UNL     1      -4.669  12.953  20.658  0.00  0.00    +0.000 C 
ATOM     33  C   UNL     1      -3.306  12.348  20.263  0.00  0.00    +0.000 C 
ENDBRANCH  27  28
ENDBRANCH   5  27
TORSDOF 4
ENDMDL
MODEL 5
REMARK VINA RESULT:      -9.0      1.242      1.629
REMARK  Name = 
REMARK  4 active torsions:
REMARK  status: ('A' for Active; 'I' for Inactive)
REMARK    1  A    between atoms: C_3  and  C_4
REMARK    2  A    between atoms: C_8  and  C_9
REMARK    3  A    between atoms: C_13  and  C_14
REMARK    4  A    between atoms: C_14  and  N_15
REMARK                            x       y       z     vdW  Elec       q    Type
REMARK                         _______ _______ _______ _____ _____    ______ ____
ROOT
ATOM      1  C   UNL     1       1.305   8.416  20.436  0.00  0.00    +0.000 A 
ATOM      2  C   UNL     1       0.757   9.482  19.737  0.00  0.00    +0.000 A 
ATOM      3  C   UNL     1       0.003  10.260  20.676  0.00  0.00    +0.000 A 
ATOM      4  C   UNL     1      -0.877  11.356  20.583  0.00  0.00    +0.000 A 
ATOM      5  C   UNL     1      -1.593  11.774  21.731  0.00  0.00    +0.000 A 
ATOM      6  C   UNL     1      -1.369  11.122  22.955  0.00  0.00    +0.000 A 
ATOM      7  C   UNL     1      -0.444  10.092  23.084  0.00  0.00    +0.000 A 
ATOM      8  C   UNL     1       0.195   9.671  21.922  0.00  0.00    +0.000 A 
ATOM      9  N   UNL     1       1.062   8.627  21.759  0.00  0.00    +0.000 N 
ATOM     10  H   UNL     1       1.379   7.991  22.478  0.00  0.00    +0.000 HD
ENDROOT
BRANCH   1  15
ATOM     11  C   UNL     1       4.568   5.817  17.031  0.00  0.00    +0.000 A 
ATOM     12  C   UNL     1       4.091   7.129  16.883  0.00  0.00    +0.000 A 
ATOM     13  C   UNL     1       3.370   7.762  17.887  0.00  0.00    +0.000 A 
ATOM     14  C   UNL     1       2.857   6.972  18.915  0.00  0.00    +0.000 A 
ATOM     15  C   UNL     1       1.994   7.175  20.014  0.00  0.00    +0.000 A 
ATOM     16  N   UNL     1       1.764   6.040  20.688  0.00  0.00    +0.000 NA
ATOM     17  N   UNL     1       2.457   5.117  20.001  0.00  0.00    +0.000 N 
ATOM     18  C   UNL     1       3.220   5.640  18.982  0.00  0.00    +0.000 A 
ATOM     19  C   UNL     1       4.155   5.047  18.131  0.00  0.00    +0.000 A 
ATOM     20  H   UNL     1       2.332   4.140  20.250  0.00  0.00    +0.000 HD
BRANCH  11  23
ATOM     21  C   UNL     1       6.604   4.377  14.354  0.00  0.00    +0.000 A 
ATOM     22  C   UNL     1       5.388   4.379  15.047  0.00  0.00    +0.000 A 
ATOM     23  C   UNL     1       5.527   5.331  16.041  0.00  0.00    +0.000 A 
ATOM     24  N   UNL     1       6.791   5.831  15.859  0.00  0.00    +0.000 N 
ATOM     25  N   UNL     1       7.473   5.257  14.853  0.00  0.00    +0.000 NA
ATOM     26  H   UNL     1       7.247   6.579  16.369  0.00  0.00    +0.000 HD
ENDBRANCH  11  23
ENDBRANCH   1  15
BRANCH   5  27
ATOM     27  C   UNL     1      -2.684  12.821  21.645  0.00  0.00    +0.000 C 
BRANCH  27  28
ATOM     28  N   UNL     1      -2.353  14.215  21.937  0.00  0.00    +0.000 NA
ATOM     29  C   UNL     1      -1.100  14.716  21.369  0.00  0.00    +0.000 C 
ATOM     30  C   UNL     1       0.114  14.611  22.302  0.00  0.00    +0.000 C 
ATOM     31  O   UNL     1      -0.146  15.225  23.571  0.00  0.00    +0.000 OA
ATOM     32  C   UNL     1      -1.277  14.616  24.204  0.00  0.00    +0.000 C 
ATOM     33  C   UNL     1      -2.534  14.679  23.312  0.00  0.00    +0.000 C 
ENDBRANCH  27  28
ENDBRANCH   5  27
TORSDOF 4
ENDMDL
MODEL 6
REMARK VINA RESULT:      -8.6      0.880      1.554
REMARK  Name = 
REMARK  4 active torsions:
REMARK  status: ('A' for Active; 'I' for Inactive)
REMARK    1  A    between atoms: C_3  and  C_4
REMARK    2  A    between atoms: C_8  and  C_9
REMARK    3  A    between atoms: C_13  and  C_14
REMARK    4  A    between atoms: C_14  and  N_15
REMARK                            x       y       z     vdW  Elec       q    Type
REMARK                         _______ _______ _______ _____ _____    ______ ____
ROOT
ATOM      1  C   UNL     1       1.329   7.861  20.461  0.00  0.00    +0.000 A 
ATOM      2  C   UNL     1       0.572   8.106  21.597  0.00  0.00    +0.000 A 
ATOM      3  C   UNL     1       0.150   9.475  21.536  0.00  0.00    +0.000 A 
ATOM      4  C   UNL     1      -0.507  10.355  22.418  0.00  0.00    +0.000 A 
ATOM      5  C   UNL     1      -0.614  11.726  22.082  0.00  0.00    +0.000 A 
ATOM      6  C   UNL     1      -0.113  12.172  20.848  0.00  0.00    +0.000 A 
ATOM      7  C   UNL     1       0.466  11.303  19.929  0.00  0.00    +0.000 A 
ATOM      8  C   UNL     1       0.607   9.976  20.322  0.00  0.00    +0.000 A 
ATOM      9  N   UNL     1       1.223   8.954  19.656  0.00  0.00    +0.000 N 
ATOM     10  H   UNL     1       1.677   9.010  18.754  0.00  0.00    +0.000 HD
ENDROOT
BRANCH   1  15
ATOM     11  C   UNL     1       4.802   5.688  16.966  0.00  0.00    +0.000 A 
ATOM     12  C   UNL     1       4.098   6.890  16.796  0.00  0.00    +0.000 A 
ATOM     13  C   UNL     1       3.334   7.441  17.816  0.00  0.00    +0.000 A 
ATOM     14  C   UNL     1       3.023   6.628  18.905  0.00  0.00    +0.000 A 
ATOM     15  C   UNL     1       2.198   6.736  20.046  0.00  0.00    +0.000 A 
ATOM     16  N   UNL     1       2.206   5.613  20.779  0.00  0.00    +0.000 NA
ATOM     17  N   UNL     1       3.010   4.789  20.089  0.00  0.00    +0.000 N 
ATOM     18  C   UNL     1       3.614   5.382  19.003  0.00  0.00    +0.000 A 
ATOM     19  C   UNL     1       4.590   4.916  18.120  0.00  0.00    +0.000 A 
ATOM     20  H   UNL     1       3.070   3.819  20.384  0.00  0.00    +0.000 HD
BRANCH  11  23
ATOM     21  C   UNL     1       6.877   4.581  14.162  0.00  0.00    +0.000 A 
ATOM     22  C   UNL     1       5.649   4.505  14.830  0.00  0.00    +0.000 A 
ATOM     23  C   UNL     1       5.776   5.323  15.938  0.00  0.00    +0.000 A 
ATOM     24  N   UNL     1       7.045   5.832  15.843  0.00  0.00    +0.000 N 
ATOM     25  N   UNL     1       7.742   5.384  14.784  0.00  0.00    +0.000 NA
ATOM     26  H   UNL     1       7.497   6.506  16.451  0.00  0.00    +0.000 HD
ENDBRANCH  11  23
ENDBRANCH   1  15
BRANCH   5  27
ATOM     27  C   UNL     1      -1.143  12.745  23.071  0.00  0.00    +0.000 C 
BRANCH  27  28
ATOM     28  N   UNL     1      -2.241  13.621  22.667  0.00  0.00    +0.000 NA
ATOM     29  C   UNL     1      -2.376  14.876  23.408  0.00  0.00    +0.000 C 
ATOM     30  C   UNL     1      -3.343  14.816  24.599  0.00  0.00    +0.000 C 
ATOM     31  O   UNL     1      -4.630  14.323  24.204  0.00  0.00    +0.000 OA
ATOM     32  C   UNL     1      -4.515  13.017  23.629  0.00  0.00    +0.000 C 
ATOM     33  C   UNL     1      -3.546  13.004  22.428  0.00  0.00    +0.000 C 
ENDBRANCH  27  28
ENDBRANCH   5  27
TORSDOF 4
ENDMDL
MODEL 7
REMARK VINA RESULT:      -8.6      3.506     10.603
REMARK  Name = 
REMARK  4 active torsions:
REMARK  status: ('A' for Active; 'I' for Inactive)
REMARK    1  A    between atoms: C_3  and  C_4
REMARK    2  A    between atoms: C_8  and  C_9
REMARK    3  A    between atoms: C_13  and  C_14
REMARK    4  A    between atoms: C_14  and  N_15
REMARK                            x       y       z     vdW  Elec       q    Type
REMARK                         _______ _______ _______ _____ _____    ______ ____
ROOT
ATOM      1  C   UNL     1       1.501   8.829  19.297  0.00  0.00    +0.000 A 
ATOM      2  C   UNL     1       1.882   7.776  20.116  0.00  0.00    +0.000 A 
ATOM      3  C   UNL     1       2.795   6.965  19.364  0.00  0.00    +0.000 A 
ATOM      4  C   UNL     1       3.417   5.717  19.565  0.00  0.00    +0.000 A 
ATOM      5  C   UNL     1       4.148   5.125  18.507  0.00  0.00    +0.000 A 
ATOM      6  C   UNL     1       4.286   5.820  17.295  0.00  0.00    +0.000 A 
ATOM      7  C   UNL     1       3.749   7.089  17.106  0.00  0.00    +0.000 A 
ATOM      8  C   UNL     1       2.987   7.611  18.147  0.00  0.00    +0.000 A 
ATOM      9  N   UNL     1       2.275   8.777  18.178  0.00  0.00    +0.000 N 
ATOM     10  H   UNL     1       2.197   9.454  17.432  0.00  0.00    +0.000 HD
ENDROOT
BRANCH   1  15
ATOM     11  C   UNL     1      -1.814  11.820  22.307  0.00  0.00    +0.000 A 
ATOM     12  C   UNL     1      -1.004  10.768  22.762  0.00  0.00    +0.000 A 
ATOM     13  C   UNL     1      -0.075  10.150  21.935  0.00  0.00    +0.000 A 
ATOM     14  C   UNL     1      -0.175  10.377  20.563  0.00  0.00    +0.000 A 
ATOM     15  C   UNL     1       0.450   9.866  19.404  0.00  0.00    +0.000 A 
ATOM     16  N   UNL     1      -0.065  10.392  18.284  0.00  0.00    +0.000 NA
ATOM     17  N   UNL     1      -1.031  11.210  18.731  0.00  0.00    +0.000 N 
ATOM     18  C   UNL     1      -1.074  11.321  20.103  0.00  0.00    +0.000 A 
ATOM     19  C   UNL     1      -1.832  12.142  20.940  0.00  0.00    +0.000 A 
ATOM     20  H   UNL     1      -1.657  11.631  18.051  0.00  0.00    +0.000 HD
BRANCH  11  23
ATOM     21  C   UNL     1      -3.462  14.082  24.664  0.00  0.00    +0.000 A 
ATOM     22  C   UNL     1      -2.413  13.870  23.761  0.00  0.00    +0.000 A 
ATOM     23  C   UNL     1      -2.569  12.573  23.307  0.00  0.00    +0.000 A 
ATOM     24  N   UNL     1      -3.692  12.119  23.949  0.00  0.00    +0.000 N 
ATOM     25  N   UNL     1      -4.244  13.009  24.793  0.00  0.00    +0.000 NA
ATOM     26  H   UNL     1      -4.152  11.222  23.847  0.00  0.00    +0.000 HD
ENDBRANCH  11  23
ENDBRANCH   1  15
BRANCH   5  27
ATOM     27  C   UNL     1       4.678   3.710  18.607  0.00  0.00    +0.000 C 
BRANCH  27  28
ATOM     28  N   UNL     1       3.731   2.596  18.594  0.00  0.00    +0.000 NA
ATOM     29  C   UNL     1       2.642   2.683  17.619  0.00  0.00    +0.000 C 
ATOM     30  C   UNL     1       1.346   3.304  18.161  0.00  0.00    +0.000 C 
ATOM     31  O   UNL     1       0.905   2.640  19.352  0.00  0.00    +0.000 OA
ATOM     32  C   UNL     1       1.914   2.702  20.367  0.00  0.00    +0.000 C 
ATOM     33  C   UNL     1       3.250   2.101  19.883  0.00  0.00    +0.000 C 
ENDBRANCH  27  28
ENDBRANCH   5  27
TORSDOF 4
ENDMDL
MODEL 8
REMARK VINA RESULT:      -8.6      1.065      1.469
REMARK  Name = 
REMARK  4 active torsions:
REMARK  status: ('A' for Active; 'I' for Inactive)
REMARK    1  A    between atoms: C_3  and  C_4
REMARK    2  A    between atoms: C_8  and  C_9
REMARK    3  A    between atoms: C_13  and  C_14
REMARK    4  A    between atoms: C_14  and  N_15
REMARK                            x       y       z     vdW  Elec       q    Type
REMARK                         _______ _______ _______ _____ _____    ______ ____
ROOT
ATOM      1  C   UNL     1       1.077   8.249  20.663  0.00  0.00    +0.000 A 
ATOM      2  C   UNL     1       0.202   8.488  21.713  0.00  0.00    +0.000 A 
ATOM      3  C   UNL     1      -0.130   9.883  21.676  0.00  0.00    +0.000 A 
ATOM      4  C   UNL     1      -0.838  10.761  22.519  0.00  0.00    +0.000 A 
ATOM      5  C   UNL     1      -0.824  12.150  22.246  0.00  0.00    +0.000 A 
ATOM      6  C   UNL     1      -0.151  12.620  21.107  0.00  0.00    +0.000 A 
ATOM      7  C   UNL     1       0.485  11.760  20.218  0.00  0.00    +0.000 A 
ATOM      8  C   UNL     1       0.500  10.409  20.553  0.00  0.00    +0.000 A 
ATOM      9  N   UNL     1       1.134   9.382  19.912  0.00  0.00    +0.000 N 
ATOM     10  H   UNL     1       1.697   9.451  19.075  0.00  0.00    +0.000 HD
ENDROOT
BRANCH   1  15
ATOM     11  C   UNL     1       4.557   5.894  17.294  0.00  0.00    +0.000 A 
ATOM     12  C   UNL     1       3.887   7.108  17.079  0.00  0.00    +0.000 A 
ATOM     13  C   UNL     1       3.119   7.706  18.070  0.00  0.00    +0.000 A 
ATOM     14  C   UNL     1       2.767   6.931  19.174  0.00  0.00    +0.000 A 
ATOM     15  C   UNL     1       1.925   7.091  20.296  0.00  0.00    +0.000 A 
ATOM     16  N   UNL     1       1.890   5.989  21.058  0.00  0.00    +0.000 NA
ATOM     17  N   UNL     1       2.685   5.126  20.405  0.00  0.00    +0.000 N 
ATOM     18  C   UNL     1       3.324   5.674  19.316  0.00  0.00    +0.000 A 
ATOM     19  C   UNL     1       4.304   5.159  18.465  0.00  0.00    +0.000 A 
ATOM     20  H   UNL     1       2.715   4.163  20.727  0.00  0.00    +0.000 HD
BRANCH  11  23
ATOM     21  C   UNL     1       6.663   4.614  14.590  0.00  0.00    +0.000 A 
ATOM     22  C   UNL     1       5.447   4.542  15.280  0.00  0.00    +0.000 A 
ATOM     23  C   UNL     1       5.539   5.477  16.296  0.00  0.00    +0.000 A 
ATOM     24  N   UNL     1       6.778   6.041  16.129  0.00  0.00    +0.000 N 
ATOM     25  N   UNL     1       7.488   5.523  15.111  0.00  0.00    +0.000 NA
ATOM     26  H   UNL     1       7.197   6.798  16.657  0.00  0.00    +0.000 HD
ENDBRANCH  11  23
ENDBRANCH   1  15
BRANCH   5  27
ATOM     27  C   UNL     1      -1.411  13.153  23.219  0.00  0.00    +0.000 C 
BRANCH  27  28
ATOM     28  N   UNL     1      -2.828  13.058  23.566  0.00  0.00    +0.000 NA
ATOM     29  C   UNL     1      -3.761  12.921  22.446  0.00  0.00    +0.000 C 
ATOM     30  C   UNL     1      -4.348  14.244  21.936  0.00  0.00    +0.000 C 
ATOM     31  O   UNL     1      -4.944  14.998  23.000  0.00  0.00    +0.000 OA
ATOM     32  C   UNL     1      -3.980  15.276  24.022  0.00  0.00    +0.000 C 
ATOM     33  C   UNL     1      -3.342  13.985  24.573  0.00  0.00    +0.000 C 
ENDBRANCH  27  28
ENDBRANCH   5  27
TORSDOF 4
ENDMDL
MODEL 9
REMARK VINA RESULT:      -8.5      1.838      2.329
REMARK  Name = 
REMARK  4 active torsions:
REMARK  status: ('A' for Active; 'I' for Inactive)
REMARK    1  A    between atoms: C_3  and  C_4
REMARK    2  A    between atoms: C_8  and  C_9
REMARK    3  A    between atoms: C_13  and  C_14
REMARK    4  A    between atoms: C_14  and  N_15
REMARK                            x       y       z     vdW  Elec       q    Type
REMARK                         _______ _______ _______ _____ _____    ______ ____
ROOT
ATOM      1  C   UNL     1       0.818   9.065  20.505  0.00  0.00    +0.000 A 
ATOM      2  C   UNL     1       0.127   9.920  19.659  0.00  0.00    +0.000 A 
ATOM      3  C   UNL     1      -0.626  10.816  20.488  0.00  0.00    +0.000 A 
ATOM      4  C   UNL     1      -1.607  11.800  20.256  0.00  0.00    +0.000 A 
ATOM      5  C   UNL     1      -2.274  12.390  21.357  0.00  0.00    +0.000 A 
ATOM      6  C   UNL     1      -1.906  12.023  22.661  0.00  0.00    +0.000 A 
ATOM      7  C   UNL     1      -0.883  11.114  22.911  0.00  0.00    +0.000 A 
ATOM      8  C   UNL     1      -0.293  10.512  21.803  0.00  0.00    +0.000 A 
ATOM      9  N   UNL     1       0.651   9.525  21.775  0.00  0.00    +0.000 N 
ATOM     10  H   UNL     1       1.076   9.076  22.576  0.00  0.00    +0.000 HD
ENDROOT
BRANCH   1  15
ATOM     11  C   UNL     1       4.136   6.116  17.457  0.00  0.00    +0.000 A 
ATOM     12  C   UNL     1       3.552   7.341  17.100  0.00  0.00    +0.000 A 
ATOM     13  C   UNL     1       2.824   8.097  18.010  0.00  0.00    +0.000 A 
ATOM     14  C   UNL     1       2.417   7.477  19.190  0.00  0.00    +0.000 A 
ATOM     15  C   UNL     1       1.585   7.819  20.279  0.00  0.00    +0.000 A 
ATOM     16  N   UNL     1       1.473   6.815  21.160  0.00  0.00    +0.000 NA
ATOM     17  N   UNL     1       2.209   5.832  20.616  0.00  0.00    +0.000 N 
ATOM     18  C   UNL     1       2.887   6.209  19.479  0.00  0.00    +0.000 A 
ATOM     19  C   UNL     1       3.831   5.536  18.700  0.00  0.00    +0.000 A 
ATOM     20  H   UNL     1       2.172   4.912  21.044  0.00  0.00    +0.000 HD
BRANCH  11  23
ATOM     21  C   UNL     1       6.341   4.216  15.239  0.00  0.00    +0.000 A 
ATOM     22  C   UNL     1       5.431   4.201  16.303  0.00  0.00    +0.000 A 
ATOM     23  C   UNL     1       5.090   5.523  16.522  0.00  0.00    +0.000 A 
ATOM     24  N   UNL     1       5.797   6.219  15.575  0.00  0.00    +0.000 N 
ATOM     25  N   UNL     1       6.578   5.451  14.794  0.00  0.00    +0.000 NA
ATOM     26  H   UNL     1       5.781   7.215  15.388  0.00  0.00    +0.000 HD
ENDBRANCH  11  23
ENDBRANCH   1  15
BRANCH   5  27
ATOM     27  C   UNL     1      -3.460  13.313  21.161  0.00  0.00    +0.000 C 
BRANCH  27  28
ATOM     28  N   UNL     1      -4.781  12.731  20.933  0.00  0.00    +0.000 NA
ATOM     29  C   UNL     1      -5.386  12.988  19.625  0.00  0.00    +0.000 C 
ATOM     30  C   UNL     1      -6.316  14.209  19.578  0.00  0.00    +0.000 C 
ATOM     31  O   UNL     1      -7.324  14.138  20.595  0.00  0.00    +0.000 OA
ATOM     32  C   UNL     1      -6.726  14.054  21.894  0.00  0.00    +0.000 C 
ATOM     33  C   UNL     1      -5.768  12.850  22.005  0.00  0.00    +0.000 C 
ENDBRANCH  27  28
ENDBRANCH   5  27
TORSDOF 4
ENDMDL
