MODEL 1
REMARK VINA RESULT:      -9.0      0.000      0.000
REMARK  Name = 
REMARK  8 active torsions:
REMARK  status: ('A' for Active; 'I' for Inactive)
REMARK    1  A    between atoms: C_1  and  C_2
REMARK    2  A    between atoms: N_4  and  C_5
REMARK    3  A    between atoms: C_8  and  C_9
REMARK    4  A    between atoms: N_11  and  C_12
REMARK    5  A    between atoms: C_16  and  C_17
REMARK    6  A    between atoms: C_17  and  N_18
REMARK    7  A    between atoms: N_18  and  C_19
REMARK    8  A    between atoms: C_24  and  C_25
REMARK                            x       y       z     vdW  Elec       q    Type
REMARK                         _______ _______ _______ _____ _____    ______ ____
ROOT
ATOM      1  C   UNL     1       7.987   8.255  17.890  0.00  0.00    +0.000 A 
ATOM      2  C   UNL     1       8.523   7.421  18.866  0.00  0.00    +0.000 A 
ATOM      3  C   UNL     1       7.984   6.143  19.034  0.00  0.00    +0.000 A 
ATOM      4  C   UNL     1       6.985   5.668  18.162  0.00  0.00    +0.000 A 
ATOM      5  C   UNL     1       6.495   6.479  17.107  0.00  0.00    +0.000 A 
ATOM      6  C   UNL     1       6.983   7.790  17.035  0.00  0.00    +0.000 A 
ENDROOT
BRANCH   1   9
ATOM      7  C   UNL     1       8.976  10.235  18.883  0.00  0.00    +0.000 C 
ATOM      8  O   UNL     1       9.048   9.749  20.012  0.00  0.00    +0.000 OA
ATOM      9  N   UNL     1       8.465   9.580  17.772  0.00  0.00    +0.000 N 
ATOM     10  H   UNL     1       8.836   9.857  16.872  0.00  0.00    +0.000 HD
BRANCH   7  14
ATOM     11  C   UNL     1      10.952  14.026  18.352  0.00  0.00    +0.000 A 
ATOM     12  C   UNL     1      11.215  12.931  17.526  0.00  0.00    +0.000 A 
ATOM     13  C   UNL     1      10.523  11.731  17.680  0.00  0.00    +0.000 A 
ATOM     14  C   UNL     1       9.549  11.594  18.671  0.00  0.00    +0.000 A 
ATOM     15  C   UNL     1       9.256  12.686  19.495  0.00  0.00    +0.000 A 
ATOM     16  C   UNL     1       9.971  13.892  19.345  0.00  0.00    +0.000 A 
BRANCH  11  20
ATOM     17  C   UNL     1      12.304  17.430  17.402  0.00  0.00    +0.000 C 
ATOM     18  C   UNL     1      11.312  16.299  17.407  0.00  0.00    +0.000 C 
ATOM     19  O   UNL     1      10.295  16.384  16.726  0.00  0.00    +0.000 OA
ATOM     20  N   UNL     1      11.670  15.241  18.232  0.00  0.00    +0.000 N 
ATOM     21  H   UNL     1      12.456  15.376  18.856  0.00  0.00    +0.000 HD
ENDBRANCH  11  20
ENDBRANCH   7  14
ENDBRANCH   1   9
BRANCH   5  22
ATOM     22  C   UNL     1       5.410   6.063  16.125  0.00  0.00    +0.000 C 
BRANCH  22  23
ATOM     23  N   UNL     1       4.311   5.302  16.671  0.00  0.00    +0.000 N 
ATOM     24  H   UNL     1       4.133   4.483  16.107  0.00  0.00    +0.000 HD
BRANCH  23  25
ATOM     25  C   UNL     1       3.169   5.417  17.454  0.00  0.00    +0.000 A 
ATOM     26  N   UNL     1       3.448   6.496  18.230  0.00  0.00    +0.000 NA
ATOM     27  C   UNL     1       3.645   6.223  19.507  0.00  0.00    +0.000 A 
ATOM     28  N   UNL     1       3.444   5.037  20.040  0.00  0.00    +0.000 NA
ATOM     29  C   UNL     1       2.908   4.071  19.262  0.00  0.00    +0.000 A 
ATOM     30  C   UNL     1       2.768   2.816  19.802  0.00  0.00    +0.000 A 
ATOM     31  C   UNL     1       1.681   2.026  19.451  0.00  0.00    +0.000 A 
ATOM     32  C   UNL     1       0.785   2.541  18.532  0.00  0.00    +0.000 A 
ATOM     33  C   UNL     1       1.180   3.661  17.755  0.00  0.00    +0.000 A 
ATOM     34  C   UNL     1       2.438   4.337  17.984  0.00  0.00    +0.000 A 
BRANCH  30  35
ATOM     35  C   UNL     1       3.799   2.321  20.746  0.00  0.00    +0.000 C 
ATOM     36  N   UNL     1       5.039   2.078  20.226  0.00  0.00    +0.000 N 
ATOM     37  O   UNL     1       3.536   2.101  21.917  0.00  0.00    +0.000 OA
ATOM     38  H   UNL     1       5.236   2.373  19.270  0.00  0.00    +0.000 HD
ATOM     39  H   UNL     1       5.800   1.810  20.817  0.00  0.00    +0.000 HD
ENDBRANCH  30  35
ENDBRANCH  23  25
ENDBRANCH  22  23
ENDBRANCH   5  22
TORSDOF 7
ENDMDL
MODEL 2
REMARK VINA RESULT:      -9.0      6.618      9.082
REMARK  Name = 
REMARK  8 active torsions:
REMARK  status: ('A' for Active; 'I' for Inactive)
REMARK    1  A    between atoms: C_1  and  C_2
REMARK    2  A    between atoms: N_4  and  C_5
REMARK    3  A    between atoms: C_8  and  C_9
REMARK    4  A    between atoms: N_11  and  C_12
REMARK    5  A    between atoms: C_16  and  C_17
REMARK    6  A    between atoms: C_17  and  N_18
REMARK    7  A    between atoms: N_18  and  C_19
REMARK    8  A    between atoms: C_24  and  C_25
REMARK                            x       y       z     vdW  Elec       q    Type
REMARK                         _______ _______ _______ _____ _____    ______ ____
ROOT
ATOM      1  C   UNL     1       1.200   9.473  19.742  0.00  0.00    +0.000 A 
ATOM      2  C   UNL     1       1.511   9.652  18.398  0.00  0.00    +0.000 A 
ATOM      3  C   UNL     1       2.232   8.658  17.733  0.00  0.00    +0.000 A 
ATOM      4  C   UNL     1       2.548   7.448  18.382  0.00  0.00    +0.000 A 
ATOM      5  C   UNL     1       2.157   7.220  19.725  0.00  0.00    +0.000 A 
ATOM      6  C   UNL     1       1.529   8.281  20.392  0.00  0.00    +0.000 A 
ENDROOT
BRANCH   1   9
ATOM      7  C   UNL     1      -0.737  10.891  20.095  0.00  0.00    +0.000 C 
ATOM      8  O   UNL     1      -1.390  10.389  19.181  0.00  0.00    +0.000 OA
ATOM      9  N   UNL     1       0.550  10.512  20.447  0.00  0.00    +0.000 N 
ATOM     10  H   UNL     1       0.813  10.646  21.416  0.00  0.00    +0.000 HD
BRANCH   7  14
ATOM     11  C   UNL     1      -2.717  13.626  22.770  0.00  0.00    +0.000 A 
ATOM     12  C   UNL     1      -1.526  12.984  23.115  0.00  0.00    +0.000 A 
ATOM     13  C   UNL     1      -0.873  12.147  22.213  0.00  0.00    +0.000 A 
ATOM     14  C   UNL     1      -1.398  11.926  20.938  0.00  0.00    +0.000 A 
ATOM     15  C   UNL     1      -2.580  12.576  20.566  0.00  0.00    +0.000 A 
ATOM     16  C   UNL     1      -3.246  13.409  21.490  0.00  0.00    +0.000 A 
BRANCH  11  20
ATOM     17  C   UNL     1      -4.066  16.449  24.898  0.00  0.00    +0.000 C 
ATOM     18  C   UNL     1      -3.283  15.832  23.773  0.00  0.00    +0.000 C 
ATOM     19  O   UNL     1      -2.622  16.551  23.030  0.00  0.00    +0.000 OA
ATOM     20  N   UNL     1      -3.413  14.452  23.687  0.00  0.00    +0.000 N 
ATOM     21  H   UNL     1      -4.116  14.010  24.266  0.00  0.00    +0.000 HD
ENDBRANCH  11  20
ENDBRANCH   7  14
ENDBRANCH   1   9
BRANCH   5  22
ATOM     22  C   UNL     1       2.463   5.958  20.516  0.00  0.00    +0.000 C 
BRANCH  22  23
ATOM     23  N   UNL     1       2.097   4.708  19.892  0.00  0.00    +0.000 N 
ATOM     24  H   UNL     1       1.344   4.265  20.399  0.00  0.00    +0.000 HD
BRANCH  23  25
ATOM     25  C   UNL     1       2.590   3.691  19.082  0.00  0.00    +0.000 A 
ATOM     26  N   UNL     1       2.792   2.679  19.964  0.00  0.00    +0.000 NA
ATOM     27  C   UNL     1       4.061   2.386  20.187  0.00  0.00    +0.000 A 
ATOM     28  N   UNL     1       5.061   2.907  19.510  0.00  0.00    +0.000 NA
ATOM     29  C   UNL     1       4.773   3.710  18.462  0.00  0.00    +0.000 A 
ATOM     30  C   UNL     1       5.819   4.310  17.805  0.00  0.00    +0.000 A 
ATOM     31  C   UNL     1       5.754   4.511  16.433  0.00  0.00    +0.000 A 
ATOM     32  C   UNL     1       4.601   4.114  15.781  0.00  0.00    +0.000 A 
ATOM     33  C   UNL     1       3.441   3.850  16.556  0.00  0.00    +0.000 A 
ATOM     34  C   UNL     1       3.474   3.874  18.002  0.00  0.00    +0.000 A 
BRANCH  30  35
ATOM     35  C   UNL     1       7.001   4.748  18.587  0.00  0.00    +0.000 C 
ATOM     36  N   UNL     1       6.755   5.510  19.693  0.00  0.00    +0.000 N 
ATOM     37  O   UNL     1       8.135   4.476  18.230  0.00  0.00    +0.000 OA
ATOM     38  H   UNL     1       5.791   5.624  20.005  0.00  0.00    +0.000 HD
ATOM     39  H   UNL     1       7.498   5.782  20.305  0.00  0.00    +0.000 HD
ENDBRANCH  30  35
ENDBRANCH  23  25
ENDBRANCH  22  23
ENDBRANCH   5  22
TORSDOF 7
ENDMDL
MODEL 3
REMARK VINA RESULT:      -8.9      6.787      9.131
REMARK  Name = 
REMARK  8 active torsions:
REMARK  status: ('A' for Active; 'I' for Inactive)
REMARK    1  A    between atoms: C_1  and  C_2
REMARK    2  A    between atoms: N_4  and  C_5
REMARK    3  A    between atoms: C_8  and  C_9
REMARK    4  A    between atoms: N_11  and  C_12
REMARK    5  A    between atoms: C_16  and  C_17
REMARK    6  A    between atoms: C_17  and  N_18
REMARK    7  A    between atoms: N_18  and  C_19
REMARK    8  A    between atoms: C_24  and  C_25
REMARK                            x       y       z     vdW  Elec       q    Type
REMARK                         _______ _______ _______ _____ _____    ______ ____
ROOT
ATOM      1  C   UNL     1       0.595   9.400  19.962  0.00  0.00    +0.000 A 
ATOM      2  C   UNL     1       0.948   9.687  18.648  0.00  0.00    +0.000 A 
ATOM      3  C   UNL     1       1.861   8.856  17.995  0.00  0.00    +0.000 A 
ATOM      4  C   UNL     1       2.337   7.687  18.622  0.00  0.00    +0.000 A 
ATOM      5  C   UNL     1       1.913   7.337  19.928  0.00  0.00    +0.000 A 
ATOM      6  C   UNL     1       1.080   8.249  20.590  0.00  0.00    +0.000 A 
ENDROOT
BRANCH   1   9
ATOM      7  C   UNL     1       0.278  11.343  21.379  0.00  0.00    +0.000 C 
ATOM      8  O   UNL     1       1.481  11.587  21.476  0.00  0.00    +0.000 OA
ATOM      9  N   UNL     1      -0.258  10.286  20.660  0.00  0.00    +0.000 N 
ATOM     10  H   UNL     1      -1.190  10.418  20.286  0.00  0.00    +0.000 HD
BRANCH   7  14
ATOM     11  C   UNL     1      -2.227  14.182  23.435  0.00  0.00    +0.000 A 
ATOM     12  C   UNL     1      -1.106  14.578  22.702  0.00  0.00    +0.000 A 
ATOM     13  C   UNL     1      -0.342  13.648  21.998  0.00  0.00    +0.000 A 
ATOM     14  C   UNL     1      -0.679  12.293  22.013  0.00  0.00    +0.000 A 
ATOM     15  C   UNL     1      -1.811  11.879  22.724  0.00  0.00    +0.000 A 
ATOM     16  C   UNL     1      -2.571  12.822  23.448  0.00  0.00    +0.000 A 
BRANCH  11  20
ATOM     17  C   UNL     1      -4.787  16.641  24.744  0.00  0.00    +0.000 C 
ATOM     18  C   UNL     1      -4.239  15.597  23.811  0.00  0.00    +0.000 C 
ATOM     19  O   UNL     1      -4.897  15.252  22.835  0.00  0.00    +0.000 OA
ATOM     20  N   UNL     1      -2.994  15.108  24.184  0.00  0.00    +0.000 N 
ATOM     21  H   UNL     1      -2.642  15.367  25.097  0.00  0.00    +0.000 HD
ENDBRANCH  11  20
ENDBRANCH   7  14
ENDBRANCH   1   9
BRANCH   5  22
ATOM     22  C   UNL     1       2.378   6.108  20.692  0.00  0.00    +0.000 C 
BRANCH  22  23
ATOM     23  N   UNL     1       2.011   4.829  20.131  0.00  0.00    +0.000 N 
ATOM     24  H   UNL     1       1.334   4.365  20.719  0.00  0.00    +0.000 HD
BRANCH  23  25
ATOM     25  C   UNL     1       2.469   3.817  19.295  0.00  0.00    +0.000 A 
ATOM     26  N   UNL     1       2.674   2.788  20.157  0.00  0.00    +0.000 NA
ATOM     27  C   UNL     1       3.942   2.470  20.346  0.00  0.00    +0.000 A 
ATOM     28  N   UNL     1       4.936   2.986  19.655  0.00  0.00    +0.000 NA
ATOM     29  C   UNL     1       4.638   3.809  18.626  0.00  0.00    +0.000 A 
ATOM     30  C   UNL     1       5.679   4.402  17.956  0.00  0.00    +0.000 A 
ATOM     31  C   UNL     1       5.587   4.626  16.589  0.00  0.00    +0.000 A 
ATOM     32  C   UNL     1       4.413   4.258  15.956  0.00  0.00    +0.000 A 
ATOM     33  C   UNL     1       3.267   4.001  16.753  0.00  0.00    +0.000 A 
ATOM     34  C   UNL     1       3.332   4.002  18.198  0.00  0.00    +0.000 A 
BRANCH  30  35
ATOM     35  C   UNL     1       6.886   4.808  18.718  0.00  0.00    +0.000 C 
ATOM     36  N   UNL     1       8.086   4.357  18.248  0.00  0.00    +0.000 N 
ATOM     37  O   UNL     1       6.799   5.472  19.737  0.00  0.00    +0.000 OA
ATOM     38  H   UNL     1       8.115   3.892  17.341  0.00  0.00    +0.000 HD
ATOM     39  H   UNL     1       8.945   4.648  18.671  0.00  0.00    +0.000 HD
ENDBRANCH  30  35
ENDBRANCH  23  25
ENDBRANCH  22  23
ENDBRANCH   5  22
TORSDOF 7
ENDMDL
MODEL 4
REMARK VINA RESULT:      -8.9      2.353     11.244
REMARK  Name = 
REMARK  8 active torsions:
REMARK  status: ('A' for Active; 'I' for Inactive)
REMARK    1  A    between atoms: C_1  and  C_2
REMARK    2  A    between atoms: N_4  and  C_5
REMARK    3  A    between atoms: C_8  and  C_9
REMARK    4  A    between atoms: N_11  and  C_12
REMARK    5  A    between atoms: C_16  and  C_17
REMARK    6  A    between atoms: C_17  and  N_18
REMARK    7  A    between atoms: N_18  and  C_19
REMARK    8  A    between atoms: C_24  and  C_25
REMARK                            x       y       z     vdW  Elec       q    Type
REMARK                         _______ _______ _______ _____ _____    ______ ____
ROOT
ATOM      1  C   UNL     1       9.738  10.602  19.658  0.00  0.00    +0.000 A 
ATOM      2  C   UNL     1       9.501  11.246  20.869  0.00  0.00    +0.000 A 
ATOM      3  C   UNL     1      10.180  12.434  21.147  0.00  0.00    +0.000 A 
ATOM      4  C   UNL     1      11.013  13.026  20.177  0.00  0.00    +0.000 A 
ATOM      5  C   UNL     1      11.190  12.423  18.906  0.00  0.00    +0.000 A 
ATOM      6  C   UNL     1      10.577  11.180  18.702  0.00  0.00    +0.000 A 
ENDROOT
BRANCH   1   9
ATOM      7  C   UNL     1       8.320   9.189  18.287  0.00  0.00    +0.000 C 
ATOM      8  O   UNL     1       8.076  10.071  17.464  0.00  0.00    +0.000 OA
ATOM      9  N   UNL     1       9.124   9.354  19.406  0.00  0.00    +0.000 N 
ATOM     10  H   UNL     1       9.603   8.529  19.746  0.00  0.00    +0.000 HD
BRANCH   7  14
ATOM     11  C   UNL     1       6.443   5.365  17.646  0.00  0.00    +0.000 A 
ATOM     12  C   UNL     1       6.103   6.493  16.896  0.00  0.00    +0.000 A 
ATOM     13  C   UNL     1       6.763   7.706  17.082  0.00  0.00    +0.000 A 
ATOM     14  C   UNL     1       7.782   7.824  18.029  0.00  0.00    +0.000 A 
ATOM     15  C   UNL     1       8.151   6.701  18.777  0.00  0.00    +0.000 A 
ATOM     16  C   UNL     1       7.468   5.480  18.595  0.00  0.00    +0.000 A 
BRANCH  11  20
ATOM     17  C   UNL     1       4.017   2.463  17.726  0.00  0.00    +0.000 C 
ATOM     18  C   UNL     1       4.464   3.884  17.929  0.00  0.00    +0.000 C 
ATOM     19  O   UNL     1       3.691   4.695  18.429  0.00  0.00    +0.000 OA
ATOM     20  N   UNL     1       5.759   4.134  17.495  0.00  0.00    +0.000 N 
ATOM     21  H   UNL     1       6.222   3.412  16.958  0.00  0.00    +0.000 HD
ENDBRANCH  11  20
ENDBRANCH   7  14
ENDBRANCH   1   9
BRANCH   5  22
ATOM     22  C   UNL     1      12.076  12.975  17.800  0.00  0.00    +0.000 C 
BRANCH  22  23
ATOM     23  N   UNL     1      11.704  14.264  17.265  0.00  0.00    +0.000 N 
ATOM     24  H   UNL     1      12.508  14.873  17.213  0.00  0.00    +0.000 HD
BRANCH  23  25
ATOM     25  C   UNL     1      10.626  15.129  17.119  0.00  0.00    +0.000 A 
ATOM     26  N   UNL     1      11.210  16.252  16.626  0.00  0.00    +0.000 NA
ATOM     27  C   UNL     1      11.230  17.276  17.459  0.00  0.00    +0.000 A 
ATOM     28  N   UNL     1      10.608  17.288  18.618  0.00  0.00    +0.000 NA
ATOM     29  C   UNL     1       9.821  16.235  18.930  0.00  0.00    +0.000 A 
ATOM     30  C   UNL     1       9.233  16.218  20.171  0.00  0.00    +0.000 A 
ATOM     31  C   UNL     1       7.965  15.677  20.332  0.00  0.00    +0.000 A 
ATOM     32  C   UNL     1       7.350  15.142  19.214  0.00  0.00    +0.000 A 
ATOM     33  C   UNL     1       8.145  14.864  18.071  0.00  0.00    +0.000 A 
ATOM     34  C   UNL     1       9.543  15.232  18.013  0.00  0.00    +0.000 A 
BRANCH  30  35
ATOM     35  C   UNL     1       9.981  16.771  21.328  0.00  0.00    +0.000 C 
ATOM     36  N   UNL     1      11.290  16.402  21.443  0.00  0.00    +0.000 N 
ATOM     37  O   UNL     1       9.435  17.482  22.155  0.00  0.00    +0.000 OA
ATOM     38  H   UNL     1      11.725  15.891  20.674  0.00  0.00    +0.000 HD
ATOM     39  H   UNL     1      11.873  16.791  22.157  0.00  0.00    +0.000 HD
ENDBRANCH  30  35
ENDBRANCH  23  25
ENDBRANCH  22  23
ENDBRANCH   5  22
TORSDOF 7
ENDMDL
MODEL 5
REMARK VINA RESULT:      -8.9      7.020      9.926
REMARK  Name = 
REMARK  8 active torsions:
REMARK  status: ('A' for Active; 'I' for Inactive)
REMARK    1  A    between atoms: C_1  and  C_2
REMARK    2  A    between atoms: N_4  and  C_5
REMARK    3  A    between atoms: C_8  and  C_9
REMARK    4  A    between atoms: N_11  and  C_12
REMARK    5  A    between atoms: C_16  and  C_17
REMARK    6  A    between atoms: C_17  and  N_18
REMARK    7  A    between atoms: N_18  and  C_19
REMARK    8  A    between atoms: C_24  and  C_25
REMARK                            x       y       z     vdW  Elec       q    Type
REMARK                         _______ _______ _______ _____ _____    ______ ____
ROOT
ATOM      1  C   UNL     1       0.295   9.829  19.686  0.00  0.00    +0.000 A 
ATOM      2  C   UNL     1       0.839  10.151  18.447  0.00  0.00    +0.000 A 
ATOM      3  C   UNL     1       1.865   9.355  17.931  0.00  0.00    +0.000 A 
ATOM      4  C   UNL     1       2.270   8.186  18.605  0.00  0.00    +0.000 A 
ATOM      5  C   UNL     1       1.659   7.801  19.825  0.00  0.00    +0.000 A 
ATOM      6  C   UNL     1       0.709   8.679  20.363  0.00  0.00    +0.000 A 
ENDROOT
BRANCH   1   9
ATOM      7  C   UNL     1      -0.515  11.154  21.550  0.00  0.00    +0.000 C 
ATOM      8  O   UNL     1       0.439  10.884  22.280  0.00  0.00    +0.000 OA
ATOM      9  N   UNL     1      -0.679  10.679  20.257  0.00  0.00    +0.000 N 
ATOM     10  H   UNL     1      -1.206  11.266  19.623  0.00  0.00    +0.000 HD
BRANCH   7  14
ATOM     11  C   UNL     1      -3.692  13.687  22.981  0.00  0.00    +0.000 A 
ATOM     12  C   UNL     1      -3.271  12.558  23.686  0.00  0.00    +0.000 A 
ATOM     13  C   UNL     1      -2.203  11.784  23.233  0.00  0.00    +0.000 A 
ATOM     14  C   UNL     1      -1.529  12.120  22.057  0.00  0.00    +0.000 A 
ATOM     15  C   UNL     1      -1.923  13.260  21.347  0.00  0.00    +0.000 A 
ATOM     16  C   UNL     1      -3.014  14.030  21.802  0.00  0.00    +0.000 A 
BRANCH  11  20
ATOM     17  C   UNL     1      -7.092  15.209  23.640  0.00  0.00    +0.000 C 
ATOM     18  C   UNL     1      -6.128  14.163  23.153  0.00  0.00    +0.000 C 
ATOM     19  O   UNL     1      -6.556  13.155  22.600  0.00  0.00    +0.000 OA
ATOM     20  N   UNL     1      -4.797  14.465  23.408  0.00  0.00    +0.000 N 
ATOM     21  H   UNL     1      -4.600  15.252  24.013  0.00  0.00    +0.000 HD
ENDBRANCH  11  20
ENDBRANCH   7  14
ENDBRANCH   1   9
BRANCH   5  22
ATOM     22  C   UNL     1       2.036   6.569  20.633  0.00  0.00    +0.000 C 
BRANCH  22  23
ATOM     23  N   UNL     1       3.038   5.706  20.053  0.00  0.00    +0.000 N 
ATOM     24  H   UNL     1       3.952   6.132  20.113  0.00  0.00    +0.000 HD
BRANCH  23  25
ATOM     25  C   UNL     1       3.213   4.680  19.131  0.00  0.00    +0.000 A 
ATOM     26  N   UNL     1       3.206   3.571  19.914  0.00  0.00    +0.000 NA
ATOM     27  C   UNL     1       4.370   2.956  20.013  0.00  0.00    +0.000 A 
ATOM     28  N   UNL     1       5.430   3.278  19.302  0.00  0.00    +0.000 NA
ATOM     29  C   UNL     1       5.292   4.222  18.345  0.00  0.00    +0.000 A 
ATOM     30  C   UNL     1       6.416   4.606  17.656  0.00  0.00    +0.000 A 
ATOM     31  C   UNL     1       6.326   4.946  16.313  0.00  0.00    +0.000 A 
ATOM     32  C   UNL     1       5.075   4.907  15.724  0.00  0.00    +0.000 A 
ATOM     33  C   UNL     1       3.932   4.863  16.566  0.00  0.00    +0.000 A 
ATOM     34  C   UNL     1       4.052   4.742  18.002  0.00  0.00    +0.000 A 
BRANCH  30  35
ATOM     35  C   UNL     1       7.713   4.666  18.374  0.00  0.00    +0.000 C 
ATOM     36  N   UNL     1       7.758   5.449  19.492  0.00  0.00    +0.000 N 
ATOM     37  O   UNL     1       8.698   4.080  17.957  0.00  0.00    +0.000 OA
ATOM     38  H   UNL     1       6.887   5.836  19.855  0.00  0.00    +0.000 HD
ATOM     39  H   UNL     1       8.578   5.481  20.064  0.00  0.00    +0.000 HD
ENDBRANCH  30  35
ENDBRANCH  23  25
ENDBRANCH  22  23
ENDBRANCH   5  22
TORSDOF 7
ENDMDL
MODEL 6
REMARK VINA RESULT:      -8.8      6.742      9.138
REMARK  Name = 
REMARK  8 active torsions:
REMARK  status: ('A' for Active; 'I' for Inactive)
REMARK    1  A    between atoms: C_1  and  C_2
REMARK    2  A    between atoms: N_4  and  C_5
REMARK    3  A    between atoms: C_8  and  C_9
REMARK    4  A    between atoms: N_11  and  C_12
REMARK    5  A    between atoms: C_16  and  C_17
REMARK    6  A    between atoms: C_17  and  N_18
REMARK    7  A    between atoms: N_18  and  C_19
REMARK    8  A    between atoms: C_24  and  C_25
REMARK                            x       y       z     vdW  Elec       q    Type
REMARK                         _______ _______ _______ _____ _____    ______ ____
ROOT
ATOM      1  C   UNL     1       0.621   9.546  19.792  0.00  0.00    +0.000 A 
ATOM      2  C   UNL     1       1.004   9.810  18.481  0.00  0.00    +0.000 A 
ATOM      3  C   UNL     1       1.929   8.965  17.864  0.00  0.00    +0.000 A 
ATOM      4  C   UNL     1       2.387   7.805  18.520  0.00  0.00    +0.000 A 
ATOM      5  C   UNL     1       1.933   7.480  19.823  0.00  0.00    +0.000 A 
ATOM      6  C   UNL     1       1.088   8.405  20.450  0.00  0.00    +0.000 A 
ENDROOT
BRANCH   1   9
ATOM      7  C   UNL     1       0.280  11.486  21.209  0.00  0.00    +0.000 C 
ATOM      8  O   UNL     1       1.481  11.702  21.365  0.00  0.00    +0.000 OA
ATOM      9  N   UNL     1      -0.245  10.446  20.456  0.00  0.00    +0.000 N 
ATOM     10  H   UNL     1      -1.154  10.601  20.039  0.00  0.00    +0.000 HD
BRANCH   7  14
ATOM     11  C   UNL     1      -2.766  14.126  22.730  0.00  0.00    +0.000 A 
ATOM     12  C   UNL     1      -2.782  12.753  22.983  0.00  0.00    +0.000 A 
ATOM     13  C   UNL     1      -1.756  11.926  22.529  0.00  0.00    +0.000 A 
ATOM     14  C   UNL     1      -0.685  12.453  21.803  0.00  0.00    +0.000 A 
ATOM     15  C   UNL     1      -0.641  13.829  21.556  0.00  0.00    +0.000 A 
ATOM     16  C   UNL     1      -1.690  14.659  22.005  0.00  0.00    +0.000 A 
BRANCH  11  20
ATOM     17  C   UNL     1      -5.080  16.494  24.561  0.00  0.00    +0.000 C 
ATOM     18  C   UNL     1      -3.793  15.763  24.298  0.00  0.00    +0.000 C 
ATOM     19  O   UNL     1      -2.846  15.910  25.064  0.00  0.00    +0.000 OA
ATOM     20  N   UNL     1      -3.818  14.975  23.154  0.00  0.00    +0.000 N 
ATOM     21  H   UNL     1      -4.610  15.074  22.532  0.00  0.00    +0.000 HD
ENDBRANCH  11  20
ENDBRANCH   7  14
ENDBRANCH   1   9
BRANCH   5  22
ATOM     22  C   UNL     1       2.378   6.262  20.618  0.00  0.00    +0.000 C 
BRANCH  22  23
ATOM     23  N   UNL     1       2.002   4.975  20.082  0.00  0.00    +0.000 N 
ATOM     24  H   UNL     1       1.324   4.526  20.680  0.00  0.00    +0.000 HD
BRANCH  23  25
ATOM     25  C   UNL     1       2.452   3.946  19.263  0.00  0.00    +0.000 A 
ATOM     26  N   UNL     1       2.616   2.920  20.137  0.00  0.00    +0.000 NA
ATOM     27  C   UNL     1       3.871   2.573  20.354  0.00  0.00    +0.000 A 
ATOM     28  N   UNL     1       4.891   3.059  19.679  0.00  0.00    +0.000 NA
ATOM     29  C   UNL     1       4.633   3.881  18.638  0.00  0.00    +0.000 A 
ATOM     30  C   UNL     1       5.701   4.443  17.983  0.00  0.00    +0.000 A 
ATOM     31  C   UNL     1       5.641   4.657  16.612  0.00  0.00    +0.000 A 
ATOM     32  C   UNL     1       4.471   4.312  15.960  0.00  0.00    +0.000 A 
ATOM     33  C   UNL     1       3.303   4.089  16.736  0.00  0.00    +0.000 A 
ATOM     34  C   UNL     1       3.340   4.101  18.182  0.00  0.00    +0.000 A 
BRANCH  30  35
ATOM     35  C   UNL     1       6.902   4.827  18.765  0.00  0.00    +0.000 C 
ATOM     36  N   UNL     1       8.106   4.392  18.290  0.00  0.00    +0.000 N 
ATOM     37  O   UNL     1       6.808   5.460  19.804  0.00  0.00    +0.000 OA
ATOM     38  H   UNL     1       8.141   3.955  17.369  0.00  0.00    +0.000 HD
ATOM     39  H   UNL     1       8.961   4.671  18.728  0.00  0.00    +0.000 HD
ENDBRANCH  30  35
ENDBRANCH  23  25
ENDBRANCH  22  23
ENDBRANCH   5  22
TORSDOF 7
ENDMDL
MODEL 7
REMARK VINA RESULT:      -8.7      6.013     10.868
REMARK  Name = 
REMARK  8 active torsions:
REMARK  status: ('A' for Active; 'I' for Inactive)
REMARK    1  A    between atoms: C_1  and  C_2
REMARK    2  A    between atoms: N_4  and  C_5
REMARK    3  A    between atoms: C_8  and  C_9
REMARK    4  A    between atoms: N_11  and  C_12
REMARK    5  A    between atoms: C_16  and  C_17
REMARK    6  A    between atoms: C_17  and  N_18
REMARK    7  A    between atoms: N_18  and  C_19
REMARK    8  A    between atoms: C_24  and  C_25
REMARK                            x       y       z     vdW  Elec       q    Type
REMARK                         _______ _______ _______ _____ _____    ______ ____
ROOT
ATOM      1  C   UNL     1       2.242   8.033  18.644  0.00  0.00    +0.000 A 
ATOM      2  C   UNL     1       2.087   7.534  19.933  0.00  0.00    +0.000 A 
ATOM      3  C   UNL     1       1.294   8.239  20.841  0.00  0.00    +0.000 A 
ATOM      4  C   UNL     1       0.579   9.381  20.429  0.00  0.00    +0.000 A 
ATOM      5  C   UNL     1       0.659   9.846  19.092  0.00  0.00    +0.000 A 
ATOM      6  C   UNL     1       1.546   9.176  18.239  0.00  0.00    +0.000 A 
ENDROOT
BRANCH   1   9
ATOM      7  C   UNL     1       3.691   6.165  18.100  0.00  0.00    +0.000 C 
ATOM      8  O   UNL     1       3.511   5.590  19.173  0.00  0.00    +0.000 OA
ATOM      9  N   UNL     1       3.114   7.376  17.746  0.00  0.00    +0.000 N 
ATOM     10  H   UNL     1       2.962   7.535  16.758  0.00  0.00    +0.000 HD
BRANCH   7  14
ATOM     11  C   UNL     1       5.863   4.294  14.884  0.00  0.00    +0.000 A 
ATOM     12  C   UNL     1       5.711   5.679  14.968  0.00  0.00    +0.000 A 
ATOM     13  C   UNL     1       5.053   6.266  16.047  0.00  0.00    +0.000 A 
ATOM     14  C   UNL     1       4.524   5.480  17.072  0.00  0.00    +0.000 A 
ATOM     15  C   UNL     1       4.683   4.091  17.017  0.00  0.00    +0.000 A 
ATOM     16  C   UNL     1       5.336   3.501  15.914  0.00  0.00    +0.000 A 
BRANCH  11  20
ATOM     17  C   UNL     1       6.760   2.625  11.609  0.00  0.00    +0.000 C 
ATOM     18  C   UNL     1       5.875   3.359  12.578  0.00  0.00    +0.000 C 
ATOM     19  O   UNL     1       4.721   3.628  12.260  0.00  0.00    +0.000 OA
ATOM     20  N   UNL     1       6.498   3.677  13.778  0.00  0.00    +0.000 N 
ATOM     21  H   UNL     1       7.498   3.536  13.840  0.00  0.00    +0.000 HD
ENDBRANCH  11  20
ENDBRANCH   7  14
ENDBRANCH   1   9
BRANCH   5  22
ATOM     22  C   UNL     1      -0.061  11.073  18.556  0.00  0.00    +0.000 C 
BRANCH  22  23
ATOM     23  N   UNL     1       0.682  12.311  18.575  0.00  0.00    +0.000 N 
ATOM     24  H   UNL     1       0.640  12.764  17.673  0.00  0.00    +0.000 HD
BRANCH  23  25
ATOM     25  C   UNL     1       1.725  12.963  19.223  0.00  0.00    +0.000 A 
ATOM     26  N   UNL     1       1.277  13.043  20.502  0.00  0.00    +0.000 NA
ATOM     27  C   UNL     1       0.975  14.264  20.907  0.00  0.00    +0.000 A 
ATOM     28  N   UNL     1       1.223  15.349  20.205  0.00  0.00    +0.000 NA
ATOM     29  C   UNL     1       1.916  15.218  19.053  0.00  0.00    +0.000 A 
ATOM     30  C   UNL     1       2.108  16.342  18.288  0.00  0.00    +0.000 A 
ATOM     31  C   UNL     1       3.289  16.504  17.576  0.00  0.00    +0.000 A 
ATOM     32  C   UNL     1       4.227  15.490  17.649  0.00  0.00    +0.000 A 
ATOM     33  C   UNL     1       3.817  14.224  18.145  0.00  0.00    +0.000 A 
ATOM     34  C   UNL     1       2.489  14.011  18.676  0.00  0.00    +0.000 A 
BRANCH  30  35
ATOM     35  C   UNL     1       1.033  17.362  18.228  0.00  0.00    +0.000 C 
ATOM     36  N   UNL     1      -0.246  16.896  18.113  0.00  0.00    +0.000 N 
ATOM     37  O   UNL     1       1.287  18.555  18.234  0.00  0.00    +0.000 OA
ATOM     38  H   UNL     1      -0.415  15.895  18.214  0.00  0.00    +0.000 HD
ATOM     39  H   UNL     1      -1.025  17.524  18.137  0.00  0.00    +0.000 HD
ENDBRANCH  30  35
ENDBRANCH  23  25
ENDBRANCH  22  23
ENDBRANCH   5  22
TORSDOF 7
ENDMDL
MODEL 8
REMARK VINA RESULT:      -8.7      7.365      9.769
REMARK  Name = 
REMARK  8 active torsions:
REMARK  status: ('A' for Active; 'I' for Inactive)
REMARK    1  A    between atoms: C_1  and  C_2
REMARK    2  A    between atoms: N_4  and  C_5
REMARK    3  A    between atoms: C_8  and  C_9
REMARK    4  A    between atoms: N_11  and  C_12
REMARK    5  A    between atoms: C_16  and  C_17
REMARK    6  A    between atoms: C_17  and  N_18
REMARK    7  A    between atoms: N_18  and  C_19
REMARK    8  A    between atoms: C_24  and  C_25
REMARK                            x       y       z     vdW  Elec       q    Type
REMARK                         _______ _______ _______ _____ _____    ______ ____
ROOT
ATOM      1  C   UNL     1       0.000  10.073  20.225  0.00  0.00    +0.000 A 
ATOM      2  C   UNL     1       0.240  10.441  18.905  0.00  0.00    +0.000 A 
ATOM      3  C   UNL     1       1.197   9.738  18.170  0.00  0.00    +0.000 A 
ATOM      4  C   UNL     1       1.835   8.609  18.722  0.00  0.00    +0.000 A 
ATOM      5  C   UNL     1       1.531   8.173  20.036  0.00  0.00    +0.000 A 
ATOM      6  C   UNL     1       0.645   8.964  20.779  0.00  0.00    +0.000 A 
ENDROOT
BRANCH   1   9
ATOM      7  C   UNL     1      -0.439  11.917  21.739  0.00  0.00    +0.000 C 
ATOM      8  O   UNL     1       0.735  12.285  21.784  0.00  0.00    +0.000 OA
ATOM      9  N   UNL     1      -0.901  10.835  21.004  0.00  0.00    +0.000 N 
ATOM     10  H   UNL     1      -1.860  10.880  20.685  0.00  0.00    +0.000 HD
BRANCH   7  14
ATOM     11  C   UNL     1      -3.464  14.419  23.513  0.00  0.00    +0.000 A 
ATOM     12  C   UNL     1      -3.781  13.394  22.620  0.00  0.00    +0.000 A 
ATOM     13  C   UNL     1      -2.792  12.561  22.102  0.00  0.00    +0.000 A 
ATOM     14  C   UNL     1      -1.454  12.734  22.462  0.00  0.00    +0.000 A 
ATOM     15  C   UNL     1      -1.118  13.743  23.372  0.00  0.00    +0.000 A 
ATOM     16  C   UNL     1      -2.122  14.593  23.881  0.00  0.00    +0.000 A 
BRANCH  11  20
ATOM     17  C   UNL     1      -5.799  17.299  24.268  0.00  0.00    +0.000 C 
ATOM     18  C   UNL     1      -4.782  16.529  23.472  0.00  0.00    +0.000 C 
ATOM     19  O   UNL     1      -4.339  17.008  22.433  0.00  0.00    +0.000 OA
ATOM     20  N   UNL     1      -4.452  15.298  24.023  0.00  0.00    +0.000 N 
ATOM     21  H   UNL     1      -5.013  14.963  24.796  0.00  0.00    +0.000 HD
ENDBRANCH  11  20
ENDBRANCH   7  14
ENDBRANCH   1   9
BRANCH   5  22
ATOM     22  C   UNL     1       2.174   6.978  20.724  0.00  0.00    +0.000 C 
BRANCH  22  23
ATOM     23  N   UNL     1       3.145   6.240  19.950  0.00  0.00    +0.000 N 
ATOM     24  H   UNL     1       4.066   6.638  20.065  0.00  0.00    +0.000 HD
BRANCH  23  25
ATOM     25  C   UNL     1       3.276   5.421  18.835  0.00  0.00    +0.000 A 
ATOM     26  N   UNL     1       3.023   4.187  19.341  0.00  0.00    +0.000 NA
ATOM     27  C   UNL     1       4.071   3.383  19.387  0.00  0.00    +0.000 A 
ATOM     28  N   UNL     1       5.238   3.673  18.853  0.00  0.00    +0.000 NA
ATOM     29  C   UNL     1       5.343   4.808  18.129  0.00  0.00    +0.000 A 
ATOM     30  C   UNL     1       6.581   5.143  17.636  0.00  0.00    +0.000 A 
ATOM     31  C   UNL     1       6.690   5.771  16.403  0.00  0.00    +0.000 A 
ATOM     32  C   UNL     1       5.520   6.063  15.725  0.00  0.00    +0.000 A 
ATOM     33  C   UNL     1       4.295   6.027  16.443  0.00  0.00    +0.000 A 
ATOM     34  C   UNL     1       4.236   5.584  17.818  0.00  0.00    +0.000 A 
BRANCH  30  35
ATOM     35  C   UNL     1       7.784   4.836  18.447  0.00  0.00    +0.000 C 
ATOM     36  N   UNL     1       7.896   5.482  19.645  0.00  0.00    +0.000 N 
ATOM     37  O   UNL     1       8.649   4.078  18.039  0.00  0.00    +0.000 OA
ATOM     38  H   UNL     1       7.102   6.025  19.985  0.00  0.00    +0.000 HD
ATOM     39  H   UNL     1       8.645   5.272  20.274  0.00  0.00    +0.000 HD
ENDBRANCH  30  35
ENDBRANCH  23  25
ENDBRANCH  22  23
ENDBRANCH   5  22
TORSDOF 7
ENDMDL
MODEL 9
REMARK VINA RESULT:      -8.6      2.071      3.351
REMARK  Name = 
REMARK  8 active torsions:
REMARK  status: ('A' for Active; 'I' for Inactive)
REMARK    1  A    between atoms: C_1  and  C_2
REMARK    2  A    between atoms: N_4  and  C_5
REMARK    3  A    between atoms: C_8  and  C_9
REMARK    4  A    between atoms: N_11  and  C_12
REMARK    5  A    between atoms: C_16  and  C_17
REMARK    6  A    between atoms: C_17  and  N_18
REMARK    7  A    between atoms: N_18  and  C_19
REMARK    8  A    between atoms: C_24  and  C_25
REMARK                            x       y       z     vdW  Elec       q    Type
REMARK                         _______ _______ _______ _____ _____    ______ ____
ROOT
ATOM      1  C   UNL     1       7.160   6.973  17.139  0.00  0.00    +0.000 A 
ATOM      2  C   UNL     1       7.127   6.453  15.849  0.00  0.00    +0.000 A 
ATOM      3  C   UNL     1       6.878   5.090  15.676  0.00  0.00    +0.000 A 
ATOM      4  C   UNL     1       6.563   4.275  16.781  0.00  0.00    +0.000 A 
ATOM      5  C   UNL     1       6.505   4.815  18.090  0.00  0.00    +0.000 A 
ATOM      6  C   UNL     1       6.864   6.161  18.237  0.00  0.00    +0.000 A 
ENDROOT
BRANCH   1   9
ATOM      7  C   UNL     1       8.373   8.693  18.346  0.00  0.00    +0.000 C 
ATOM      8  O   UNL     1       8.895   7.906  19.135  0.00  0.00    +0.000 OA
ATOM      9  N   UNL     1       7.500   8.332  17.330  0.00  0.00    +0.000 N 
ATOM     10  H   UNL     1       7.483   8.930  16.513  0.00  0.00    +0.000 HD
BRANCH   7  14
ATOM     11  C   UNL     1       9.593  12.824  18.252  0.00  0.00    +0.000 A 
ATOM     12  C   UNL     1       8.512  12.354  17.504  0.00  0.00    +0.000 A 
ATOM     13  C   UNL     1       8.100  11.025  17.593  0.00  0.00    +0.000 A 
ATOM     14  C   UNL     1       8.763  10.129  18.433  0.00  0.00    +0.000 A 
ATOM     15  C   UNL     1       9.836  10.586  19.206  0.00  0.00    +0.000 A 
ATOM     16  C   UNL     1      10.259  11.927  19.100  0.00  0.00    +0.000 A 
BRANCH  11  20
ATOM     17  C   UNL     1      11.406  16.049  17.462  0.00  0.00    +0.000 C 
ATOM     18  C   UNL     1      11.060  14.595  17.302  0.00  0.00    +0.000 C 
ATOM     19  O   UNL     1      11.655  13.919  16.468  0.00  0.00    +0.000 OA
ATOM     20  N   UNL     1      10.047  14.162  18.148  0.00  0.00    +0.000 N 
ATOM     21  H   UNL     1       9.539  14.864  18.670  0.00  0.00    +0.000 HD
ENDBRANCH  11  20
ENDBRANCH   7  14
ENDBRANCH   1   9
BRANCH   5  22
ATOM     22  C   UNL     1       6.189   4.016  19.345  0.00  0.00    +0.000 C 
BRANCH  22  23
ATOM     23  N   UNL     1       4.986   3.218  19.309  0.00  0.00    +0.000 N 
ATOM     24  H   UNL     1       5.148   2.353  18.813  0.00  0.00    +0.000 HD
BRANCH  23  25
ATOM     25  C   UNL     1       3.600   3.306  19.372  0.00  0.00    +0.000 A 
ATOM     26  N   UNL     1       3.209   2.670  18.238  0.00  0.00    +0.000 NA
ATOM     27  C   UNL     1       2.680   3.456  17.317  0.00  0.00    +0.000 A 
ATOM     28  N   UNL     1       2.401   4.727  17.514  0.00  0.00    +0.000 NA
ATOM     29  C   UNL     1       2.568   5.231  18.756  0.00  0.00    +0.000 A 
ATOM     30  C   UNL     1       2.345   6.574  18.939  0.00  0.00    +0.000 A 
ATOM     31  C   UNL     1       1.797   7.031  20.130  0.00  0.00    +0.000 A 
ATOM     32  C   UNL     1       1.520   6.095  21.110  0.00  0.00    +0.000 A 
ATOM     33  C   UNL     1       2.105   4.806  20.999  0.00  0.00    +0.000 A 
ATOM     34  C   UNL     1       2.879   4.422  19.840  0.00  0.00    +0.000 A 
BRANCH  30  35
ATOM     35  C   UNL     1       2.713   7.517  17.855  0.00  0.00    +0.000 C 
ATOM     36  N   UNL     1       3.854   7.235  17.160  0.00  0.00    +0.000 N 
ATOM     37  O   UNL     1       2.051   8.517  17.630  0.00  0.00    +0.000 OA
ATOM     38  H   UNL     1       4.316   6.339  17.316  0.00  0.00    +0.000 HD
ATOM     39  H   UNL     1       4.126   7.788  16.371  0.00  0.00    +0.000 HD
ENDBRANCH  30  35
ENDBRANCH  23  25
ENDBRANCH  22  23
ENDBRANCH   5  22
TORSDOF 7
ENDMDL
