MODEL 1
REMARK VINA RESULT:      -8.4      0.000      0.000
REMARK  Name = 
REMARK  5 active torsions:
REMARK  status: ('A' for Active; 'I' for Inactive)
REMARK    1  A    between atoms: C_1  and  N_2
REMARK    2  A    between atoms: C_11  and  C_12
REMARK    3  A    between atoms: C_12  and  C_13
REMARK    4  A    between atoms: C_13  and  C_14
REMARK    5  A    between atoms: C_18  and  C_19
REMARK                            x       y       z     vdW  Elec       q    Type
REMARK                         _______ _______ _______ _____ _____    ______ ____
ROOT
ATOM      1  C   UNL     1       4.058   4.202  18.627  0.00  0.00    +0.000 C 
ENDROOT
BRANCH   1   2
ATOM      2  C   UNL     1       3.347   5.503  18.809  0.00  0.00    +0.000 A 
ATOM      3  N   UNL     1       2.784   5.890  19.999  0.00  0.00    +0.000 NA
ATOM      4  C   UNL     1       2.270   7.063  19.716  0.00  0.00    +0.000 A 
ATOM      5  C   UNL     1       1.541   7.998  20.512  0.00  0.00    +0.000 A 
ATOM      6  C   UNL     1       1.106   9.159  19.980  0.00  0.00    +0.000 A 
ATOM      7  C   UNL     1       1.389   9.472  18.575  0.00  0.00    +0.000 A 
ATOM      8  C   UNL     1       2.073   8.591  17.827  0.00  0.00    +0.000 A 
ATOM      9  N   UNL     1       2.511   7.391  18.384  0.00  0.00    +0.000 N 
ATOM     10  N   UNL     1       3.206   6.382  17.804  0.00  0.00    +0.000 NA
BRANCH   6  11
ATOM     11  C   UNL     1       0.322  10.151  20.805  0.00  0.00    +0.000 C 
ATOM     12  F   UNL     1       0.043   9.701  22.054  0.00  0.00    +0.000 F 
ATOM     13  F   UNL     1       1.000  11.318  20.951  0.00  0.00    +0.000 F 
ATOM     14  F   UNL     1      -0.864  10.455  20.223  0.00  0.00    +0.000 F 
ENDBRANCH   6  11
ENDBRANCH   1   2
BRANCH   1  15
ATOM     15  C   UNL     1       5.590   4.318  18.708  0.00  0.00    +0.000 C 
BRANCH  15  26
ATOM     16  C   UNL     1       7.672   6.645  18.281  0.00  0.00    +0.000 C 
ATOM     17  N   UNL     1       7.129   5.762  17.280  0.00  0.00    +0.000 N 
ATOM     18  N   UNL     1       7.563   5.859  16.017  0.00  0.00    +0.000 NA
ATOM     19  C   UNL     1       6.841   4.924  15.399  0.00  0.00    +0.000 A 
ATOM     20  N   UNL     1       6.882   4.616  14.097  0.00  0.00    +0.000 N 
ATOM     21  C   UNL     1       7.881   5.124  13.188  0.00  0.00    +0.000 C 
ATOM     22  C   UNL     1       7.242   4.841  11.834  0.00  0.00    +0.000 C 
ATOM     23  C   UNL     1       6.541   3.503  12.052  0.00  0.00    +0.000 C 
ATOM     24  C   UNL     1       6.162   3.491  13.536  0.00  0.00    +0.000 C 
ATOM     25  N   UNL     1       5.978   4.250  16.223  0.00  0.00    +0.000 NA
ATOM     26  C   UNL     1       6.195   4.765  17.415  0.00  0.00    +0.000 A 
ENDBRANCH  15  26
ENDBRANCH   1  15
TORSDOF 4
ENDMDL
MODEL 2
REMARK VINA RESULT:      -8.2      0.905      1.707
REMARK  Name = 
REMARK  5 active torsions:
REMARK  status: ('A' for Active; 'I' for Inactive)
REMARK    1  A    between atoms: C_1  and  N_2
REMARK    2  A    between atoms: C_11  and  C_12
REMARK    3  A    between atoms: C_12  and  C_13
REMARK    4  A    between atoms: C_13  and  C_14
REMARK    5  A    between atoms: C_18  and  C_19
REMARK                            x       y       z     vdW  Elec       q    Type
REMARK                         _______ _______ _______ _____ _____    ______ ____
ROOT
ATOM      1  C   UNL     1       3.881   4.199  18.576  0.00  0.00    +0.000 C 
ENDROOT
BRANCH   1   2
ATOM      2  C   UNL     1       3.184   5.482  18.896  0.00  0.00    +0.000 A 
ATOM      3  N   UNL     1       3.063   6.513  17.999  0.00  0.00    +0.000 NA
ATOM      4  C   UNL     1       2.408   7.422  18.681  0.00  0.00    +0.000 A 
ATOM      5  C   UNL     1       1.965   8.734  18.333  0.00  0.00    +0.000 A 
ATOM      6  C   UNL     1       1.299   9.494  19.228  0.00  0.00    +0.000 A 
ATOM      7  C   UNL     1       1.019   8.967  20.569  0.00  0.00    +0.000 A 
ATOM      8  C   UNL     1       1.439   7.734  20.896  0.00  0.00    +0.000 A 
ATOM      9  N   UNL     1       2.132   6.961  19.966  0.00  0.00    +0.000 N 
ATOM     10  N   UNL     1       2.635   5.710  20.099  0.00  0.00    +0.000 NA
BRANCH   6  11
ATOM     11  C   UNL     1       0.837  10.887  18.880  0.00  0.00    +0.000 C 
ATOM     12  F   UNL     1       1.697  11.544  18.061  0.00  0.00    +0.000 F 
ATOM     13  F   UNL     1      -0.365  10.866  18.249  0.00  0.00    +0.000 F 
ATOM     14  F   UNL     1       0.686  11.654  19.988  0.00  0.00    +0.000 F 
ENDBRANCH   6  11
ENDBRANCH   1   2
BRANCH   1  15
ATOM     15  C   UNL     1       5.410   4.273  18.719  0.00  0.00    +0.000 C 
BRANCH  15  26
ATOM     16  C   UNL     1       7.629   6.491  18.416  0.00  0.00    +0.000 C 
ATOM     17  N   UNL     1       7.070   5.665  17.376  0.00  0.00    +0.000 N 
ATOM     18  N   UNL     1       7.547   5.769  16.130  0.00  0.00    +0.000 NA
ATOM     19  C   UNL     1       6.794   4.892  15.466  0.00  0.00    +0.000 A 
ATOM     20  N   UNL     1       6.858   4.614  14.158  0.00  0.00    +0.000 N 
ATOM     21  C   UNL     1       7.911   5.088  13.293  0.00  0.00    +0.000 C 
ATOM     22  C   UNL     1       7.300   4.874  11.914  0.00  0.00    +0.000 C 
ATOM     23  C   UNL     1       6.521   3.573  12.075  0.00  0.00    +0.000 C 
ATOM     24  C   UNL     1       6.096   3.545  13.547  0.00  0.00    +0.000 C 
ATOM     25  N   UNL     1       5.871   4.246  16.246  0.00  0.00    +0.000 NA
ATOM     26  C   UNL     1       6.079   4.718  17.457  0.00  0.00    +0.000 A 
ENDBRANCH  15  26
ENDBRANCH   1  15
TORSDOF 4
ENDMDL
MODEL 3
REMARK VINA RESULT:      -8.1      0.800      1.067
REMARK  Name = 
REMARK  5 active torsions:
REMARK  status: ('A' for Active; 'I' for Inactive)
REMARK    1  A    between atoms: C_1  and  N_2
REMARK    2  A    between atoms: C_11  and  C_12
REMARK    3  A    between atoms: C_12  and  C_13
REMARK    4  A    between atoms: C_13  and  C_14
REMARK    5  A    between atoms: C_18  and  C_19
REMARK                            x       y       z     vdW  Elec       q    Type
REMARK                         _______ _______ _______ _____ _____    ______ ____
ROOT
ATOM      1  C   UNL     1       3.700   4.708  18.238  0.00  0.00    +0.000 C 
ENDROOT
BRANCH   1   2
ATOM      2  C   UNL     1       2.975   5.858  18.858  0.00  0.00    +0.000 A 
ATOM      3  N   UNL     1       2.492   5.835  20.142  0.00  0.00    +0.000 NA
ATOM      4  C   UNL     1       1.933   7.015  20.269  0.00  0.00    +0.000 A 
ATOM      5  C   UNL     1       1.243   7.627  21.359  0.00  0.00    +0.000 A 
ATOM      6  C   UNL     1       0.745   8.876  21.241  0.00  0.00    +0.000 A 
ATOM      7  C   UNL     1       0.917   9.617  19.987  0.00  0.00    +0.000 A 
ATOM      8  C   UNL     1       1.564   9.039  18.961  0.00  0.00    +0.000 A 
ATOM      9  N   UNL     1       2.068   7.746  19.091  0.00  0.00    +0.000 N 
ATOM     10  N   UNL     1       2.741   6.996  18.185  0.00  0.00    +0.000 NA
BRANCH   6  11
ATOM     11  C   UNL     1       0.001   9.531  22.380  0.00  0.00    +0.000 C 
ATOM     12  F   UNL     1      -1.134   8.872  22.723  0.00  0.00    +0.000 F 
ATOM     13  F   UNL     1       0.769   9.596  23.498  0.00  0.00    +0.000 F 
ATOM     14  F   UNL     1      -0.358  10.802  22.074  0.00  0.00    +0.000 F 
ENDBRANCH   6  11
ENDBRANCH   1   2
BRANCH   1  15
ATOM     15  C   UNL     1       5.222   4.749  18.451  0.00  0.00    +0.000 C 
BRANCH  15  26
ATOM     16  C   UNL     1       7.582   6.808  18.097  0.00  0.00    +0.000 C 
ATOM     17  N   UNL     1       7.013   5.947  17.091  0.00  0.00    +0.000 N 
ATOM     18  N   UNL     1       7.543   5.938  15.862  0.00  0.00    +0.000 NA
ATOM     19  C   UNL     1       6.764   5.063  15.226  0.00  0.00    +0.000 A 
ATOM     20  N   UNL     1       6.861   4.694  13.943  0.00  0.00    +0.000 N 
ATOM     21  C   UNL     1       7.973   5.046  13.093  0.00  0.00    +0.000 C 
ATOM     22  C   UNL     1       7.403   4.775  11.707  0.00  0.00    +0.000 C 
ATOM     23  C   UNL     1       6.541   3.534  11.920  0.00  0.00    +0.000 C 
ATOM     24  C   UNL     1       6.059   3.632  13.371  0.00  0.00    +0.000 C 
ATOM     25  N   UNL     1       5.774   4.527  16.007  0.00  0.00    +0.000 NA
ATOM     26  C   UNL     1       5.965   5.068  17.192  0.00  0.00    +0.000 A 
ENDBRANCH  15  26
ENDBRANCH   1  15
TORSDOF 4
ENDMDL
MODEL 4
REMARK VINA RESULT:      -7.9      4.708      7.375
REMARK  Name = 
REMARK  5 active torsions:
REMARK  status: ('A' for Active; 'I' for Inactive)
REMARK    1  A    between atoms: C_1  and  N_2
REMARK    2  A    between atoms: C_11  and  C_12
REMARK    3  A    between atoms: C_12  and  C_13
REMARK    4  A    between atoms: C_13  and  C_14
REMARK    5  A    between atoms: C_18  and  C_19
REMARK                            x       y       z     vdW  Elec       q    Type
REMARK                         _______ _______ _______ _____ _____    ______ ____
ROOT
ATOM      1  C   UNL     1       7.235   6.703  17.464  0.00  0.00    +0.000 C 
ENDROOT
BRANCH   1   2
ATOM      2  C   UNL     1       7.817   8.023  17.856  0.00  0.00    +0.000 A 
ATOM      3  N   UNL     1       8.683   8.177  18.909  0.00  0.00    +0.000 NA
ATOM      4  C   UNL     1       8.930   9.465  18.902  0.00  0.00    +0.000 A 
ATOM      5  C   UNL     1       9.749  10.279  19.742  0.00  0.00    +0.000 A 
ATOM      6  C   UNL     1       9.839  11.610  19.532  0.00  0.00    +0.000 A 
ATOM      7  C   UNL     1       9.095  12.227  18.428  0.00  0.00    +0.000 A 
ATOM      8  C   UNL     1       8.323  11.460  17.640  0.00  0.00    +0.000 A 
ATOM      9  N   UNL     1       8.232  10.089  17.871  0.00  0.00    +0.000 N 
ATOM     10  N   UNL     1       7.516   9.155  17.199  0.00  0.00    +0.000 NA
BRANCH   6  11
ATOM     11  C   UNL     1      10.689  12.485  20.419  0.00  0.00    +0.000 C 
ATOM     12  F   UNL     1      11.973  12.058  20.515  0.00  0.00    +0.000 F 
ATOM     13  F   UNL     1      10.734  13.761  19.957  0.00  0.00    +0.000 F 
ATOM     14  F   UNL     1      10.198  12.542  21.681  0.00  0.00    +0.000 F 
ENDBRANCH   6  11
ENDBRANCH   1   2
BRANCH   1  15
ATOM     15  C   UNL     1       5.894   6.816  16.720  0.00  0.00    +0.000 C 
BRANCH  15  26
ATOM     16  C   UNL     1       6.038   3.967  15.380  0.00  0.00    +0.000 C 
ATOM     17  N   UNL     1       5.121   4.409  16.400  0.00  0.00    +0.000 N 
ATOM     18  N   UNL     1       4.244   3.537  16.913  0.00  0.00    +0.000 NA
ATOM     19  C   UNL     1       3.575   4.292  17.785  0.00  0.00    +0.000 A 
ATOM     20  N   UNL     1       2.562   3.899  18.567  0.00  0.00    +0.000 N 
ATOM     21  C   UNL     1       2.170   2.520  18.732  0.00  0.00    +0.000 C 
ATOM     22  C   UNL     1       0.777   2.663  19.332  0.00  0.00    +0.000 C 
ATOM     23  C   UNL     1       0.912   3.878  20.245  0.00  0.00    +0.000 C 
ATOM     24  C   UNL     1       1.984   4.752  19.586  0.00  0.00    +0.000 C 
ATOM     25  N   UNL     1       3.998   5.594  17.835  0.00  0.00    +0.000 NA
ATOM     26  C   UNL     1       4.998   5.646  16.981  0.00  0.00    +0.000 A 
ENDBRANCH  15  26
ENDBRANCH   1  15
TORSDOF 4
ENDMDL
MODEL 5
REMARK VINA RESULT:      -7.9      4.589      8.992
REMARK  Name = 
REMARK  5 active torsions:
REMARK  status: ('A' for Active; 'I' for Inactive)
REMARK    1  A    between atoms: C_1  and  N_2
REMARK    2  A    between atoms: C_11  and  C_12
REMARK    3  A    between atoms: C_12  and  C_13
REMARK    4  A    between atoms: C_13  and  C_14
REMARK    5  A    between atoms: C_18  and  C_19
REMARK                            x       y       z     vdW  Elec       q    Type
REMARK                         _______ _______ _______ _____ _____    ______ ____
ROOT
ATOM      1  C   UNL     1       4.134   5.545  19.559  0.00  0.00    +0.000 C 
ENDROOT
BRANCH   1   2
ATOM      2  C   UNL     1       4.745   5.270  18.224  0.00  0.00    +0.000 A 
ATOM      3  N   UNL     1       4.062   4.670  17.195  0.00  0.00    +0.000 NA
ATOM      4  C   UNL     1       4.957   4.616  16.238  0.00  0.00    +0.000 A 
ATOM      5  C   UNL     1       4.893   4.104  14.907  0.00  0.00    +0.000 A 
ATOM      6  C   UNL     1       5.972   4.160  14.097  0.00  0.00    +0.000 A 
ATOM      7  C   UNL     1       7.221   4.759  14.584  0.00  0.00    +0.000 A 
ATOM      8  C   UNL     1       7.280   5.238  15.837  0.00  0.00    +0.000 A 
ATOM      9  N   UNL     1       6.162   5.168  16.667  0.00  0.00    +0.000 N 
ATOM     10  N   UNL     1       6.020   5.588  17.948  0.00  0.00    +0.000 NA
BRANCH   6  11
ATOM     11  C   UNL     1       5.925   3.611  12.693  0.00  0.00    +0.000 C 
ATOM     12  F   UNL     1       6.179   2.279  12.634  0.00  0.00    +0.000 F 
ATOM     13  F   UNL     1       4.705   3.802  12.129  0.00  0.00    +0.000 F 
ATOM     14  F   UNL     1       6.830   4.220  11.889  0.00  0.00    +0.000 F 
ENDBRANCH   6  11
ENDBRANCH   1   2
BRANCH   1  15
ATOM     15  C   UNL     1       2.598   5.625  19.531  0.00  0.00    +0.000 C 
BRANCH  15  26
ATOM     16  C   UNL     1       2.804   8.031  17.507  0.00  0.00    +0.000 C 
ATOM     17  N   UNL     1       2.176   8.030  18.803  0.00  0.00    +0.000 N 
ATOM     18  N   UNL     1       1.545   9.132  19.226  0.00  0.00    +0.000 NA
ATOM     19  C   UNL     1       1.122   8.768  20.437  0.00  0.00    +0.000 A 
ATOM     20  N   UNL     1       0.435   9.523  21.302  0.00  0.00    +0.000 N 
ATOM     21  C   UNL     1      -0.136  10.805  20.965  0.00  0.00    +0.000 C 
ATOM     22  C   UNL     1      -0.402  11.399  22.342  0.00  0.00    +0.000 C 
ATOM     23  C   UNL     1      -0.838  10.191  23.166  0.00  0.00    +0.000 C 
ATOM     24  C   UNL     1      -0.104   9.000  22.541  0.00  0.00    +0.000 C 
ATOM     25  N   UNL     1       1.462   7.487  20.784  0.00  0.00    +0.000 NA
ATOM     26  C   UNL     1       2.097   7.020  19.730  0.00  0.00    +0.000 A 
ENDBRANCH  15  26
ENDBRANCH   1  15
TORSDOF 4
ENDMDL
MODEL 6
REMARK VINA RESULT:      -7.8      3.956      6.067
REMARK  Name = 
REMARK  5 active torsions:
REMARK  status: ('A' for Active; 'I' for Inactive)
REMARK    1  A    between atoms: C_1  and  N_2
REMARK    2  A    between atoms: C_11  and  C_12
REMARK    3  A    between atoms: C_12  and  C_13
REMARK    4  A    between atoms: C_13  and  C_14
REMARK    5  A    between atoms: C_18  and  C_19
REMARK                            x       y       z     vdW  Elec       q    Type
REMARK                         _______ _______ _______ _____ _____    ______ ____
ROOT
ATOM      1  C   UNL     1       5.357   6.039  15.783  0.00  0.00    +0.000 C 
ENDROOT
BRANCH   1   2
ATOM      2  C   UNL     1       4.635   5.189  16.778  0.00  0.00    +0.000 A 
ATOM      3  N   UNL     1       4.367   5.599  18.060  0.00  0.00    +0.000 NA
ATOM      4  C   UNL     1       3.743   4.567  18.576  0.00  0.00    +0.000 A 
ATOM      5  C   UNL     1       3.200   4.339  19.877  0.00  0.00    +0.000 A 
ATOM      6  C   UNL     1       2.596   3.168  20.173  0.00  0.00    +0.000 A 
ATOM      7  C   UNL     1       2.489   2.122  19.149  0.00  0.00    +0.000 A 
ATOM      8  C   UNL     1       3.003   2.337  17.928  0.00  0.00    +0.000 A 
ATOM      9  N   UNL     1       3.630   3.546  17.635  0.00  0.00    +0.000 N 
ATOM     10  N   UNL     1       4.207   3.952  16.478  0.00  0.00    +0.000 NA
BRANCH   6  11
ATOM     11  C   UNL     1       2.030   2.907  21.546  0.00  0.00    +0.000 C 
ATOM     12  F   UNL     1       2.234   3.933  22.410  0.00  0.00    +0.000 F 
ATOM     13  F   UNL     1       0.689   2.698  21.496  0.00  0.00    +0.000 F 
ATOM     14  F   UNL     1       2.579   1.803  22.110  0.00  0.00    +0.000 F 
ENDBRANCH   6  11
ENDBRANCH   1   2
BRANCH   1  15
ATOM     15  C   UNL     1       6.889   5.957  15.897  0.00  0.00    +0.000 C 
BRANCH  15  26
ATOM     16  C   UNL     1       7.763   4.984  18.764  0.00  0.00    +0.000 C 
ATOM     17  N   UNL     1       7.826   6.323  18.238  0.00  0.00    +0.000 N 
ATOM     18  N   UNL     1       8.359   7.297  18.987  0.00  0.00    +0.000 NA
ATOM     19  C   UNL     1       8.229   8.363  18.198  0.00  0.00    +0.000 A 
ATOM     20  N   UNL     1       8.599   9.617  18.484  0.00  0.00    +0.000 N 
ATOM     21  C   UNL     1       9.395   9.971  19.635  0.00  0.00    +0.000 C 
ATOM     22  C   UNL     1       9.162  11.474  19.723  0.00  0.00    +0.000 C 
ATOM     23  C   UNL     1       9.103  11.905  18.261  0.00  0.00    +0.000 C 
ATOM     24  C   UNL     1       8.547  10.690  17.512  0.00  0.00    +0.000 C 
ATOM     25  N   UNL     1       7.640   8.094  16.990  0.00  0.00    +0.000 NA
ATOM     26  C   UNL     1       7.423   6.797  17.014  0.00  0.00    +0.000 A 
ENDBRANCH  15  26
ENDBRANCH   1  15
TORSDOF 4
ENDMDL
MODEL 7
REMARK VINA RESULT:      -7.7      4.953      9.030
REMARK  Name = 
REMARK  5 active torsions:
REMARK  status: ('A' for Active; 'I' for Inactive)
REMARK    1  A    between atoms: C_1  and  N_2
REMARK    2  A    between atoms: C_11  and  C_12
REMARK    3  A    between atoms: C_12  and  C_13
REMARK    4  A    between atoms: C_13  and  C_14
REMARK    5  A    between atoms: C_18  and  C_19
REMARK                            x       y       z     vdW  Elec       q    Type
REMARK                         _______ _______ _______ _____ _____    ______ ____
ROOT
ATOM      1  C   UNL     1       1.790   8.022  19.591  0.00  0.00    +0.000 C 
ENDROOT
BRANCH   1   2
ATOM      2  C   UNL     1       2.609   7.067  18.784  0.00  0.00    +0.000 A 
ATOM      3  N   UNL     1       3.576   7.472  17.898  0.00  0.00    +0.000 NA
ATOM      4  C   UNL     1       4.027   6.340  17.415  0.00  0.00    +0.000 A 
ATOM      5  C   UNL     1       5.036   6.056  16.445  0.00  0.00    +0.000 A 
ATOM      6  C   UNL     1       5.321   4.782  16.104  0.00  0.00    +0.000 A 
ATOM      7  C   UNL     1       4.596   3.675  16.739  0.00  0.00    +0.000 A 
ATOM      8  C   UNL     1       3.645   3.944  17.649  0.00  0.00    +0.000 A 
ATOM      9  N   UNL     1       3.354   5.264  17.988  0.00  0.00    +0.000 N 
ATOM     10  N   UNL     1       2.441   5.738  18.870  0.00  0.00    +0.000 NA
BRANCH   6  11
ATOM     11  C   UNL     1       6.375   4.466  15.071  0.00  0.00    +0.000 C 
ATOM     12  F   UNL     1       7.624   4.386  15.592  0.00  0.00    +0.000 F 
ATOM     13  F   UNL     1       6.128   3.279  14.460  0.00  0.00    +0.000 F 
ATOM     14  F   UNL     1       6.415   5.409  14.096  0.00  0.00    +0.000 F 
ENDBRANCH   6  11
ENDBRANCH   1   2
BRANCH   1  15
ATOM     15  C   UNL     1       1.752   9.446  19.013  0.00  0.00    +0.000 C 
BRANCH  15  26
ATOM     16  C   UNL     1       0.239  11.028  21.280  0.00  0.00    +0.000 C 
ATOM     17  N   UNL     1      -0.244  10.717  19.959  0.00  0.00    +0.000 N 
ATOM     18  N   UNL     1      -1.443  11.173  19.576  0.00  0.00    +0.000 NA
ATOM     19  C   UNL     1      -1.550  10.681  18.342  0.00  0.00    +0.000 A 
ATOM     20  N   UNL     1      -2.587  10.837  17.509  0.00  0.00    +0.000 N 
ATOM     21  C   UNL     1      -3.678  11.748  17.754  0.00  0.00    +0.000 C 
ATOM     22  C   UNL     1      -4.735  11.236  16.784  0.00  0.00    +0.000 C 
ATOM     23  C   UNL     1      -3.917  10.813  15.568  0.00  0.00    +0.000 C 
ATOM     24  C   UNL     1      -2.559  10.384  16.133  0.00  0.00    +0.000 C 
ATOM     25  N   UNL     1      -0.470   9.940  17.941  0.00  0.00    +0.000 NA
ATOM     26  C   UNL     1       0.363  10.000  18.958  0.00  0.00    +0.000 A 
ENDBRANCH  15  26
ENDBRANCH   1  15
TORSDOF 4
ENDMDL
MODEL 8
REMARK VINA RESULT:      -7.7      4.775      8.305
REMARK  Name = 
REMARK  5 active torsions:
REMARK  status: ('A' for Active; 'I' for Inactive)
REMARK    1  A    between atoms: C_1  and  N_2
REMARK    2  A    between atoms: C_11  and  C_12
REMARK    3  A    between atoms: C_12  and  C_13
REMARK    4  A    between atoms: C_13  and  C_14
REMARK    5  A    between atoms: C_18  and  C_19
REMARK                            x       y       z     vdW  Elec       q    Type
REMARK                         _______ _______ _______ _____ _____    ______ ____
ROOT
ATOM      1  C   UNL     1       7.279   5.331  17.552  0.00  0.00    +0.000 C 
ENDROOT
BRANCH   1   2
ATOM      2  C   UNL     1       6.922   4.960  16.150  0.00  0.00    +0.000 A 
ATOM      3  N   UNL     1       5.710   4.418  15.803  0.00  0.00    +0.000 NA
ATOM      4  C   UNL     1       5.824   4.244  14.508  0.00  0.00    +0.000 A 
ATOM      5  C   UNL     1       4.920   3.713  13.538  0.00  0.00    +0.000 A 
ATOM      6  C   UNL     1       5.278   3.632  12.239  0.00  0.00    +0.000 A 
ATOM      7  C   UNL     1       6.602   4.100  11.814  0.00  0.00    +0.000 A 
ATOM      8  C   UNL     1       7.452   4.596  12.728  0.00  0.00    +0.000 A 
ATOM      9  N   UNL     1       7.075   4.669  14.068  0.00  0.00    +0.000 N 
ATOM     10  N   UNL     1       7.779   5.130  15.130  0.00  0.00    +0.000 NA
BRANCH   6  11
ATOM     11  C   UNL     1       4.340   3.060  11.205  0.00  0.00    +0.000 C 
ATOM     12  F   UNL     1       4.130   3.895  10.156  0.00  0.00    +0.000 F 
ATOM     13  F   UNL     1       4.820   1.899  10.690  0.00  0.00    +0.000 F 
ATOM     14  F   UNL     1       3.123   2.781  11.735  0.00  0.00    +0.000 F 
ENDBRANCH   6  11
ENDBRANCH   1   2
BRANCH   1  15
ATOM     15  C   UNL     1       6.437   6.486  18.120  0.00  0.00    +0.000 C 
BRANCH  15  26
ATOM     16  C   UNL     1       3.683   7.695  17.179  0.00  0.00    +0.000 C 
ATOM     17  N   UNL     1       3.891   6.577  18.063  0.00  0.00    +0.000 N 
ATOM     18  N   UNL     1       2.831   5.901  18.525  0.00  0.00    +0.000 NA
ATOM     19  C   UNL     1       3.401   4.980  19.303  0.00  0.00    +0.000 A 
ATOM     20  N   UNL     1       2.771   4.043  20.022  0.00  0.00    +0.000 N 
ATOM     21  C   UNL     1       1.362   3.758  19.901  0.00  0.00    +0.000 C 
ATOM     22  C   UNL     1       1.093   2.972  21.179  0.00  0.00    +0.000 C 
ATOM     23  C   UNL     1       2.364   2.147  21.355  0.00  0.00    +0.000 C 
ATOM     24  C   UNL     1       3.477   2.994  20.729  0.00  0.00    +0.000 C 
ATOM     25  N   UNL     1       4.769   5.053  19.343  0.00  0.00    +0.000 NA
ATOM     26  C   UNL     1       5.067   6.043  18.528  0.00  0.00    +0.000 A 
ENDBRANCH  15  26
ENDBRANCH   1  15
TORSDOF 4
ENDMDL
MODEL 9
REMARK VINA RESULT:      -7.7      5.056      8.772
REMARK  Name = 
REMARK  5 active torsions:
REMARK  status: ('A' for Active; 'I' for Inactive)
REMARK    1  A    between atoms: C_1  and  N_2
REMARK    2  A    between atoms: C_11  and  C_12
REMARK    3  A    between atoms: C_12  and  C_13
REMARK    4  A    between atoms: C_13  and  C_14
REMARK    5  A    between atoms: C_18  and  C_19
REMARK                            x       y       z     vdW  Elec       q    Type
REMARK                         _______ _______ _______ _____ _____    ______ ____
ROOT
ATOM      1  C   UNL     1       1.073   8.716  21.649  0.00  0.00    +0.000 C 
ENDROOT
BRANCH   1   2
ATOM      2  C   UNL     1       1.512   7.569  20.799  0.00  0.00    +0.000 A 
ATOM      3  N   UNL     1       1.290   6.257  21.136  0.00  0.00    +0.000 NA
ATOM      4  C   UNL     1       1.834   5.600  20.140  0.00  0.00    +0.000 A 
ATOM      5  C   UNL     1       1.953   4.201  19.878  0.00  0.00    +0.000 A 
ATOM      6  C   UNL     1       2.573   3.763  18.762  0.00  0.00    +0.000 A 
ATOM      7  C   UNL     1       3.124   4.728  17.804  0.00  0.00    +0.000 A 
ATOM      8  C   UNL     1       3.013   6.043  18.053  0.00  0.00    +0.000 A 
ATOM      9  N   UNL     1       2.378   6.485  19.212  0.00  0.00    +0.000 N 
ATOM     10  N   UNL     1       2.167   7.753  19.642  0.00  0.00    +0.000 NA
BRANCH   6  11
ATOM     11  C   UNL     1       2.719   2.288  18.478  0.00  0.00    +0.000 C 
ATOM     12  F   UNL     1       1.944   1.513  19.278  0.00  0.00    +0.000 F 
ATOM     13  F   UNL     1       2.376   1.995  17.197  0.00  0.00    +0.000 F 
ATOM     14  F   UNL     1       3.998   1.872  18.647  0.00  0.00    +0.000 F 
ENDBRANCH   6  11
ENDBRANCH   1   2
BRANCH   1  15
ATOM     15  C   UNL     1       1.220  10.086  20.965  0.00  0.00    +0.000 C 
BRANCH  15  26
ATOM     16  C   UNL     1      -0.769  12.269  22.063  0.00  0.00    +0.000 C 
ATOM     17  N   UNL     1      -0.875  11.530  20.832  0.00  0.00    +0.000 N 
ATOM     18  N   UNL     1      -1.883  11.797  19.992  0.00  0.00    +0.000 NA
ATOM     19  C   UNL     1      -1.666  10.928  19.005  0.00  0.00    +0.000 A 
ATOM     20  N   UNL     1      -2.409  10.771  17.903  0.00  0.00    +0.000 N 
ATOM     21  C   UNL     1      -3.464  11.676  17.516  0.00  0.00    +0.000 C 
ATOM     22  C   UNL     1      -4.232  10.843  16.498  0.00  0.00    +0.000 C 
ATOM     23  C   UNL     1      -3.130  10.074  15.773  0.00  0.00    +0.000 C 
ATOM     24  C   UNL     1      -2.021   9.897  16.815  0.00  0.00    +0.000 C 
ATOM     25  N   UNL     1      -0.566  10.133  19.194  0.00  0.00    +0.000 NA
ATOM     26  C   UNL     1      -0.056  10.547  20.335  0.00  0.00    +0.000 A 
ENDBRANCH  15  26
ENDBRANCH   1  15
TORSDOF 4
ENDMDL
