MODEL 1
REMARK VINA RESULT:      -7.9      0.000      0.000
REMARK  Name = 
REMARK  17 active torsions:
REMARK  status: ('A' for Active; 'I' for Inactive)
REMARK    1  A    between atoms: CD1_1  and  CG1_2
REMARK    2  A    between atoms: CG1_2  and  CB_3
REMARK    3  A    between atoms: CB_3  and  CG2_4
REMARK    4  A    between atoms: CB_3  and  CA_5
REMARK    5  A    between atoms: CA_5  and  N_6
REMARK    6  A    between atoms: CA_5  and  C_31
REMARK    7  A    between atoms: C_7  and  C_9
REMARK    8  A    between atoms: C_12  and  N_13
REMARK    9  A    between atoms: C_14  and  C_16
REMARK   10  A    between atoms: C_16  and  N_17
REMARK   11  A    between atoms: C_16  and  C_18
REMARK   12  A    between atoms: C_18  and  C_19
REMARK   13  A    between atoms: C_19  and  O_21
REMARK   14  A    between atoms: C_22  and  O_23
REMARK   15  A    between atoms: O_23  and  C_24
REMARK   16  A    between atoms: C_24  and  C_25
REMARK   17  A    between atoms: C_31  and  OXT_33
REMARK                            x       y       z     vdW  Elec       q    Type
REMARK                         _______ _______ _______ _____ _____    ______ ____
ROOT
ATOM      1  C   UNK A   0       1.585   8.693  18.965  0.00  0.00    +0.000 A 
ATOM      2  C   UNK A   0       2.308   8.835  17.782  0.00  0.00    +0.000 A 
ATOM      3  C   UNK A   0       3.264   7.886  17.440  0.00  0.00    +0.000 A 
ATOM      4  C   UNK A   0       3.503   6.781  18.259  0.00  0.00    +0.000 A 
ATOM      5  C   UNK A   0       2.795   6.657  19.472  0.00  0.00    +0.000 A 
ATOM      6  C   UNK A   0       1.845   7.622  19.831  0.00  0.00    +0.000 A 
ENDROOT
BRANCH   1   8
ATOM      7  N   ILE A   1       0.560  10.175  20.584  0.00  0.00    +0.000 N 
ATOM      8  C   UNK A   0       0.516   9.654  19.312  0.00  0.00    +0.000 C 
ATOM      9  O   UNK A   0      -0.318   9.987  18.478  0.00  0.00    +0.000 OA
ATOM     10  H   ILE A   1       1.301   9.932  21.235  0.00  0.00    +0.000 HD
BRANCH   7  11
ATOM     11  CA  ILE A   1      -0.414  11.154  21.039  0.00  0.00    +0.000 C 
BRANCH  11  12
ATOM     12  CB  ILE A   1      -1.019  10.773  22.410  0.00  0.00    +0.000 C 
ATOM     13  CG2 ILE A   1      -0.136   9.835  23.243  0.00  0.00    +0.000 C 
BRANCH  12  15
ATOM     14  CD1 ILE A   1      -2.917  12.205  23.348  0.00  0.00    +0.000 C 
ATOM     15  CG1 ILE A   1      -1.411  12.039  23.197  0.00  0.00    +0.000 C 
ENDBRANCH  12  15
ENDBRANCH  11  12
BRANCH  11  16
ATOM     16  C   ILE A   1       0.264  12.530  20.994  0.00  0.00    +0.000 C 
ATOM     17  O   ILE A   1       1.380  12.759  21.441  0.00  0.00    +0.000 OA
BRANCH  16  18
ATOM     18  OXT ILE A   1      -0.437  13.466  20.310  0.00  0.00    +0.000 OA
ATOM     19  HXT ILE A   1      -1.080  13.967  20.850  0.00  0.00    +0.000 HD
ENDBRANCH  16  18
ENDBRANCH  11  16
ENDBRANCH   7  11
ENDBRANCH   1   8
BRANCH   4  20
ATOM     20  N   UNK A   0       4.450   5.782  17.915  0.00  0.00    +0.000 N 
ATOM     21  C   UNK A   0       5.567   5.980  17.123  0.00  0.00    +0.000 C 
ATOM     22  O   UNK A   0       5.861   7.033  16.542  0.00  0.00    +0.000 OA
ATOM     23  H   UNK A   0       4.226   4.845  18.246  0.00  0.00    +0.000 HD
BRANCH  21  24
ATOM     24  C   UNK A   0       6.447   4.743  16.897  0.00  0.00    +0.000 C 
BRANCH  24  25
ATOM     25  N   UNK A   0       6.331   3.880  18.094  0.00  0.00    +0.000 NA
ATOM     26  H   UNK A   0       6.379   4.470  18.929  0.00  0.00    +0.000 HD
ATOM     27  H   UNK A   0       7.145   3.266  18.154  0.00  0.00    +0.000 HD
ENDBRANCH  24  25
BRANCH  24  28
ATOM     28  C   UNK A   0       5.918   3.972  15.681  0.00  0.00    +0.000 C 
BRANCH  28  29
ATOM     29  C   UNK A   0       6.717   4.285  14.440  0.00  0.00    +0.000 C 
ATOM     30  O   UNK A   0       7.437   5.266  14.330  0.00  0.00    +0.000 OA
BRANCH  29  31
ATOM     31  O   UNK A   0       6.558   3.393  13.437  0.00  0.00    +0.000 OA
ATOM     32  H   UNK A   0       6.845   3.740  12.556  0.00  0.00    +0.000 HD
ENDBRANCH  29  31
ENDBRANCH  28  29
ENDBRANCH  24  28
ENDBRANCH  21  24
ENDBRANCH   4  20
BRANCH   5  33
ATOM     33  O   UNK A   0       3.037   5.517  20.184  0.00  0.00    +0.000 OA
BRANCH  33  34
ATOM     34  C   UNK A   0       1.959   4.597  20.386  0.00  0.00    +0.000 C 
BRANCH  34  35
ATOM     35  C   UNK A   0       2.180   3.374  19.549  0.00  0.00    +0.000 A 
ATOM     36  C   UNK A   0       1.308   2.343  19.242  0.00  0.00    +0.000 A 
ATOM     37  N   UNK A   0       2.023   1.499  18.435  0.00  0.00    +0.000 N 
ATOM     38  C   UNK A   0       3.270   2.021  18.284  0.00  0.00    +0.000 A 
ATOM     39  N   UNK A   0       3.403   3.149  18.945  0.00  0.00    +0.000 NA
ATOM     40  H   UNK A   0       1.691   0.637  18.022  0.00  0.00    +0.000 HD
ENDBRANCH  34  35
ENDBRANCH  33  34
ENDBRANCH   5  33
TORSDOF 15
ENDMDL
MODEL 2
REMARK VINA RESULT:      -7.8      1.801      2.503
REMARK  Name = 
REMARK  17 active torsions:
REMARK  status: ('A' for Active; 'I' for Inactive)
REMARK    1  A    between atoms: CD1_1  and  CG1_2
REMARK    2  A    between atoms: CG1_2  and  CB_3
REMARK    3  A    between atoms: CB_3  and  CG2_4
REMARK    4  A    between atoms: CB_3  and  CA_5
REMARK    5  A    between atoms: CA_5  and  N_6
REMARK    6  A    between atoms: CA_5  and  C_31
REMARK    7  A    between atoms: C_7  and  C_9
REMARK    8  A    between atoms: C_12  and  N_13
REMARK    9  A    between atoms: C_14  and  C_16
REMARK   10  A    between atoms: C_16  and  N_17
REMARK   11  A    between atoms: C_16  and  C_18
REMARK   12  A    between atoms: C_18  and  C_19
REMARK   13  A    between atoms: C_19  and  O_21
REMARK   14  A    between atoms: C_22  and  O_23
REMARK   15  A    between atoms: O_23  and  C_24
REMARK   16  A    between atoms: C_24  and  C_25
REMARK   17  A    between atoms: C_31  and  OXT_33
REMARK                            x       y       z     vdW  Elec       q    Type
REMARK                         _______ _______ _______ _____ _____    ______ ____
ROOT
ATOM      1  C   UNK A   0       1.412   8.876  19.150  0.00  0.00    +0.000 A 
ATOM      2  C   UNK A   0       2.029   9.003  17.907  0.00  0.00    +0.000 A 
ATOM      3  C   UNK A   0       2.922   8.030  17.477  0.00  0.00    +0.000 A 
ATOM      4  C   UNK A   0       3.201   6.913  18.266  0.00  0.00    +0.000 A 
ATOM      5  C   UNK A   0       2.602   6.802  19.538  0.00  0.00    +0.000 A 
ATOM      6  C   UNK A   0       1.717   7.792  19.985  0.00  0.00    +0.000 A 
ENDROOT
BRANCH   1   8
ATOM      7  N   ILE A   1       0.178  10.921  18.742  0.00  0.00    +0.000 N 
ATOM      8  C   UNK A   0       0.407   9.865  19.595  0.00  0.00    +0.000 C 
ATOM      9  O   UNK A   0      -0.207   9.702  20.642  0.00  0.00    +0.000 OA
ATOM     10  H   ILE A   1       0.655  10.996  17.848  0.00  0.00    +0.000 HD
BRANCH   7  11
ATOM     11  CA  ILE A   1      -0.808  11.943  19.047  0.00  0.00    +0.000 C 
BRANCH  11  12
ATOM     12  CB  ILE A   1      -0.192  13.362  19.029  0.00  0.00    +0.000 C 
ATOM     13  CG2 ILE A   1      -0.908  14.364  19.945  0.00  0.00    +0.000 C 
BRANCH  12  15
ATOM     14  CD1 ILE A   1       2.168  13.870  18.192  0.00  0.00    +0.000 C 
ATOM     15  CG1 ILE A   1       1.320  13.299  19.319  0.00  0.00    +0.000 C 
ENDBRANCH  12  15
ENDBRANCH  11  12
BRANCH  11  16
ATOM     16  C   ILE A   1      -1.989  11.743  18.087  0.00  0.00    +0.000 C 
ATOM     17  O   ILE A   1      -1.917  11.126  17.032  0.00  0.00    +0.000 OA
BRANCH  16  18
ATOM     18  OXT ILE A   1      -3.167  12.217  18.558  0.00  0.00    +0.000 OA
ATOM     19  HXT ILE A   1      -3.841  11.532  18.732  0.00  0.00    +0.000 HD
ENDBRANCH  16  18
ENDBRANCH  11  16
ENDBRANCH   7  11
ENDBRANCH   1   8
BRANCH   4  20
ATOM     20  N   UNK A   0       4.083   5.889  17.835  0.00  0.00    +0.000 N 
ATOM     21  C   UNK A   0       5.414   6.070  17.503  0.00  0.00    +0.000 C 
ATOM     22  O   UNK A   0       6.006   7.156  17.463  0.00  0.00    +0.000 OA
ATOM     23  H   UNK A   0       3.654   4.973  17.716  0.00  0.00    +0.000 HD
BRANCH  21  24
ATOM     24  C   UNK A   0       6.167   4.804  17.068  0.00  0.00    +0.000 C 
BRANCH  24  25
ATOM     25  N   UNK A   0       6.062   3.816  18.164  0.00  0.00    +0.000 NA
ATOM     26  H   UNK A   0       6.773   3.093  18.023  0.00  0.00    +0.000 HD
ATOM     27  H   UNK A   0       5.167   3.328  18.100  0.00  0.00    +0.000 HD
ENDBRANCH  24  25
BRANCH  24  28
ATOM     28  C   UNK A   0       5.489   4.228  15.818  0.00  0.00    +0.000 C 
BRANCH  28  29
ATOM     29  C   UNK A   0       6.370   4.366  14.601  0.00  0.00    +0.000 C 
ATOM     30  O   UNK A   0       7.071   5.342  14.382  0.00  0.00    +0.000 OA
BRANCH  29  31
ATOM     31  O   UNK A   0       6.308   3.319  13.749  0.00  0.00    +0.000 OA
ATOM     32  H   UNK A   0       5.383   3.053  13.522  0.00  0.00    +0.000 HD
ENDBRANCH  29  31
ENDBRANCH  28  29
ENDBRANCH  24  28
ENDBRANCH  21  24
ENDBRANCH   4  20
BRANCH   5  33
ATOM     33  O   UNK A   0       2.873   5.651  20.221  0.00  0.00    +0.000 OA
BRANCH  33  34
ATOM     34  C   UNK A   0       1.793   4.754  20.503  0.00  0.00    +0.000 C 
BRANCH  34  35
ATOM     35  C   UNK A   0       1.915   3.537  19.636  0.00  0.00    +0.000 A 
ATOM     36  C   UNK A   0       0.939   2.643  19.228  0.00  0.00    +0.000 A 
ATOM     37  N   UNK A   0       1.596   1.734  18.442  0.00  0.00    +0.000 N 
ATOM     38  C   UNK A   0       2.909   2.087  18.402  0.00  0.00    +0.000 A 
ATOM     39  N   UNK A   0       3.139   3.166  19.113  0.00  0.00    +0.000 NA
ATOM     40  H   UNK A   0       1.185   0.937  17.972  0.00  0.00    +0.000 HD
ENDBRANCH  34  35
ENDBRANCH  33  34
ENDBRANCH   5  33
TORSDOF 15
ENDMDL
MODEL 3
REMARK VINA RESULT:      -7.7      2.044      2.770
REMARK  Name = 
REMARK  17 active torsions:
REMARK  status: ('A' for Active; 'I' for Inactive)
REMARK    1  A    between atoms: CD1_1  and  CG1_2
REMARK    2  A    between atoms: CG1_2  and  CB_3
REMARK    3  A    between atoms: CB_3  and  CG2_4
REMARK    4  A    between atoms: CB_3  and  CA_5
REMARK    5  A    between atoms: CA_5  and  N_6
REMARK    6  A    between atoms: CA_5  and  C_31
REMARK    7  A    between atoms: C_7  and  C_9
REMARK    8  A    between atoms: C_12  and  N_13
REMARK    9  A    between atoms: C_14  and  C_16
REMARK   10  A    between atoms: C_16  and  N_17
REMARK   11  A    between atoms: C_16  and  C_18
REMARK   12  A    between atoms: C_18  and  C_19
REMARK   13  A    between atoms: C_19  and  O_21
REMARK   14  A    between atoms: C_22  and  O_23
REMARK   15  A    between atoms: O_23  and  C_24
REMARK   16  A    between atoms: C_24  and  C_25
REMARK   17  A    between atoms: C_31  and  OXT_33
REMARK                            x       y       z     vdW  Elec       q    Type
REMARK                         _______ _______ _______ _____ _____    ______ ____
ROOT
ATOM      1  C   UNK A   0       1.550   8.878  19.084  0.00  0.00    +0.000 A 
ATOM      2  C   UNK A   0       2.143   8.863  17.824  0.00  0.00    +0.000 A 
ATOM      3  C   UNK A   0       2.955   7.798  17.456  0.00  0.00    +0.000 A 
ATOM      4  C   UNK A   0       3.175   6.729  18.328  0.00  0.00    +0.000 A 
ATOM      5  C   UNK A   0       2.602   6.762  19.615  0.00  0.00    +0.000 A 
ATOM      6  C   UNK A   0       1.799   7.845  19.998  0.00  0.00    +0.000 A 
ENDROOT
BRANCH   1   8
ATOM      7  N   ILE A   1       0.549  11.030  18.595  0.00  0.00    +0.000 N 
ATOM      8  C   UNK A   0       0.626   9.968  19.467  0.00  0.00    +0.000 C 
ATOM      9  O   UNK A   0      -0.055   9.881  20.482  0.00  0.00    +0.000 OA
ATOM     10  H   ILE A   1       1.077  11.045  17.727  0.00  0.00    +0.000 HD
BRANCH   7  11
ATOM     11  CA  ILE A   1      -0.344  12.149  18.839  0.00  0.00    +0.000 C 
BRANCH  11  12
ATOM     12  CB  ILE A   1       0.326  13.505  18.512  0.00  0.00    +0.000 C 
ATOM     13  CG2 ILE A   1      -0.317  14.705  19.219  0.00  0.00    +0.000 C 
BRANCH  12  15
ATOM     14  CD1 ILE A   1       2.602  14.627  18.208  0.00  0.00    +0.000 C 
ATOM     15  CG1 ILE A   1       1.843  13.433  18.770  0.00  0.00    +0.000 C 
ENDBRANCH  12  15
ENDBRANCH  11  12
BRANCH  11  16
ATOM     16  C   ILE A   1      -1.645  11.874  18.072  0.00  0.00    +0.000 C 
ATOM     17  O   ILE A   1      -2.658  11.416  18.584  0.00  0.00    +0.000 OA
BRANCH  16  18
ATOM     18  OXT ILE A   1      -1.621  12.286  16.782  0.00  0.00    +0.000 OA
ATOM     19  HXT ILE A   1      -0.816  12.778  16.528  0.00  0.00    +0.000 HD
ENDBRANCH  16  18
ENDBRANCH  11  16
ENDBRANCH   7  11
ENDBRANCH   1   8
BRANCH   4  20
ATOM     20  N   UNK A   0       3.974   5.614  17.964  0.00  0.00    +0.000 N 
ATOM     21  C   UNK A   0       5.357   5.596  17.941  0.00  0.00    +0.000 C 
ATOM     22  O   UNK A   0       6.094   6.566  18.164  0.00  0.00    +0.000 OA
ATOM     23  H   UNK A   0       3.454   4.800  17.642  0.00  0.00    +0.000 HD
BRANCH  21  24
ATOM     24  C   UNK A   0       5.996   4.267  17.516  0.00  0.00    +0.000 C 
BRANCH  24  25
ATOM     25  N   UNK A   0       4.932   3.419  16.934  0.00  0.00    +0.000 NA
ATOM     26  H   UNK A   0       5.142   3.264  15.944  0.00  0.00    +0.000 HD
ATOM     27  H   UNK A   0       4.047   3.926  16.944  0.00  0.00    +0.000 HD
ENDBRANCH  24  25
BRANCH  24  28
ATOM     28  C   UNK A   0       7.050   4.546  16.437  0.00  0.00    +0.000 C 
BRANCH  28  29
ATOM     29  C   UNK A   0       6.420   4.665  15.071  0.00  0.00    +0.000 C 
ATOM     30  O   UNK A   0       5.906   5.692  14.652  0.00  0.00    +0.000 OA
BRANCH  29  31
ATOM     31  O   UNK A   0       6.451   3.527  14.343  0.00  0.00    +0.000 OA
ATOM     32  H   UNK A   0       6.026   3.619  13.455  0.00  0.00    +0.000 HD
ENDBRANCH  29  31
ENDBRANCH  28  29
ENDBRANCH  24  28
ENDBRANCH  21  24
ENDBRANCH   4  20
BRANCH   5  33
ATOM     33  O   UNK A   0       2.809   5.652  20.383  0.00  0.00    +0.000 OA
BRANCH  33  34
ATOM     34  C   UNK A   0       1.753   4.690  20.493  0.00  0.00    +0.000 C 
BRANCH  34  35
ATOM     35  C   UNK A   0       2.063   3.506  19.629  0.00  0.00    +0.000 A 
ATOM     36  C   UNK A   0       2.911   2.437  19.866  0.00  0.00    +0.000 A 
ATOM     37  N   UNK A   0       2.804   1.643  18.756  0.00  0.00    +0.000 N 
ATOM     38  C   UNK A   0       1.926   2.236  17.901  0.00  0.00    +0.000 A 
ATOM     39  N   UNK A   0       1.463   3.362  18.392  0.00  0.00    +0.000 NA
ATOM     40  H   UNK A   0       3.288   0.770  18.591  0.00  0.00    +0.000 HD
ENDBRANCH  34  35
ENDBRANCH  33  34
ENDBRANCH   5  33
TORSDOF 15
ENDMDL
MODEL 4
REMARK VINA RESULT:      -7.7      1.745      2.331
REMARK  Name = 
REMARK  17 active torsions:
REMARK  status: ('A' for Active; 'I' for Inactive)
REMARK    1  A    between atoms: CD1_1  and  CG1_2
REMARK    2  A    between atoms: CG1_2  and  CB_3
REMARK    3  A    between atoms: CB_3  and  CG2_4
REMARK    4  A    between atoms: CB_3  and  CA_5
REMARK    5  A    between atoms: CA_5  and  N_6
REMARK    6  A    between atoms: CA_5  and  C_31
REMARK    7  A    between atoms: C_7  and  C_9
REMARK    8  A    between atoms: C_12  and  N_13
REMARK    9  A    between atoms: C_14  and  C_16
REMARK   10  A    between atoms: C_16  and  N_17
REMARK   11  A    between atoms: C_16  and  C_18
REMARK   12  A    between atoms: C_18  and  C_19
REMARK   13  A    between atoms: C_19  and  O_21
REMARK   14  A    between atoms: C_22  and  O_23
REMARK   15  A    between atoms: O_23  and  C_24
REMARK   16  A    between atoms: C_24  and  C_25
REMARK   17  A    between atoms: C_31  and  OXT_33
REMARK                            x       y       z     vdW  Elec       q    Type
REMARK                         _______ _______ _______ _____ _____    ______ ____
ROOT
ATOM      1  C   UNK A   0       1.451   8.909  19.222  0.00  0.00    +0.000 A 
ATOM      2  C   UNK A   0       1.968   9.041  17.935  0.00  0.00    +0.000 A 
ATOM      3  C   UNK A   0       2.821   8.066  17.431  0.00  0.00    +0.000 A 
ATOM      4  C   UNK A   0       3.156   6.944  18.191  0.00  0.00    +0.000 A 
ATOM      5  C   UNK A   0       2.658   6.828  19.505  0.00  0.00    +0.000 A 
ATOM      6  C   UNK A   0       1.816   7.819  20.025  0.00  0.00    +0.000 A 
ENDROOT
BRANCH   1   8
ATOM      7  N   ILE A   1       0.493  11.133  19.139  0.00  0.00    +0.000 N 
ATOM      8  C   UNK A   0       0.488   9.900  19.750  0.00  0.00    +0.000 C 
ATOM      9  O   UNK A   0      -0.292   9.596  20.644  0.00  0.00    +0.000 OA
ATOM     10  H   ILE A   1       1.106  11.337  18.355  0.00  0.00    +0.000 HD
BRANCH   7  11
ATOM     11  CA  ILE A   1      -0.426  12.184  19.542  0.00  0.00    +0.000 C 
BRANCH  11  12
ATOM     12  CB  ILE A   1       0.281  13.554  19.666  0.00  0.00    +0.000 C 
ATOM     13  CG2 ILE A   1       1.407  13.770  18.647  0.00  0.00    +0.000 C 
BRANCH  12  15
ATOM     14  CD1 ILE A   1      -0.206  16.008  20.186  0.00  0.00    +0.000 C 
ATOM     15  CG1 ILE A   1      -0.750  14.699  19.633  0.00  0.00    +0.000 C 
ENDBRANCH  12  15
ENDBRANCH  11  12
BRANCH  11  16
ATOM     16  C   ILE A   1      -1.610  12.157  18.565  0.00  0.00    +0.000 C 
ATOM     17  O   ILE A   1      -2.774  11.989  18.903  0.00  0.00    +0.000 OA
BRANCH  16  18
ATOM     18  OXT ILE A   1      -1.273  12.448  17.285  0.00  0.00    +0.000 OA
ATOM     19  HXT ILE A   1      -0.831  11.720  16.806  0.00  0.00    +0.000 HD
ENDBRANCH  16  18
ENDBRANCH  11  16
ENDBRANCH   7  11
ENDBRANCH   1   8
BRANCH   4  20
ATOM     20  N   UNK A   0       3.997   5.919  17.686  0.00  0.00    +0.000 N 
ATOM     21  C   UNK A   0       5.319   6.083  17.313  0.00  0.00    +0.000 C 
ATOM     22  O   UNK A   0       5.936   7.157  17.296  0.00  0.00    +0.000 OA
ATOM     23  H   UNK A   0       3.542   5.019  17.546  0.00  0.00    +0.000 HD
BRANCH  21  24
ATOM     24  C   UNK A   0       6.025   4.820  16.800  0.00  0.00    +0.000 C 
BRANCH  24  25
ATOM     25  N   UNK A   0       5.750   3.727  17.759  0.00  0.00    +0.000 NA
ATOM     26  H   UNK A   0       4.884   3.257  17.481  0.00  0.00    +0.000 HD
ATOM     27  H   UNK A   0       5.557   4.120  18.681  0.00  0.00    +0.000 HD
ENDBRANCH  24  25
BRANCH  24  28
ATOM     28  C   UNK A   0       5.434   4.440  15.437  0.00  0.00    +0.000 C 
BRANCH  28  29
ATOM     29  C   UNK A   0       6.483   4.475  14.353  0.00  0.00    +0.000 C 
ATOM     30  O   UNK A   0       6.403   3.838  13.313  0.00  0.00    +0.000 OA
BRANCH  29  31
ATOM     31  O   UNK A   0       7.545   5.262  14.634  0.00  0.00    +0.000 OA
ATOM     32  H   UNK A   0       8.270   4.787  15.112  0.00  0.00    +0.000 HD
ENDBRANCH  29  31
ENDBRANCH  28  29
ENDBRANCH  24  28
ENDBRANCH  21  24
ENDBRANCH   4  20
BRANCH   5  33
ATOM     33  O   UNK A   0       2.977   5.673  20.158  0.00  0.00    +0.000 OA
BRANCH  33  34
ATOM     34  C   UNK A   0       1.913   4.814  20.587  0.00  0.00    +0.000 C 
BRANCH  34  35
ATOM     35  C   UNK A   0       1.852   3.610  19.697  0.00  0.00    +0.000 A 
ATOM     36  C   UNK A   0       0.807   2.729  19.474  0.00  0.00    +0.000 A 
ATOM     37  N   UNK A   0       1.290   1.828  18.563  0.00  0.00    +0.000 N 
ATOM     38  C   UNK A   0       2.573   2.173  18.273  0.00  0.00    +0.000 A 
ATOM     39  N   UNK A   0       2.948   3.240  18.940  0.00  0.00    +0.000 NA
ATOM     40  H   UNK A   0       0.788   1.041  18.172  0.00  0.00    +0.000 HD
ENDBRANCH  34  35
ENDBRANCH  33  34
ENDBRANCH   5  33
TORSDOF 15
ENDMDL
MODEL 5
REMARK VINA RESULT:      -7.6      2.211      3.080
REMARK  Name = 
REMARK  17 active torsions:
REMARK  status: ('A' for Active; 'I' for Inactive)
REMARK    1  A    between atoms: CD1_1  and  CG1_2
REMARK    2  A    between atoms: CG1_2  and  CB_3
REMARK    3  A    between atoms: CB_3  and  CG2_4
REMARK    4  A    between atoms: CB_3  and  CA_5
REMARK    5  A    between atoms: CA_5  and  N_6
REMARK    6  A    between atoms: CA_5  and  C_31
REMARK    7  A    between atoms: C_7  and  C_9
REMARK    8  A    between atoms: C_12  and  N_13
REMARK    9  A    between atoms: C_14  and  C_16
REMARK   10  A    between atoms: C_16  and  N_17
REMARK   11  A    between atoms: C_16  and  C_18
REMARK   12  A    between atoms: C_18  and  C_19
REMARK   13  A    between atoms: C_19  and  O_21
REMARK   14  A    between atoms: C_22  and  O_23
REMARK   15  A    between atoms: O_23  and  C_24
REMARK   16  A    between atoms: C_24  and  C_25
REMARK   17  A    between atoms: C_31  and  OXT_33
REMARK                            x       y       z     vdW  Elec       q    Type
REMARK                         _______ _______ _______ _____ _____    ______ ____
ROOT
ATOM      1  C   UNK A   0       1.689   8.665  18.874  0.00  0.00    +0.000 A 
ATOM      2  C   UNK A   0       2.275   8.835  17.621  0.00  0.00    +0.000 A 
ATOM      3  C   UNK A   0       3.232   7.930  17.179  0.00  0.00    +0.000 A 
ATOM      4  C   UNK A   0       3.606   6.839  17.966  0.00  0.00    +0.000 A 
ATOM      5  C   UNK A   0       3.037   6.687  19.247  0.00  0.00    +0.000 A 
ATOM      6  C   UNK A   0       2.088   7.610  19.706  0.00  0.00    +0.000 A 
ENDROOT
BRANCH   1   8
ATOM      7  N   ILE A   1       0.233  10.553  18.442  0.00  0.00    +0.000 N 
ATOM      8  C   UNK A   0       0.620   9.578  19.333  0.00  0.00    +0.000 C 
ATOM      9  O   UNK A   0       0.092   9.420  20.427  0.00  0.00    +0.000 OA
ATOM     10  H   ILE A   1       0.643  10.620  17.514  0.00  0.00    +0.000 HD
BRANCH   7  11
ATOM     11  CA  ILE A   1      -0.829  11.492  18.758  0.00  0.00    +0.000 C 
BRANCH  11  12
ATOM     12  CB  ILE A   1      -0.328  12.956  18.751  0.00  0.00    +0.000 C 
ATOM     13  CG2 ILE A   1      -0.632  13.725  20.043  0.00  0.00    +0.000 C 
BRANCH  12  15
ATOM     14  CD1 ILE A   1       1.813  14.351  18.718  0.00  0.00    +0.000 C 
ATOM     15  CG1 ILE A   1       1.169  13.012  18.390  0.00  0.00    +0.000 C 
ENDBRANCH  12  15
ENDBRANCH  11  12
BRANCH  11  16
ATOM     16  C   ILE A   1      -1.994  11.207  17.800  0.00  0.00    +0.000 C 
ATOM     17  O   ILE A   1      -2.143  10.153  17.197  0.00  0.00    +0.000 OA
BRANCH  16  18
ATOM     18  OXT ILE A   1      -2.922  12.193  17.755  0.00  0.00    +0.000 OA
ATOM     19  HXT ILE A   1      -3.738  12.006  18.259  0.00  0.00    +0.000 HD
ENDBRANCH  16  18
ENDBRANCH  11  16
ENDBRANCH   7  11
ENDBRANCH   1   8
BRANCH   4  20
ATOM     20  N   UNK A   0       4.555   5.883  17.523  0.00  0.00    +0.000 N 
ATOM     21  C   UNK A   0       5.753   6.178  16.895  0.00  0.00    +0.000 C 
ATOM     22  O   UNK A   0       6.134   7.309  16.565  0.00  0.00    +0.000 OA
ATOM     23  H   UNK A   0       4.273   4.911  17.638  0.00  0.00    +0.000 HD
BRANCH  21  24
ATOM     24  C   UNK A   0       6.617   4.968  16.513  0.00  0.00    +0.000 C 
BRANCH  24  25
ATOM     25  N   UNK A   0       7.440   5.351  15.344  0.00  0.00    +0.000 NA
ATOM     26  H   UNK A   0       7.491   6.373  15.300  0.00  0.00    +0.000 HD
ATOM     27  H   UNK A   0       6.966   5.070  14.485  0.00  0.00    +0.000 HD
ENDBRANCH  24  25
BRANCH  24  28
ATOM     28  C   UNK A   0       7.551   4.636  17.685  0.00  0.00    +0.000 C 
BRANCH  28  29
ATOM     29  C   UNK A   0       6.811   4.654  18.999  0.00  0.00    +0.000 C 
ATOM     30  O   UNK A   0       7.046   5.450  19.896  0.00  0.00    +0.000 OA
BRANCH  29  31
ATOM     31  O   UNK A   0       5.867   3.694  19.119  0.00  0.00    +0.000 OA
ATOM     32  H   UNK A   0       5.040   4.010  19.561  0.00  0.00    +0.000 HD
ENDBRANCH  29  31
ENDBRANCH  28  29
ENDBRANCH  24  28
ENDBRANCH  21  24
ENDBRANCH   4  20
BRANCH   5  33
ATOM     33  O   UNK A   0       3.404   5.562  19.927  0.00  0.00    +0.000 OA
BRANCH  33  34
ATOM     34  C   UNK A   0       2.380   4.773  20.545  0.00  0.00    +0.000 C 
BRANCH  34  35
ATOM     35  C   UNK A   0       2.146   3.535  19.735  0.00  0.00    +0.000 A 
ATOM     36  C   UNK A   0       0.954   2.939  19.357  0.00  0.00    +0.000 A 
ATOM     37  N   UNK A   0       1.320   1.846  18.618  0.00  0.00    +0.000 N 
ATOM     38  C   UNK A   0       2.680   1.807  18.574  0.00  0.00    +0.000 A 
ATOM     39  N   UNK A   0       3.211   2.807  19.239  0.00  0.00    +0.000 NA
ATOM     40  H   UNK A   0       0.697   1.179  18.181  0.00  0.00    +0.000 HD
ENDBRANCH  34  35
ENDBRANCH  33  34
ENDBRANCH   5  33
TORSDOF 15
ENDMDL
MODEL 6
REMARK VINA RESULT:      -7.5      0.883      1.312
REMARK  Name = 
REMARK  17 active torsions:
REMARK  status: ('A' for Active; 'I' for Inactive)
REMARK    1  A    between atoms: CD1_1  and  CG1_2
REMARK    2  A    between atoms: CG1_2  and  CB_3
REMARK    3  A    between atoms: CB_3  and  CG2_4
REMARK    4  A    between atoms: CB_3  and  CA_5
REMARK    5  A    between atoms: CA_5  and  N_6
REMARK    6  A    between atoms: CA_5  and  C_31
REMARK    7  A    between atoms: C_7  and  C_9
REMARK    8  A    between atoms: C_12  and  N_13
REMARK    9  A    between atoms: C_14  and  C_16
REMARK   10  A    between atoms: C_16  and  N_17
REMARK   11  A    between atoms: C_16  and  C_18
REMARK   12  A    between atoms: C_18  and  C_19
REMARK   13  A    between atoms: C_19  and  O_21
REMARK   14  A    between atoms: C_22  and  O_23
REMARK   15  A    between atoms: O_23  and  C_24
REMARK   16  A    between atoms: C_24  and  C_25
REMARK   17  A    between atoms: C_31  and  OXT_33
REMARK                            x       y       z     vdW  Elec       q    Type
REMARK                         _______ _______ _______ _____ _____    ______ ____
ROOT
ATOM      1  C   UNK A   0       1.457   8.917  19.075  0.00  0.00    +0.000 A 
ATOM      2  C   UNK A   0       2.193   8.989  17.894  0.00  0.00    +0.000 A 
ATOM      3  C   UNK A   0       3.095   7.980  17.581  0.00  0.00    +0.000 A 
ATOM      4  C   UNK A   0       3.267   6.883  18.428  0.00  0.00    +0.000 A 
ATOM      5  C   UNK A   0       2.547   6.829  19.638  0.00  0.00    +0.000 A 
ATOM      6  C   UNK A   0       1.651   7.855  19.968  0.00  0.00    +0.000 A 
ENDROOT
BRANCH   1   8
ATOM      7  N   ILE A   1       0.727  10.771  20.455  0.00  0.00    +0.000 N 
ATOM      8  C   UNK A   0       0.441   9.945  19.392  0.00  0.00    +0.000 C 
ATOM      9  O   UNK A   0      -0.562  10.064  18.699  0.00  0.00    +0.000 OA
ATOM     10  H   ILE A   1       1.599  10.692  20.972  0.00  0.00    +0.000 HD
BRANCH   7  11
ATOM     11  CA  ILE A   1      -0.173  11.842  20.848  0.00  0.00    +0.000 C 
BRANCH  11  12
ATOM     12  CB  ILE A   1      -0.437  11.844  22.372  0.00  0.00    +0.000 C 
ATOM     13  CG2 ILE A   1      -1.285  13.027  22.857  0.00  0.00    +0.000 C 
BRANCH  12  15
ATOM     14  CD1 ILE A   1       0.023   9.526  23.345  0.00  0.00    +0.000 C 
ATOM     15  CG1 ILE A   1      -1.029  10.493  22.819  0.00  0.00    +0.000 C 
ENDBRANCH  12  15
ENDBRANCH  11  12
BRANCH  11  16
ATOM     16  C   ILE A   1       0.403  13.152  20.293  0.00  0.00    +0.000 C 
ATOM     17  O   ILE A   1       1.541  13.546  20.510  0.00  0.00    +0.000 OA
BRANCH  16  18
ATOM     18  OXT ILE A   1      -0.426  13.798  19.439  0.00  0.00    +0.000 OA
ATOM     19  HXT ILE A   1      -0.173  14.723  19.249  0.00  0.00    +0.000 HD
ENDBRANCH  16  18
ENDBRANCH  11  16
ENDBRANCH   7  11
ENDBRANCH   1   8
BRANCH   4  20
ATOM     20  N   UNK A   0       4.158   5.825  18.114  0.00  0.00    +0.000 N 
ATOM     21  C   UNK A   0       5.530   5.948  17.984  0.00  0.00    +0.000 C 
ATOM     22  O   UNK A   0       6.168   7.007  18.050  0.00  0.00    +0.000 OA
ATOM     23  H   UNK A   0       3.711   4.931  17.918  0.00  0.00    +0.000 HD
BRANCH  21  24
ATOM     24  C   UNK A   0       6.283   4.654  17.645  0.00  0.00    +0.000 C 
BRANCH  24  25
ATOM     25  N   UNK A   0       5.860   3.617  18.612  0.00  0.00    +0.000 NA
ATOM     26  H   UNK A   0       4.837   3.594  18.641  0.00  0.00    +0.000 HD
ATOM     27  H   UNK A   0       6.148   3.889  19.553  0.00  0.00    +0.000 HD
ENDBRANCH  24  25
BRANCH  24  28
ATOM     28  C   UNK A   0       5.884   4.203  16.233  0.00  0.00    +0.000 C 
BRANCH  28  29
ATOM     29  C   UNK A   0       6.251   5.240  15.201  0.00  0.00    +0.000 C 
ATOM     30  O   UNK A   0       5.438   5.975  14.661  0.00  0.00    +0.000 OA
BRANCH  29  31
ATOM     31  O   UNK A   0       7.568   5.280  14.898  0.00  0.00    +0.000 OA
ATOM     32  H   UNK A   0       7.877   6.176  14.613  0.00  0.00    +0.000 HD
ENDBRANCH  29  31
ENDBRANCH  28  29
ENDBRANCH  24  28
ENDBRANCH  21  24
ENDBRANCH   4  20
BRANCH   5  33
ATOM     33  O   UNK A   0       2.720   5.695  20.379  0.00  0.00    +0.000 OA
BRANCH  33  34
ATOM     34  C   UNK A   0       1.588   4.846  20.604  0.00  0.00    +0.000 C 
BRANCH  34  35
ATOM     35  C   UNK A   0       1.726   3.600  19.783  0.00  0.00    +0.000 A 
ATOM     36  C   UNK A   0       0.753   2.712  19.356  0.00  0.00    +0.000 A 
ATOM     37  N   UNK A   0       1.427   1.765  18.632  0.00  0.00    +0.000 N 
ATOM     38  C   UNK A   0       2.748   2.092  18.645  0.00  0.00    +0.000 A 
ATOM     39  N   UNK A   0       2.966   3.189  19.332  0.00  0.00    +0.000 NA
ATOM     40  H   UNK A   0       1.023   0.962  18.168  0.00  0.00    +0.000 HD
ENDBRANCH  34  35
ENDBRANCH  33  34
ENDBRANCH   5  33
TORSDOF 15
ENDMDL
MODEL 7
REMARK VINA RESULT:      -7.5      1.373      1.951
REMARK  Name = 
REMARK  17 active torsions:
REMARK  status: ('A' for Active; 'I' for Inactive)
REMARK    1  A    between atoms: CD1_1  and  CG1_2
REMARK    2  A    between atoms: CG1_2  and  CB_3
REMARK    3  A    between atoms: CB_3  and  CG2_4
REMARK    4  A    between atoms: CB_3  and  CA_5
REMARK    5  A    between atoms: CA_5  and  N_6
REMARK    6  A    between atoms: CA_5  and  C_31
REMARK    7  A    between atoms: C_7  and  C_9
REMARK    8  A    between atoms: C_12  and  N_13
REMARK    9  A    between atoms: C_14  and  C_16
REMARK   10  A    between atoms: C_16  and  N_17
REMARK   11  A    between atoms: C_16  and  C_18
REMARK   12  A    between atoms: C_18  and  C_19
REMARK   13  A    between atoms: C_19  and  O_21
REMARK   14  A    between atoms: C_22  and  O_23
REMARK   15  A    between atoms: O_23  and  C_24
REMARK   16  A    between atoms: C_24  and  C_25
REMARK   17  A    between atoms: C_31  and  OXT_33
REMARK                            x       y       z     vdW  Elec       q    Type
REMARK                         _______ _______ _______ _____ _____    ______ ____
ROOT
ATOM      1  C   UNK A   0       1.648   8.684  18.801  0.00  0.00    +0.000 A 
ATOM      2  C   UNK A   0       2.244   8.828  17.550  0.00  0.00    +0.000 A 
ATOM      3  C   UNK A   0       3.202   7.912  17.133  0.00  0.00    +0.000 A 
ATOM      4  C   UNK A   0       3.569   6.837  17.945  0.00  0.00    +0.000 A 
ATOM      5  C   UNK A   0       2.990   6.712  19.224  0.00  0.00    +0.000 A 
ATOM      6  C   UNK A   0       2.038   7.645  19.658  0.00  0.00    +0.000 A 
ENDROOT
BRANCH   1   8
ATOM      7  N   ILE A   1       0.640  10.039  20.539  0.00  0.00    +0.000 N 
ATOM      8  C   UNK A   0       0.576   9.607  19.234  0.00  0.00    +0.000 C 
ATOM      9  O   UNK A   0      -0.276   9.988  18.441  0.00  0.00    +0.000 OA
ATOM     10  H   ILE A   1       1.396   9.758  21.157  0.00  0.00    +0.000 HD
BRANCH   7  11
ATOM     11  CA  ILE A   1      -0.333  10.973  21.079  0.00  0.00    +0.000 C 
BRANCH  11  12
ATOM     12  CB  ILE A   1      -0.876  10.513  22.452  0.00  0.00    +0.000 C 
ATOM     13  CG2 ILE A   1       0.070   9.577  23.215  0.00  0.00    +0.000 C 
BRANCH  12  15
ATOM     14  CD1 ILE A   1      -2.785  12.010  23.255  0.00  0.00    +0.000 C 
ATOM     15  CG1 ILE A   1      -1.290  11.729  23.304  0.00  0.00    +0.000 C 
ENDBRANCH  12  15
ENDBRANCH  11  12
BRANCH  11  16
ATOM     16  C   ILE A   1       0.315  12.364  21.076  0.00  0.00    +0.000 C 
ATOM     17  O   ILE A   1       1.444  12.594  21.489  0.00  0.00    +0.000 OA
BRANCH  16  18
ATOM     18  OXT ILE A   1      -0.431  13.317  20.470  0.00  0.00    +0.000 OA
ATOM     19  HXT ILE A   1      -0.941  13.885  21.081  0.00  0.00    +0.000 HD
ENDBRANCH  16  18
ENDBRANCH  11  16
ENDBRANCH   7  11
ENDBRANCH   1   8
BRANCH   4  20
ATOM     20  N   UNK A   0       4.520   5.871  17.528  0.00  0.00    +0.000 N 
ATOM     21  C   UNK A   0       5.769   6.154  17.006  0.00  0.00    +0.000 C 
ATOM     22  O   UNK A   0       6.208   7.286  16.760  0.00  0.00    +0.000 OA
ATOM     23  H   UNK A   0       4.201   4.905  17.576  0.00  0.00    +0.000 HD
BRANCH  21  24
ATOM     24  C   UNK A   0       6.624   4.935  16.632  0.00  0.00    +0.000 C 
BRANCH  24  25
ATOM     25  N   UNK A   0       7.362   5.263  15.391  0.00  0.00    +0.000 NA
ATOM     26  H   UNK A   0       7.208   4.513  14.711  0.00  0.00    +0.000 HD
ATOM     27  H   UNK A   0       8.366   5.254  15.578  0.00  0.00    +0.000 HD
ENDBRANCH  24  25
BRANCH  24  28
ATOM     28  C   UNK A   0       7.638   4.676  17.754  0.00  0.00    +0.000 C 
BRANCH  28  29
ATOM     29  C   UNK A   0       6.981   4.728  19.111  0.00  0.00    +0.000 C 
ATOM     30  O   UNK A   0       7.373   5.437  20.026  0.00  0.00    +0.000 OA
BRANCH  29  31
ATOM     31  O   UNK A   0       5.920   3.901  19.247  0.00  0.00    +0.000 OA
ATOM     32  H   UNK A   0       6.176   2.954  19.374  0.00  0.00    +0.000 HD
ENDBRANCH  29  31
ENDBRANCH  28  29
ENDBRANCH  24  28
ENDBRANCH  21  24
ENDBRANCH   4  20
BRANCH   5  33
ATOM     33  O   UNK A   0       3.349   5.600  19.930  0.00  0.00    +0.000 OA
BRANCH  33  34
ATOM     34  C   UNK A   0       2.329   4.868  20.619  0.00  0.00    +0.000 C 
BRANCH  34  35
ATOM     35  C   UNK A   0       2.007   3.619  19.856  0.00  0.00    +0.000 A 
ATOM     36  C   UNK A   0       2.811   2.529  19.567  0.00  0.00    +0.000 A 
ATOM     37  N   UNK A   0       2.010   1.673  18.860  0.00  0.00    +0.000 N 
ATOM     38  C   UNK A   0       0.784   2.251  18.739  0.00  0.00    +0.000 A 
ATOM     39  N   UNK A   0       0.747   3.427  19.324  0.00  0.00    +0.000 NA
ATOM     40  H   UNK A   0       2.275   0.770  18.489  0.00  0.00    +0.000 HD
ENDBRANCH  34  35
ENDBRANCH  33  34
ENDBRANCH   5  33
TORSDOF 15
ENDMDL
MODEL 8
REMARK VINA RESULT:      -7.5      2.294      9.113
REMARK  Name = 
REMARK  17 active torsions:
REMARK  status: ('A' for Active; 'I' for Inactive)
REMARK    1  A    between atoms: CD1_1  and  CG1_2
REMARK    2  A    between atoms: CG1_2  and  CB_3
REMARK    3  A    between atoms: CB_3  and  CG2_4
REMARK    4  A    between atoms: CB_3  and  CA_5
REMARK    5  A    between atoms: CA_5  and  N_6
REMARK    6  A    between atoms: CA_5  and  C_31
REMARK    7  A    between atoms: C_7  and  C_9
REMARK    8  A    between atoms: C_12  and  N_13
REMARK    9  A    between atoms: C_14  and  C_16
REMARK   10  A    between atoms: C_16  and  N_17
REMARK   11  A    between atoms: C_16  and  C_18
REMARK   12  A    between atoms: C_18  and  C_19
REMARK   13  A    between atoms: C_19  and  O_21
REMARK   14  A    between atoms: C_22  and  O_23
REMARK   15  A    between atoms: O_23  and  C_24
REMARK   16  A    between atoms: C_24  and  C_25
REMARK   17  A    between atoms: C_31  and  OXT_33
REMARK                            x       y       z     vdW  Elec       q    Type
REMARK                         _______ _______ _______ _____ _____    ______ ____
ROOT
ATOM      1  C   UNK A   0       5.624   5.483  16.298  0.00  0.00    +0.000 A 
ATOM      2  C   UNK A   0       5.849   6.717  16.905  0.00  0.00    +0.000 A 
ATOM      3  C   UNK A   0       4.921   7.221  17.808  0.00  0.00    +0.000 A 
ATOM      4  C   UNK A   0       3.770   6.501  18.131  0.00  0.00    +0.000 A 
ATOM      5  C   UNK A   0       3.527   5.268  17.492  0.00  0.00    +0.000 A 
ATOM      6  C   UNK A   0       4.449   4.766  16.564  0.00  0.00    +0.000 A 
ENDROOT
BRANCH   1   8
ATOM      7  N   ILE A   1       6.314   4.905  14.049  0.00  0.00    +0.000 N 
ATOM      8  C   UNK A   0       6.632   4.898  15.387  0.00  0.00    +0.000 C 
ATOM      9  O   UNK A   0       7.700   4.485  15.822  0.00  0.00    +0.000 OA
ATOM     10  H   ILE A   1       5.448   5.314  13.708  0.00  0.00    +0.000 HD
BRANCH   7  11
ATOM     11  CA  ILE A   1       7.232   4.391  13.047  0.00  0.00    +0.000 C 
BRANCH  11  12
ATOM     12  CB  ILE A   1       6.495   3.611  11.933  0.00  0.00    +0.000 C 
ATOM     13  CG2 ILE A   1       7.239   2.361  11.449  0.00  0.00    +0.000 C 
BRANCH  12  15
ATOM     14  CD1 ILE A   1       4.074   3.247  11.199  0.00  0.00    +0.000 C 
ATOM     15  CG1 ILE A   1       5.052   3.288  12.365  0.00  0.00    +0.000 C 
ENDBRANCH  12  15
ENDBRANCH  11  12
BRANCH  11  16
ATOM     16  C   ILE A   1       8.081   5.570  12.553  0.00  0.00    +0.000 C 
ATOM     17  O   ILE A   1       7.821   6.232  11.557  0.00  0.00    +0.000 OA
BRANCH  16  18
ATOM     18  OXT ILE A   1       9.101   5.899  13.381  0.00  0.00    +0.000 OA
ATOM     19  HXT ILE A   1       9.586   5.135  13.752  0.00  0.00    +0.000 HD
ENDBRANCH  16  18
ENDBRANCH  11  16
ENDBRANCH   7  11
ENDBRANCH   1   8
BRANCH   4  20
ATOM     20  N   UNK A   0       2.825   6.979  19.075  0.00  0.00    +0.000 N 
ATOM     21  C   UNK A   0       2.034   8.102  18.914  0.00  0.00    +0.000 C 
ATOM     22  O   UNK A   0       2.087   8.890  17.961  0.00  0.00    +0.000 OA
ATOM     23  H   UNK A   0       2.797   6.464  19.954  0.00  0.00    +0.000 HD
BRANCH  21  24
ATOM     24  C   UNK A   0       1.081   8.414  20.077  0.00  0.00    +0.000 C 
BRANCH  24  25
ATOM     25  N   UNK A   0       1.672   7.850  21.311  0.00  0.00    +0.000 NA
ATOM     26  H   UNK A   0       1.651   8.568  22.041  0.00  0.00    +0.000 HD
ATOM     27  H   UNK A   0       2.661   7.653  21.157  0.00  0.00    +0.000 HD
ENDBRANCH  24  25
BRANCH  24  28
ATOM     28  C   UNK A   0       0.972   9.937  20.234  0.00  0.00    +0.000 C 
BRANCH  28  29
ATOM     29  C   UNK A   0      -0.378  10.441  19.787  0.00  0.00    +0.000 C 
ATOM     30  O   UNK A   0      -1.137  11.069  20.509  0.00  0.00    +0.000 OA
BRANCH  29  31
ATOM     31  O   UNK A   0      -0.696  10.121  18.513  0.00  0.00    +0.000 OA
ATOM     32  H   UNK A   0      -0.306  10.739  17.845  0.00  0.00    +0.000 HD
ENDBRANCH  29  31
ENDBRANCH  28  29
ENDBRANCH  24  28
ENDBRANCH  21  24
ENDBRANCH   4  20
BRANCH   5  33
ATOM     33  O   UNK A   0       2.416   4.594  17.909  0.00  0.00    +0.000 OA
BRANCH  33  34
ATOM     34  C   UNK A   0       2.530   3.194  18.189  0.00  0.00    +0.000 C 
BRANCH  34  35
ATOM     35  C   UNK A   0       2.366   2.962  19.660  0.00  0.00    +0.000 A 
ATOM     36  C   UNK A   0       3.325   2.713  20.628  0.00  0.00    +0.000 A 
ATOM     37  N   UNK A   0       2.627   2.594  21.800  0.00  0.00    +0.000 N 
ATOM     38  C   UNK A   0       1.306   2.764  21.519  0.00  0.00    +0.000 A 
ATOM     39  N   UNK A   0       1.111   2.984  20.239  0.00  0.00    +0.000 NA
ATOM     40  H   UNK A   0       3.016   2.412  22.716  0.00  0.00    +0.000 HD
ENDBRANCH  34  35
ENDBRANCH  33  34
ENDBRANCH   5  33
TORSDOF 15
ENDMDL
MODEL 9
REMARK VINA RESULT:      -7.5      1.306      2.118
REMARK  Name = 
REMARK  17 active torsions:
REMARK  status: ('A' for Active; 'I' for Inactive)
REMARK    1  A    between atoms: CD1_1  and  CG1_2
REMARK    2  A    between atoms: CG1_2  and  CB_3
REMARK    3  A    between atoms: CB_3  and  CG2_4
REMARK    4  A    between atoms: CB_3  and  CA_5
REMARK    5  A    between atoms: CA_5  and  N_6
REMARK    6  A    between atoms: CA_5  and  C_31
REMARK    7  A    between atoms: C_7  and  C_9
REMARK    8  A    between atoms: C_12  and  N_13
REMARK    9  A    between atoms: C_14  and  C_16
REMARK   10  A    between atoms: C_16  and  N_17
REMARK   11  A    between atoms: C_16  and  C_18
REMARK   12  A    between atoms: C_18  and  C_19
REMARK   13  A    between atoms: C_19  and  O_21
REMARK   14  A    between atoms: C_22  and  O_23
REMARK   15  A    between atoms: O_23  and  C_24
REMARK   16  A    between atoms: C_24  and  C_25
REMARK   17  A    between atoms: C_31  and  OXT_33
REMARK                            x       y       z     vdW  Elec       q    Type
REMARK                         _______ _______ _______ _____ _____    ______ ____
ROOT
ATOM      1  C   UNK A   0       1.531   8.898  18.995  0.00  0.00    +0.000 A 
ATOM      2  C   UNK A   0       2.237   8.958  17.795  0.00  0.00    +0.000 A 
ATOM      3  C   UNK A   0       3.128   7.943  17.468  0.00  0.00    +0.000 A 
ATOM      4  C   UNK A   0       3.316   6.852  18.319  0.00  0.00    +0.000 A 
ATOM      5  C   UNK A   0       2.627   6.810  19.548  0.00  0.00    +0.000 A 
ATOM      6  C   UNK A   0       1.744   7.842  19.892  0.00  0.00    +0.000 A 
ENDROOT
BRANCH   1   8
ATOM      7  N   ILE A   1       0.615  10.476  20.590  0.00  0.00    +0.000 N 
ATOM      8  C   UNK A   0       0.528   9.933  19.329  0.00  0.00    +0.000 C 
ATOM      9  O   UNK A   0      -0.289  10.302  18.494  0.00  0.00    +0.000 OA
ATOM     10  H   ILE A   1       1.345  10.198  21.241  0.00  0.00    +0.000 HD
BRANCH   7  11
ATOM     11  CA  ILE A   1      -0.290  11.523  21.031  0.00  0.00    +0.000 C 
BRANCH  11  12
ATOM     12  CB  ILE A   1      -0.735  11.324  22.499  0.00  0.00    +0.000 C 
ATOM     13  CG2 ILE A   1      -2.035  12.051  22.861  0.00  0.00    +0.000 C 
BRANCH  12  15
ATOM     14  CD1 ILE A   1       0.399   9.341  23.646  0.00  0.00    +0.000 C 
ATOM     15  CG1 ILE A   1      -0.802   9.823  22.843  0.00  0.00    +0.000 C 
ENDBRANCH  12  15
ENDBRANCH  11  12
BRANCH  11  16
ATOM     16  C   ILE A   1       0.390  12.869  20.742  0.00  0.00    +0.000 C 
ATOM     17  O   ILE A   1       1.191  13.407  21.495  0.00  0.00    +0.000 OA
BRANCH  16  18
ATOM     18  OXT ILE A   1       0.114  13.372  19.515  0.00  0.00    +0.000 OA
ATOM     19  HXT ILE A   1       0.695  14.107  19.237  0.00  0.00    +0.000 HD
ENDBRANCH  16  18
ENDBRANCH  11  16
ENDBRANCH   7  11
ENDBRANCH   1   8
BRANCH   4  20
ATOM     20  N   UNK A   0       4.195   5.787  17.992  0.00  0.00    +0.000 N 
ATOM     21  C   UNK A   0       5.326   5.899  17.203  0.00  0.00    +0.000 C 
ATOM     22  O   UNK A   0       5.694   6.923  16.612  0.00  0.00    +0.000 OA
ATOM     23  H   UNK A   0       3.906   4.872  18.332  0.00  0.00    +0.000 HD
BRANCH  21  24
ATOM     24  C   UNK A   0       6.121   4.602  16.996  0.00  0.00    +0.000 C 
BRANCH  24  25
ATOM     25  N   UNK A   0       6.245   4.375  15.539  0.00  0.00    +0.000 NA
ATOM     26  H   UNK A   0       7.178   4.002  15.344  0.00  0.00    +0.000 HD
ATOM     27  H   UNK A   0       6.206   5.269  15.048  0.00  0.00    +0.000 HD
ENDBRANCH  24  25
BRANCH  24  28
ATOM     28  C   UNK A   0       7.526   4.782  17.587  0.00  0.00    +0.000 C 
BRANCH  28  29
ATOM     29  C   UNK A   0       7.474   5.478  18.925  0.00  0.00    +0.000 C 
ATOM     30  O   UNK A   0       6.795   5.090  19.863  0.00  0.00    +0.000 OA
BRANCH  29  31
ATOM     31  O   UNK A   0       8.234   6.594  19.000  0.00  0.00    +0.000 OA
ATOM     32  H   UNK A   0       7.719   7.402  19.247  0.00  0.00    +0.000 HD
ENDBRANCH  29  31
ENDBRANCH  28  29
ENDBRANCH  24  28
ENDBRANCH  21  24
ENDBRANCH   4  20
BRANCH   5  33
ATOM     33  O   UNK A   0       2.814   5.682  20.293  0.00  0.00    +0.000 OA
BRANCH  33  34
ATOM     34  C   UNK A   0       1.710   4.786  20.466  0.00  0.00    +0.000 C 
BRANCH  34  35
ATOM     35  C   UNK A   0       1.931   3.553  19.643  0.00  0.00    +0.000 A 
ATOM     36  C   UNK A   0       1.008   2.665  19.118  0.00  0.00    +0.000 A 
ATOM     37  N   UNK A   0       1.753   1.734  18.444  0.00  0.00    +0.000 N 
ATOM     38  C   UNK A   0       3.064   2.070  18.580  0.00  0.00    +0.000 A 
ATOM     39  N   UNK A   0       3.210   3.158  19.300  0.00  0.00    +0.000 NA
ATOM     40  H   UNK A   0       1.399   0.935  17.934  0.00  0.00    +0.000 HD
ENDBRANCH  34  35
ENDBRANCH  33  34
ENDBRANCH   5  33
TORSDOF 15
ENDMDL
