MODEL 1
REMARK VINA RESULT:      -7.0      0.000      0.000
REMARK  Name = 
REMARK  8 active torsions:
REMARK  status: ('A' for Active; 'I' for Inactive)
REMARK    1  A    between atoms: C_1  and  C_2
REMARK    2  A    between atoms: C_3  and  N_4
REMARK    3  A    between atoms: N_4  and  C_5
REMARK    4  A    between atoms: N_11  and  C_12
REMARK    5  A    between atoms: C_12  and  O_13
REMARK    6  A    between atoms: O_13  and  C_14
REMARK    7  A    between atoms: C_14  and  C_15
REMARK    8  A    between atoms: C_15  and  O_16
REMARK                            x       y       z     vdW  Elec       q    Type
REMARK                         _______ _______ _______ _____ _____    ______ ____
ROOT
ATOM      1  C   UNL     1       1.111   4.152  20.373  0.00  0.00    +0.000 C 
ATOM      2  C   UNL     1       2.287   4.098  19.435  0.00  0.00    +0.000 A 
ATOM      3  C   UNL     1       3.138   5.112  19.120  0.00  0.00    +0.000 A 
ATOM      4  N   UNL     1       4.067   4.904  18.074  0.00  0.00    +0.000 N 
ATOM      5  C   UNL     1       4.167   3.710  17.385  0.00  0.00    +0.000 A 
ATOM      6  O   UNL     1       4.945   3.513  16.454  0.00  0.00    +0.000 OA
ATOM      7  N   UNL     1       3.352   2.703  17.786  0.00  0.00    +0.000 N 
ATOM      8  C   UNL     1       2.435   2.778  18.778  0.00  0.00    +0.000 A 
ATOM      9  O   UNL     1       1.765   1.802  19.101  0.00  0.00    +0.000 OA
ATOM     10  H   UNL     1       3.438   1.820  17.308  0.00  0.00    +0.000 HD
ENDROOT
BRANCH   3  11
ATOM     11  N   UNL     1       3.067   6.356  19.743  0.00  0.00    +0.000 N 
ATOM     12  H   UNL     1       3.546   6.435  20.631  0.00  0.00    +0.000 HD
BRANCH  11  13
ATOM     13  C   UNL     1       2.211   7.443  19.469  0.00  0.00    +0.000 A 
ATOM     14  C   UNL     1       2.136   8.056  18.212  0.00  0.00    +0.000 A 
ATOM     15  C   UNL     1       1.523   9.302  18.057  0.00  0.00    +0.000 A 
ATOM     16  C   UNL     1       0.940   9.930  19.153  0.00  0.00    +0.000 A 
ATOM     17  C   UNL     1       0.919   9.287  20.389  0.00  0.00    +0.000 A 
ATOM     18  C   UNL     1       1.542   8.046  20.542  0.00  0.00    +0.000 A 
ENDBRANCH  11  13
ENDBRANCH   3  11
BRANCH   4  19
ATOM     19  C   UNL     1       4.943   5.971  17.617  0.00  0.00    +0.000 C 
BRANCH  19  20
ATOM     20  O   UNL     1       6.022   6.196  18.526  0.00  0.00    +0.000 OA
BRANCH  20  21
ATOM     21  C   UNL     1       7.298   6.117  17.872  0.00  0.00    +0.000 C 
BRANCH  21  22
ATOM     22  C   UNL     1       7.816   4.688  17.998  0.00  0.00    +0.000 C 
BRANCH  22  23
ATOM     23  O   UNL     1       7.862   4.064  16.718  0.00  0.00    +0.000 OA
ATOM     24  H   UNL     1       8.798   3.826  16.574  0.00  0.00    +0.000 HD
ENDBRANCH  22  23
ENDBRANCH  21  22
ENDBRANCH  20  21
ENDBRANCH  19  20
ENDBRANCH   4  19
TORSDOF 7
ENDMDL
MODEL 2
REMARK VINA RESULT:      -6.8      1.645      2.138
REMARK  Name = 
REMARK  8 active torsions:
REMARK  status: ('A' for Active; 'I' for Inactive)
REMARK    1  A    between atoms: C_1  and  C_2
REMARK    2  A    between atoms: C_3  and  N_4
REMARK    3  A    between atoms: N_4  and  C_5
REMARK    4  A    between atoms: N_11  and  C_12
REMARK    5  A    between atoms: C_12  and  O_13
REMARK    6  A    between atoms: O_13  and  C_14
REMARK    7  A    between atoms: C_14  and  C_15
REMARK    8  A    between atoms: C_15  and  O_16
REMARK                            x       y       z     vdW  Elec       q    Type
REMARK                         _______ _______ _______ _____ _____    ______ ____
ROOT
ATOM      1  C   UNL     1       1.592   3.986  19.504  0.00  0.00    +0.000 C 
ATOM      2  C   UNL     1       3.035   4.308  19.217  0.00  0.00    +0.000 A 
ATOM      3  C   UNL     1       3.519   5.357  18.501  0.00  0.00    +0.000 A 
ATOM      4  N   UNL     1       4.899   5.376  18.191  0.00  0.00    +0.000 N 
ATOM      5  C   UNL     1       5.775   4.393  18.613  0.00  0.00    +0.000 A 
ATOM      6  O   UNL     1       6.973   4.370  18.334  0.00  0.00    +0.000 OA
ATOM      7  N   UNL     1       5.261   3.408  19.390  0.00  0.00    +0.000 N 
ATOM      8  C   UNL     1       3.966   3.292  19.761  0.00  0.00    +0.000 A 
ATOM      9  O   UNL     1       3.595   2.385  20.501  0.00  0.00    +0.000 OA
ATOM     10  H   UNL     1       5.899   2.703  19.724  0.00  0.00    +0.000 HD
ENDROOT
BRANCH   3  11
ATOM     11  N   UNL     1       2.688   6.362  18.009  0.00  0.00    +0.000 N 
ATOM     12  H   UNL     1       2.515   6.345  17.012  0.00  0.00    +0.000 HD
BRANCH  11  13
ATOM     13  C   UNL     1       2.267   7.555  18.632  0.00  0.00    +0.000 A 
ATOM     14  C   UNL     1       1.944   7.632  19.992  0.00  0.00    +0.000 A 
ATOM     15  C   UNL     1       1.247   8.729  20.504  0.00  0.00    +0.000 A 
ATOM     16  C   UNL     1       0.900   9.784  19.664  0.00  0.00    +0.000 A 
ATOM     17  C   UNL     1       1.302   9.767  18.331  0.00  0.00    +0.000 A 
ATOM     18  C   UNL     1       1.991   8.664  17.821  0.00  0.00    +0.000 A 
ENDBRANCH  11  13
ENDBRANCH   3  11
BRANCH   4  19
ATOM     19  C   UNL     1       5.473   6.414  17.350  0.00  0.00    +0.000 C 
BRANCH  19  20
ATOM     20  O   UNL     1       5.062   6.280  15.989  0.00  0.00    +0.000 OA
BRANCH  20  21
ATOM     21  C   UNL     1       6.047   5.595  15.199  0.00  0.00    +0.000 C 
BRANCH  21  22
ATOM     22  C   UNL     1       5.498   4.221  14.831  0.00  0.00    +0.000 C 
BRANCH  22  23
ATOM     23  O   UNL     1       6.217   3.202  15.519  0.00  0.00    +0.000 OA
ATOM     24  H   UNL     1       6.509   3.606  16.360  0.00  0.00    +0.000 HD
ENDBRANCH  22  23
ENDBRANCH  21  22
ENDBRANCH  20  21
ENDBRANCH  19  20
ENDBRANCH   4  19
TORSDOF 7
ENDMDL
MODEL 3
REMARK VINA RESULT:      -6.7      3.559      5.556
REMARK  Name = 
REMARK  8 active torsions:
REMARK  status: ('A' for Active; 'I' for Inactive)
REMARK    1  A    between atoms: C_1  and  C_2
REMARK    2  A    between atoms: C_3  and  N_4
REMARK    3  A    between atoms: N_4  and  C_5
REMARK    4  A    between atoms: N_11  and  C_12
REMARK    5  A    between atoms: C_12  and  O_13
REMARK    6  A    between atoms: O_13  and  C_14
REMARK    7  A    between atoms: C_14  and  C_15
REMARK    8  A    between atoms: C_15  and  O_16
REMARK                            x       y       z     vdW  Elec       q    Type
REMARK                         _______ _______ _______ _____ _____    ______ ____
ROOT
ATOM      1  C   UNL     1       5.978   5.041  19.245  0.00  0.00    +0.000 C 
ATOM      2  C   UNL     1       6.260   5.119  17.768  0.00  0.00    +0.000 A 
ATOM      3  C   UNL     1       5.841   4.260  16.801  0.00  0.00    +0.000 A 
ATOM      4  N   UNL     1       6.371   4.409  15.498  0.00  0.00    +0.000 N 
ATOM      5  C   UNL     1       7.267   5.407  15.162  0.00  0.00    +0.000 A 
ATOM      6  O   UNL     1       7.764   5.541  14.046  0.00  0.00    +0.000 OA
ATOM      7  N   UNL     1       7.595   6.287  16.140  0.00  0.00    +0.000 N 
ATOM      8  C   UNL     1       7.145   6.254  17.415  0.00  0.00    +0.000 A 
ATOM      9  O   UNL     1       7.466   7.118  18.226  0.00  0.00    +0.000 OA
ATOM     10  H   UNL     1       8.226   7.034  15.896  0.00  0.00    +0.000 HD
ENDROOT
BRANCH   3  11
ATOM     11  N   UNL     1       4.972   3.206  17.076  0.00  0.00    +0.000 N 
ATOM     12  H   UNL     1       5.129   2.354  16.554  0.00  0.00    +0.000 HD
BRANCH  11  13
ATOM     13  C   UNL     1       3.743   3.222  17.768  0.00  0.00    +0.000 A 
ATOM     14  C   UNL     1       3.352   2.211  18.654  0.00  0.00    +0.000 A 
ATOM     15  C   UNL     1       2.025   2.099  19.076  0.00  0.00    +0.000 A 
ATOM     16  C   UNL     1       1.080   3.026  18.647  0.00  0.00    +0.000 A 
ATOM     17  C   UNL     1       1.474   4.095  17.846  0.00  0.00    +0.000 A 
ATOM     18  C   UNL     1       2.800   4.198  17.418  0.00  0.00    +0.000 A 
ENDBRANCH  11  13
ENDBRANCH   3  11
BRANCH   4  19
ATOM     19  C   UNL     1       6.044   3.471  14.436  0.00  0.00    +0.000 C 
BRANCH  19  20
ATOM     20  O   UNL     1       5.129   4.035  13.495  0.00  0.00    +0.000 OA
BRANCH  20  21
ATOM     21  C   UNL     1       5.143   3.325  12.245  0.00  0.00    +0.000 C 
BRANCH  21  22
ATOM     22  C   UNL     1       6.591   3.000  11.893  0.00  0.00    +0.000 C 
BRANCH  22  23
ATOM     23  O   UNL     1       6.678   1.700  11.316  0.00  0.00    +0.000 OA
ATOM     24  H   UNL     1       7.162   1.154  11.966  0.00  0.00    +0.000 HD
ENDBRANCH  22  23
ENDBRANCH  21  22
ENDBRANCH  20  21
ENDBRANCH  19  20
ENDBRANCH   4  19
TORSDOF 7
ENDMDL
MODEL 4
REMARK VINA RESULT:      -6.7      1.652      4.257
REMARK  Name = 
REMARK  8 active torsions:
REMARK  status: ('A' for Active; 'I' for Inactive)
REMARK    1  A    between atoms: C_1  and  C_2
REMARK    2  A    between atoms: C_3  and  N_4
REMARK    3  A    between atoms: N_4  and  C_5
REMARK    4  A    between atoms: N_11  and  C_12
REMARK    5  A    between atoms: C_12  and  O_13
REMARK    6  A    between atoms: O_13  and  C_14
REMARK    7  A    between atoms: C_14  and  C_15
REMARK    8  A    between atoms: C_15  and  O_16
REMARK                            x       y       z     vdW  Elec       q    Type
REMARK                         _______ _______ _______ _____ _____    ______ ____
ROOT
ATOM      1  C   UNL     1       5.112   6.784  16.195  0.00  0.00    +0.000 C 
ATOM      2  C   UNL     1       4.867   5.685  17.196  0.00  0.00    +0.000 A 
ATOM      3  C   UNL     1       3.760   5.501  17.964  0.00  0.00    +0.000 A 
ATOM      4  N   UNL     1       3.805   4.514  18.976  0.00  0.00    +0.000 N 
ATOM      5  C   UNL     1       4.911   3.713  19.194  0.00  0.00    +0.000 A 
ATOM      6  O   UNL     1       4.987   2.868  20.085  0.00  0.00    +0.000 OA
ATOM      7  N   UNL     1       5.962   3.880  18.354  0.00  0.00    +0.000 N 
ATOM      8  C   UNL     1       6.029   4.779  17.345  0.00  0.00    +0.000 A 
ATOM      9  O   UNL     1       7.009   4.835  16.607  0.00  0.00    +0.000 OA
ATOM     10  H   UNL     1       6.760   3.280  18.488  0.00  0.00    +0.000 HD
ENDROOT
BRANCH   3  11
ATOM     11  N   UNL     1       2.626   6.299  17.828  0.00  0.00    +0.000 N 
ATOM     12  H   UNL     1       2.034   6.097  17.033  0.00  0.00    +0.000 HD
BRANCH  11  13
ATOM     13  C   UNL     1       2.311   7.516  18.467  0.00  0.00    +0.000 A 
ATOM     14  C   UNL     1       1.971   7.600  19.823  0.00  0.00    +0.000 A 
ATOM     15  C   UNL     1       1.374   8.752  20.343  0.00  0.00    +0.000 A 
ATOM     16  C   UNL     1       1.147   9.850  19.518  0.00  0.00    +0.000 A 
ATOM     17  C   UNL     1       1.571   9.817  18.191  0.00  0.00    +0.000 A 
ATOM     18  C   UNL     1       2.159   8.661  17.672  0.00  0.00    +0.000 A 
ENDBRANCH  11  13
ENDBRANCH   3  11
BRANCH   4  19
ATOM     19  C   UNL     1       2.697   4.323  19.898  0.00  0.00    +0.000 C 
BRANCH  19  20
ATOM     20  O   UNL     1       1.669   3.511  19.329  0.00  0.00    +0.000 OA
BRANCH  20  21
ATOM     21  C   UNL     1       1.408   2.344  20.126  0.00  0.00    +0.000 C 
BRANCH  21  22
ATOM     22  C   UNL     1       1.571   2.718  21.595  0.00  0.00    +0.000 C 
BRANCH  22  23
ATOM     23  O   UNL     1       2.819   2.241  22.090  0.00  0.00    +0.000 OA
ATOM     24  H   UNL     1       2.646   1.336  22.417  0.00  0.00    +0.000 HD
ENDBRANCH  22  23
ENDBRANCH  21  22
ENDBRANCH  20  21
ENDBRANCH  19  20
ENDBRANCH   4  19
TORSDOF 7
ENDMDL
MODEL 5
REMARK VINA RESULT:      -6.6      1.636      2.165
REMARK  Name = 
REMARK  8 active torsions:
REMARK  status: ('A' for Active; 'I' for Inactive)
REMARK    1  A    between atoms: C_1  and  C_2
REMARK    2  A    between atoms: C_3  and  N_4
REMARK    3  A    between atoms: N_4  and  C_5
REMARK    4  A    between atoms: N_11  and  C_12
REMARK    5  A    between atoms: C_12  and  O_13
REMARK    6  A    between atoms: O_13  and  C_14
REMARK    7  A    between atoms: C_14  and  C_15
REMARK    8  A    between atoms: C_15  and  O_16
REMARK                            x       y       z     vdW  Elec       q    Type
REMARK                         _______ _______ _______ _____ _____    ______ ____
ROOT
ATOM      1  C   UNL     1       0.871   4.371  17.352  0.00  0.00    +0.000 C 
ATOM      2  C   UNL     1       2.049   3.951  18.190  0.00  0.00    +0.000 A 
ATOM      3  C   UNL     1       3.192   4.654  18.417  0.00  0.00    +0.000 A 
ATOM      4  N   UNL     1       4.256   4.002  19.083  0.00  0.00    +0.000 N 
ATOM      5  C   UNL     1       4.171   2.700  19.538  0.00  0.00    +0.000 A 
ATOM      6  O   UNL     1       5.090   2.101  20.093  0.00  0.00    +0.000 OA
ATOM      7  N   UNL     1       2.986   2.066  19.358  0.00  0.00    +0.000 N 
ATOM      8  C   UNL     1       1.897   2.588  18.749  0.00  0.00    +0.000 A 
ATOM      9  O   UNL     1       0.849   1.954  18.665  0.00  0.00    +0.000 OA
ATOM     10  H   UNL     1       2.906   1.126  19.712  0.00  0.00    +0.000 HD
ENDROOT
BRANCH   3  11
ATOM     11  N   UNL     1       3.363   5.956  17.951  0.00  0.00    +0.000 N 
ATOM     12  H   UNL     1       4.125   6.097  17.301  0.00  0.00    +0.000 HD
BRANCH  11  13
ATOM     13  C   UNL     1       2.815   7.158  18.446  0.00  0.00    +0.000 A 
ATOM     14  C   UNL     1       2.295   7.284  19.739  0.00  0.00    +0.000 A 
ATOM     15  C   UNL     1       1.493   8.374  20.088  0.00  0.00    +0.000 A 
ATOM     16  C   UNL     1       1.237   9.374  19.154  0.00  0.00    +0.000 A 
ATOM     17  C   UNL     1       1.830   9.313  17.895  0.00  0.00    +0.000 A 
ATOM     18  C   UNL     1       2.623   8.217  17.547  0.00  0.00    +0.000 A 
ENDBRANCH  11  13
ENDBRANCH   3  11
BRANCH   4  19
ATOM     19  C   UNL     1       5.540   4.656  19.277  0.00  0.00    +0.000 C 
BRANCH  19  20
ATOM     20  O   UNL     1       6.278   4.748  18.058  0.00  0.00    +0.000 OA
BRANCH  20  21
ATOM     21  C   UNL     1       7.689   4.877  18.296  0.00  0.00    +0.000 C 
BRANCH  21  22
ATOM     22  C   UNL     1       7.899   5.903  19.404  0.00  0.00    +0.000 C 
BRANCH  22  23
ATOM     23  O   UNL     1       8.408   5.269  20.574  0.00  0.00    +0.000 OA
ATOM     24  H   UNL     1       9.144   5.832  20.882  0.00  0.00    +0.000 HD
ENDBRANCH  22  23
ENDBRANCH  21  22
ENDBRANCH  20  21
ENDBRANCH  19  20
ENDBRANCH   4  19
TORSDOF 7
ENDMDL
MODEL 6
REMARK VINA RESULT:      -6.6      2.144      5.680
REMARK  Name = 
REMARK  8 active torsions:
REMARK  status: ('A' for Active; 'I' for Inactive)
REMARK    1  A    between atoms: C_1  and  C_2
REMARK    2  A    between atoms: C_3  and  N_4
REMARK    3  A    between atoms: N_4  and  C_5
REMARK    4  A    between atoms: N_11  and  C_12
REMARK    5  A    between atoms: C_12  and  O_13
REMARK    6  A    between atoms: O_13  and  C_14
REMARK    7  A    between atoms: C_14  and  C_15
REMARK    8  A    between atoms: C_15  and  O_16
REMARK                            x       y       z     vdW  Elec       q    Type
REMARK                         _______ _______ _______ _____ _____    ______ ____
ROOT
ATOM      1  C   UNL     1       2.283   8.538  17.789  0.00  0.00    +0.000 C 
ATOM      2  C   UNL     1       2.482   7.388  18.740  0.00  0.00    +0.000 A 
ATOM      3  C   UNL     1       3.081   6.195  18.478  0.00  0.00    +0.000 A 
ATOM      4  N   UNL     1       3.000   5.177  19.457  0.00  0.00    +0.000 N 
ATOM      5  C   UNL     1       2.370   5.356  20.674  0.00  0.00    +0.000 A 
ATOM      6  O   UNL     1       2.261   4.479  21.530  0.00  0.00    +0.000 OA
ATOM      7  N   UNL     1       1.856   6.586  20.922  0.00  0.00    +0.000 N 
ATOM      8  C   UNL     1       1.883   7.637  20.072  0.00  0.00    +0.000 A 
ATOM      9  O   UNL     1       1.425   8.729  20.395  0.00  0.00    +0.000 OA
ATOM     10  H   UNL     1       1.420   6.732  21.819  0.00  0.00    +0.000 HD
ENDROOT
BRANCH   3  11
ATOM     11  N   UNL     1       3.698   5.931  17.257  0.00  0.00    +0.000 N 
ATOM     12  H   UNL     1       3.080   5.734  16.481  0.00  0.00    +0.000 HD
BRANCH  11  13
ATOM     13  C   UNL     1       5.050   5.628  16.989  0.00  0.00    +0.000 A 
ATOM     14  C   UNL     1       5.446   4.706  16.013  0.00  0.00    +0.000 A 
ATOM     15  C   UNL     1       6.750   4.206  15.985  0.00  0.00    +0.000 A 
ATOM     16  C   UNL     1       7.687   4.657  16.911  0.00  0.00    +0.000 A 
ATOM     17  C   UNL     1       7.334   5.648  17.825  0.00  0.00    +0.000 A 
ATOM     18  C   UNL     1       6.026   6.138  17.856  0.00  0.00    +0.000 A 
ENDBRANCH  11  13
ENDBRANCH   3  11
BRANCH   4  19
ATOM     19  C   UNL     1       3.533   3.847  19.211  0.00  0.00    +0.000 C 
BRANCH  19  20
ATOM     20  O   UNL     1       2.816   3.171  18.178  0.00  0.00    +0.000 OA
BRANCH  20  21
ATOM     21  C   UNL     1       2.033   2.082  18.694  0.00  0.00    +0.000 C 
BRANCH  21  22
ATOM     22  C   UNL     1       0.582   2.538  18.797  0.00  0.00    +0.000 C 
BRANCH  22  23
ATOM     23  O   UNL     1       0.261   2.864  20.147  0.00  0.00    +0.000 OA
ATOM     24  H   UNL     1      -0.656   2.555  20.282  0.00  0.00    +0.000 HD
ENDBRANCH  22  23
ENDBRANCH  21  22
ENDBRANCH  20  21
ENDBRANCH  19  20
ENDBRANCH   4  19
TORSDOF 7
ENDMDL
MODEL 7
REMARK VINA RESULT:      -6.6      1.601      2.041
REMARK  Name = 
REMARK  8 active torsions:
REMARK  status: ('A' for Active; 'I' for Inactive)
REMARK    1  A    between atoms: C_1  and  C_2
REMARK    2  A    between atoms: C_3  and  N_4
REMARK    3  A    between atoms: N_4  and  C_5
REMARK    4  A    between atoms: N_11  and  C_12
REMARK    5  A    between atoms: C_12  and  O_13
REMARK    6  A    between atoms: O_13  and  C_14
REMARK    7  A    between atoms: C_14  and  C_15
REMARK    8  A    between atoms: C_15  and  O_16
REMARK                            x       y       z     vdW  Elec       q    Type
REMARK                         _______ _______ _______ _____ _____    ______ ____
ROOT
ATOM      1  C   UNL     1       1.009   4.395  17.395  0.00  0.00    +0.000 C 
ATOM      2  C   UNL     1       2.169   3.998  18.269  0.00  0.00    +0.000 A 
ATOM      3  C   UNL     1       3.288   4.725  18.535  0.00  0.00    +0.000 A 
ATOM      4  N   UNL     1       4.344   4.094  19.232  0.00  0.00    +0.000 N 
ATOM      5  C   UNL     1       4.274   2.788  19.680  0.00  0.00    +0.000 A 
ATOM      6  O   UNL     1       5.188   2.207  20.262  0.00  0.00    +0.000 OA
ATOM      7  N   UNL     1       3.109   2.129  19.460  0.00  0.00    +0.000 N 
ATOM      8  C   UNL     1       2.029   2.629  18.818  0.00  0.00    +0.000 A 
ATOM      9  O   UNL     1       0.999   1.972  18.697  0.00  0.00    +0.000 OA
ATOM     10  H   UNL     1       3.040   1.185  19.808  0.00  0.00    +0.000 HD
ENDROOT
BRANCH   3  11
ATOM     11  N   UNL     1       3.445   6.032  18.080  0.00  0.00    +0.000 N 
ATOM     12  H   UNL     1       4.238   6.199  17.475  0.00  0.00    +0.000 HD
BRANCH  11  13
ATOM     13  C   UNL     1       2.833   7.216  18.542  0.00  0.00    +0.000 A 
ATOM     14  C   UNL     1       2.283   7.340  19.824  0.00  0.00    +0.000 A 
ATOM     15  C   UNL     1       1.425   8.397  20.138  0.00  0.00    +0.000 A 
ATOM     16  C   UNL     1       1.141   9.368  19.182  0.00  0.00    +0.000 A 
ATOM     17  C   UNL     1       1.759   9.312  17.935  0.00  0.00    +0.000 A 
ATOM     18  C   UNL     1       2.608   8.248  17.621  0.00  0.00    +0.000 A 
ENDBRANCH  11  13
ENDBRANCH   3  11
BRANCH   4  19
ATOM     19  C   UNL     1       5.607   4.775  19.471  0.00  0.00    +0.000 C 
BRANCH  19  20
ATOM     20  O   UNL     1       6.633   4.311  18.592  0.00  0.00    +0.000 OA
BRANCH  20  21
ATOM     21  C   UNL     1       7.125   5.362  17.744  0.00  0.00    +0.000 C 
BRANCH  21  22
ATOM     22  C   UNL     1       6.577   5.143  16.338  0.00  0.00    +0.000 C 
BRANCH  22  23
ATOM     23  O   UNL     1       7.517   5.593  15.367  0.00  0.00    +0.000 OA
ATOM     24  H   UNL     1       7.002   5.742  14.550  0.00  0.00    +0.000 HD
ENDBRANCH  22  23
ENDBRANCH  21  22
ENDBRANCH  20  21
ENDBRANCH  19  20
ENDBRANCH   4  19
TORSDOF 7
ENDMDL
MODEL 8
REMARK VINA RESULT:      -6.6      3.522      5.547
REMARK  Name = 
REMARK  8 active torsions:
REMARK  status: ('A' for Active; 'I' for Inactive)
REMARK    1  A    between atoms: C_1  and  C_2
REMARK    2  A    between atoms: C_3  and  N_4
REMARK    3  A    between atoms: N_4  and  C_5
REMARK    4  A    between atoms: N_11  and  C_12
REMARK    5  A    between atoms: C_12  and  O_13
REMARK    6  A    between atoms: O_13  and  C_14
REMARK    7  A    between atoms: C_14  and  C_15
REMARK    8  A    between atoms: C_15  and  O_16
REMARK                            x       y       z     vdW  Elec       q    Type
REMARK                         _______ _______ _______ _____ _____    ______ ____
ROOT
ATOM      1  C   UNL     1       5.786   5.008  19.228  0.00  0.00    +0.000 C 
ATOM      2  C   UNL     1       6.153   5.076  17.768  0.00  0.00    +0.000 A 
ATOM      3  C   UNL     1       5.831   4.182  16.795  0.00  0.00    +0.000 A 
ATOM      4  N   UNL     1       6.431   4.333  15.524  0.00  0.00    +0.000 N 
ATOM      5  C   UNL     1       7.301   5.365  15.223  0.00  0.00    +0.000 A 
ATOM      6  O   UNL     1       7.858   5.503  14.135  0.00  0.00    +0.000 OA
ATOM      7  N   UNL     1       7.531   6.276  16.201  0.00  0.00    +0.000 N 
ATOM      8  C   UNL     1       7.007   6.243  17.447  0.00  0.00    +0.000 A 
ATOM      9  O   UNL     1       7.240   7.133  18.260  0.00  0.00    +0.000 OA
ATOM     10  H   UNL     1       8.142   7.046  15.980  0.00  0.00    +0.000 HD
ENDROOT
BRANCH   3  11
ATOM     11  N   UNL     1       4.994   3.095  17.038  0.00  0.00    +0.000 N 
ATOM     12  H   UNL     1       5.305   2.205  16.670  0.00  0.00    +0.000 HD
BRANCH  11  13
ATOM     13  C   UNL     1       3.655   3.083  17.481  0.00  0.00    +0.000 A 
ATOM     14  C   UNL     1       2.761   4.132  17.235  0.00  0.00    +0.000 A 
ATOM     15  C   UNL     1       1.558   4.230  17.938  0.00  0.00    +0.000 A 
ATOM     16  C   UNL     1       1.216   3.253  18.868  0.00  0.00    +0.000 A 
ATOM     17  C   UNL     1       2.048   2.150  19.051  0.00  0.00    +0.000 A 
ATOM     18  C   UNL     1       3.255   2.061  18.353  0.00  0.00    +0.000 A 
ENDBRANCH  11  13
ENDBRANCH   3  11
BRANCH   4  19
ATOM     19  C   UNL     1       6.210   3.365  14.462  0.00  0.00    +0.000 C 
BRANCH  19  20
ATOM     20  O   UNL     1       5.456   3.923  13.385  0.00  0.00    +0.000 OA
BRANCH  20  21
ATOM     21  C   UNL     1       5.992   3.546  12.106  0.00  0.00    +0.000 C 
BRANCH  21  22
ATOM     22  C   UNL     1       5.243   2.313  11.614  0.00  0.00    +0.000 C 
BRANCH  22  23
ATOM     23  O   UNL     1       6.158   1.253  11.348  0.00  0.00    +0.000 OA
ATOM     24  H   UNL     1       6.582   1.478  10.497  0.00  0.00    +0.000 HD
ENDBRANCH  22  23
ENDBRANCH  21  22
ENDBRANCH  20  21
ENDBRANCH  19  20
ENDBRANCH   4  19
TORSDOF 7
ENDMDL
MODEL 9
REMARK VINA RESULT:      -6.5      2.187      5.341
REMARK  Name = 
REMARK  8 active torsions:
REMARK  status: ('A' for Active; 'I' for Inactive)
REMARK    1  A    between atoms: C_1  and  C_2
REMARK    2  A    between atoms: C_3  and  N_4
REMARK    3  A    between atoms: N_4  and  C_5
REMARK    4  A    between atoms: N_11  and  C_12
REMARK    5  A    between atoms: C_12  and  O_13
REMARK    6  A    between atoms: O_13  and  C_14
REMARK    7  A    between atoms: C_14  and  C_15
REMARK    8  A    between atoms: C_15  and  O_16
REMARK                            x       y       z     vdW  Elec       q    Type
REMARK                         _______ _______ _______ _____ _____    ______ ____
ROOT
ATOM      1  C   UNL     1       2.632   8.171  18.257  0.00  0.00    +0.000 C 
ATOM      2  C   UNL     1       2.668   6.985  19.185  0.00  0.00    +0.000 A 
ATOM      3  C   UNL     1       3.403   5.849  19.044  0.00  0.00    +0.000 A 
ATOM      4  N   UNL     1       3.151   4.776  19.929  0.00  0.00    +0.000 N 
ATOM      5  C   UNL     1       2.217   4.846  20.947  0.00  0.00    +0.000 A 
ATOM      6  O   UNL     1       1.959   3.918  21.711  0.00  0.00    +0.000 OA
ATOM      7  N   UNL     1       1.565   6.024  21.097  0.00  0.00    +0.000 N 
ATOM      8  C   UNL     1       1.729   7.121  20.323  0.00  0.00    +0.000 A 
ATOM      9  O   UNL     1       1.121   8.162  20.556  0.00  0.00    +0.000 OA
ATOM     10  H   UNL     1       0.903   6.092  21.854  0.00  0.00    +0.000 HD
ENDROOT
BRANCH   3  11
ATOM     11  N   UNL     1       4.332   5.694  18.017  0.00  0.00    +0.000 N 
ATOM     12  H   UNL     1       4.064   5.070  17.267  0.00  0.00    +0.000 HD
BRANCH  11  13
ATOM     13  C   UNL     1       5.695   6.055  17.987  0.00  0.00    +0.000 A 
ATOM     14  C   UNL     1       6.651   5.497  18.844  0.00  0.00    +0.000 A 
ATOM     15  C   UNL     1       7.908   6.088  18.999  0.00  0.00    +0.000 A 
ATOM     16  C   UNL     1       8.237   7.224  18.265  0.00  0.00    +0.000 A 
ATOM     17  C   UNL     1       7.332   7.732  17.335  0.00  0.00    +0.000 A 
ATOM     18  C   UNL     1       6.074   7.144  17.189  0.00  0.00    +0.000 A 
ENDBRANCH  11  13
ENDBRANCH   3  11
BRANCH   4  19
ATOM     19  C   UNL     1       3.829   3.498  19.782  0.00  0.00    +0.000 C 
BRANCH  19  20
ATOM     20  O   UNL     1       3.420   2.814  18.597  0.00  0.00    +0.000 OA
BRANCH  20  21
ATOM     21  C   UNL     1       2.450   1.792  18.879  0.00  0.00    +0.000 C 
BRANCH  21  22
ATOM     22  C   UNL     1       1.065   2.337  18.547  0.00  0.00    +0.000 C 
BRANCH  22  23
ATOM     23  O   UNL     1       1.170   3.429  17.638  0.00  0.00    +0.000 OA
ATOM     24  H   UNL     1       1.316   4.220  18.191  0.00  0.00    +0.000 HD
ENDBRANCH  22  23
ENDBRANCH  21  22
ENDBRANCH  20  21
ENDBRANCH  19  20
ENDBRANCH   4  19
TORSDOF 7
ENDMDL
