MODEL 1
REMARK VINA RESULT:      -8.8      0.000      0.000
REMARK  Name = 
REMARK  7 active torsions:
REMARK  status: ('A' for Active; 'I' for Inactive)
REMARK    1  A    between atoms: C_1  and  C_2
REMARK    2  A    between atoms: C_3  and  C_4
REMARK    3  A    between atoms: C_11  and  C_12
REMARK    4  A    between atoms: C_18  and  C_19
REMARK    5  A    between atoms: C_22  and  C_23
REMARK    6  A    between atoms: C_23  and  N_24
REMARK    7  A    between atoms: C_32  and  C_33
REMARK                            x       y       z     vdW  Elec       q    Type
REMARK                         _______ _______ _______ _____ _____    ______ ____
ROOT
ATOM      1  C   UNL     1       2.068  17.238  19.493  0.00  0.00    +0.000 C 
ATOM      2  C   UNL     1       1.529  15.848  19.212  0.00  0.00    +0.000 A 
ATOM      3  C   UNL     1       0.107  15.739  18.834  0.00  0.00    +0.000 A 
ATOM      4  C   UNL     1      -0.396  14.511  18.595  0.00  0.00    +0.000 A 
ATOM      5  N   UNL     1       0.397  13.378  18.740  0.00  0.00    +0.000 N 
ATOM      6  C   UNL     1       0.067  12.026  18.617  0.00  0.00    +0.000 A 
ATOM      7  C   UNL     1       1.280  11.375  18.862  0.00  0.00    +0.000 A 
ATOM      8  N   UNL     1       2.300  12.264  19.093  0.00  0.00    +0.000 NA
ATOM      9  C   UNL     1       1.746  13.456  19.057  0.00  0.00    +0.000 A 
ATOM     10  C   UNL     1       2.334  14.749  19.292  0.00  0.00    +0.000 A 
ATOM     11  C   UNL     1       3.806  14.889  19.613  0.00  0.00    +0.000 C 
ENDROOT
BRANCH   3  12
ATOM     12  C   UNL     1      -0.823  16.800  18.703  0.00  0.00    +0.000 A 
ATOM     13  C   UNL     1      -0.913  17.932  17.917  0.00  0.00    +0.000 A 
ATOM     14  C   UNL     1      -2.085  18.575  18.356  0.00  0.00    +0.000 A 
ATOM     15  N   UNL     1      -2.701  17.906  19.333  0.00  0.00    +0.000 NA
ATOM     16  N   UNL     1      -1.921  16.827  19.520  0.00  0.00    +0.000 N 
ATOM     17  H   UNL     1      -2.181  16.157  20.236  0.00  0.00    +0.000 HD
ENDBRANCH   3  12
BRANCH   6  18
ATOM     18  C   UNL     1      -1.278  11.500  18.296  0.00  0.00    +0.000 A 
ATOM     19  C   UNL     1      -1.438  10.447  17.381  0.00  0.00    +0.000 A 
ATOM     20  C   UNL     1      -2.691   9.870  17.150  0.00  0.00    +0.000 A 
ATOM     21  C   UNL     1      -3.821  10.386  17.775  0.00  0.00    +0.000 A 
ATOM     22  C   UNL     1      -3.693  11.456  18.655  0.00  0.00    +0.000 A 
ATOM     23  C   UNL     1      -2.429  11.982  18.939  0.00  0.00    +0.000 A 
ENDBRANCH   6  18
BRANCH   7  24
ATOM     24  C   UNL     1       1.518   9.939  18.876  0.00  0.00    +0.000 A 
ATOM     25  C   UNL     1       1.298   9.204  20.041  0.00  0.00    +0.000 A 
ATOM     26  C   UNL     1       1.628   7.842  20.095  0.00  0.00    +0.000 A 
ATOM     27  C   UNL     1       2.197   7.164  18.998  0.00  0.00    +0.000 A 
ATOM     28  C   UNL     1       2.335   7.919  17.817  0.00  0.00    +0.000 A 
ATOM     29  C   UNL     1       1.986   9.269  17.746  0.00  0.00    +0.000 A 
BRANCH  27  30
ATOM     30  C   UNL     1       2.631   5.651  19.061  0.00  0.00    +0.000 C 
ATOM     31  C   UNL     1       1.578   4.534  19.333  0.00  0.00    +0.000 C 
ATOM     32  C   UNL     1       1.589   4.249  17.817  0.00  0.00    +0.000 C 
ATOM     33  C   UNL     1       3.004   4.861  17.775  0.00  0.00    +0.000 C 
BRANCH  30  34
ATOM     34  N   UNL     1       3.721   5.483  20.022  0.00  0.00    +0.000 NA
ATOM     35  H   UNL     1       3.780   4.531  20.383  0.00  0.00    +0.000 HD
ATOM     36  H   UNL     1       3.608   6.068  20.851  0.00  0.00    +0.000 HD
ENDBRANCH  30  34
ENDBRANCH  27  30
ENDBRANCH   7  24
TORSDOF 5
ENDMDL
MODEL 2
REMARK VINA RESULT:      -8.6      0.524      1.110
REMARK  Name = 
REMARK  7 active torsions:
REMARK  status: ('A' for Active; 'I' for Inactive)
REMARK    1  A    between atoms: C_1  and  C_2
REMARK    2  A    between atoms: C_3  and  C_4
REMARK    3  A    between atoms: C_11  and  C_12
REMARK    4  A    between atoms: C_18  and  C_19
REMARK    5  A    between atoms: C_22  and  C_23
REMARK    6  A    between atoms: C_23  and  N_24
REMARK    7  A    between atoms: C_32  and  C_33
REMARK                            x       y       z     vdW  Elec       q    Type
REMARK                         _______ _______ _______ _____ _____    ______ ____
ROOT
ATOM      1  C   UNL     1       1.922  17.090  19.671  0.00  0.00    +0.000 C 
ATOM      2  C   UNL     1       1.396  15.693  19.404  0.00  0.00    +0.000 A 
ATOM      3  C   UNL     1      -0.008  15.572  18.965  0.00  0.00    +0.000 A 
ATOM      4  C   UNL     1      -0.499  14.337  18.737  0.00  0.00    +0.000 A 
ATOM      5  N   UNL     1       0.286  13.210  18.948  0.00  0.00    +0.000 N 
ATOM      6  C   UNL     1      -0.038  11.855  18.847  0.00  0.00    +0.000 A 
ATOM      7  C   UNL     1       1.162  11.212  19.164  0.00  0.00    +0.000 A 
ATOM      8  N   UNL     1       2.171  12.108  19.416  0.00  0.00    +0.000 NA
ATOM      9  C   UNL     1       1.620  13.298  19.323  0.00  0.00    +0.000 A 
ATOM     10  C   UNL     1       2.196  14.597  19.550  0.00  0.00    +0.000 A 
ATOM     11  C   UNL     1       3.653  14.748  19.933  0.00  0.00    +0.000 C 
ENDROOT
BRANCH   3  12
ATOM     12  C   UNL     1      -0.931  16.628  18.763  0.00  0.00    +0.000 A 
ATOM     13  C   UNL     1      -0.986  17.736  17.941  0.00  0.00    +0.000 A 
ATOM     14  C   UNL     1      -2.175  18.391  18.310  0.00  0.00    +0.000 A 
ATOM     15  N   UNL     1      -2.833  17.751  19.280  0.00  0.00    +0.000 NA
ATOM     16  N   UNL     1      -2.062  16.678  19.531  0.00  0.00    +0.000 N 
ATOM     17  H   UNL     1      -2.353  16.029  20.254  0.00  0.00    +0.000 HD
ENDBRANCH   3  12
BRANCH   6  18
ATOM     18  C   UNL     1      -1.367  11.319  18.480  0.00  0.00    +0.000 A 
ATOM     19  C   UNL     1      -2.539  11.871  19.022  0.00  0.00    +0.000 A 
ATOM     20  C   UNL     1      -3.804  11.445  18.602  0.00  0.00    +0.000 A 
ATOM     21  C   UNL     1      -3.920  10.407  17.685  0.00  0.00    +0.000 A 
ATOM     22  C   UNL     1      -2.773   9.817  17.163  0.00  0.00    +0.000 A 
ATOM     23  C   UNL     1      -1.511  10.295  17.530  0.00  0.00    +0.000 A 
ENDBRANCH   6  18
BRANCH   7  24
ATOM     24  C   UNL     1       1.400   9.777  19.227  0.00  0.00    +0.000 A 
ATOM     25  C   UNL     1       0.983   9.047  20.340  0.00  0.00    +0.000 A 
ATOM     26  C   UNL     1       1.302   7.687  20.459  0.00  0.00    +0.000 A 
ATOM     27  C   UNL     1       2.056   7.006  19.482  0.00  0.00    +0.000 A 
ATOM     28  C   UNL     1       2.396   7.755  18.339  0.00  0.00    +0.000 A 
ATOM     29  C   UNL     1       2.059   9.103  18.201  0.00  0.00    +0.000 A 
BRANCH  27  30
ATOM     30  C   UNL     1       2.478   5.495  19.628  0.00  0.00    +0.000 C 
ATOM     31  C   UNL     1       2.276   4.742  20.979  0.00  0.00    +0.000 C 
ATOM     32  C   UNL     1       1.017   4.105  20.358  0.00  0.00    +0.000 C 
ATOM     33  C   UNL     1       1.648   4.355  18.974  0.00  0.00    +0.000 C 
BRANCH  30  34
ATOM     34  N   UNL     1       3.873   5.324  19.224  0.00  0.00    +0.000 NA
ATOM     35  H   UNL     1       4.520   5.401  20.009  0.00  0.00    +0.000 HD
ATOM     36  H   UNL     1       4.182   6.037  18.563  0.00  0.00    +0.000 HD
ENDBRANCH  30  34
ENDBRANCH  27  30
ENDBRANCH   7  24
TORSDOF 5
ENDMDL
MODEL 3
REMARK VINA RESULT:      -8.3      0.779      1.238
REMARK  Name = 
REMARK  7 active torsions:
REMARK  status: ('A' for Active; 'I' for Inactive)
REMARK    1  A    between atoms: C_1  and  C_2
REMARK    2  A    between atoms: C_3  and  C_4
REMARK    3  A    between atoms: C_11  and  C_12
REMARK    4  A    between atoms: C_18  and  C_19
REMARK    5  A    between atoms: C_22  and  C_23
REMARK    6  A    between atoms: C_23  and  N_24
REMARK    7  A    between atoms: C_32  and  C_33
REMARK                            x       y       z     vdW  Elec       q    Type
REMARK                         _______ _______ _______ _____ _____    ______ ____
ROOT
ATOM      1  C   UNL     1       2.061  17.176  19.796  0.00  0.00    +0.000 C 
ATOM      2  C   UNL     1       1.514  15.793  19.500  0.00  0.00    +0.000 A 
ATOM      3  C   UNL     1       0.105  15.701  19.071  0.00  0.00    +0.000 A 
ATOM      4  C   UNL     1      -0.406  14.479  18.819  0.00  0.00    +0.000 A 
ATOM      5  N   UNL     1       0.366  13.337  18.995  0.00  0.00    +0.000 N 
ATOM      6  C   UNL     1       0.022  11.988  18.865  0.00  0.00    +0.000 A 
ATOM      7  C   UNL     1       1.216  11.322  19.155  0.00  0.00    +0.000 A 
ATOM      8  N   UNL     1       2.239  12.198  19.420  0.00  0.00    +0.000 NA
ATOM      9  C   UNL     1       1.704  13.397  19.360  0.00  0.00    +0.000 A 
ATOM     10  C   UNL     1       2.300  14.683  19.612  0.00  0.00    +0.000 A 
ATOM     11  C   UNL     1       3.762  14.804  19.986  0.00  0.00    +0.000 C 
ENDROOT
BRANCH   3  12
ATOM     12  C   UNL     1      -0.805  16.774  18.903  0.00  0.00    +0.000 A 
ATOM     13  C   UNL     1      -1.866  17.280  19.628  0.00  0.00    +0.000 A 
ATOM     14  C   UNL     1      -2.362  18.334  18.839  0.00  0.00    +0.000 A 
ATOM     15  N   UNL     1      -1.671  18.497  17.708  0.00  0.00    +0.000 NA
ATOM     16  N   UNL     1      -0.725  17.544  17.775  0.00  0.00    +0.000 N 
ATOM     17  H   UNL     1      -0.067  17.458  17.008  0.00  0.00    +0.000 HD
ENDBRANCH   3  12
BRANCH   6  18
ATOM     18  C   UNL     1      -1.317  11.480  18.497  0.00  0.00    +0.000 A 
ATOM     19  C   UNL     1      -2.477  12.042  19.054  0.00  0.00    +0.000 A 
ATOM     20  C   UNL     1      -3.751  11.643  18.635  0.00  0.00    +0.000 A 
ATOM     21  C   UNL     1      -3.889  10.621  17.703  0.00  0.00    +0.000 A 
ATOM     22  C   UNL     1      -2.755  10.021  17.166  0.00  0.00    +0.000 A 
ATOM     23  C   UNL     1      -1.483  10.473  17.533  0.00  0.00    +0.000 A 
ENDBRANCH   6  18
BRANCH   7  24
ATOM     24  C   UNL     1       1.435   9.883  19.182  0.00  0.00    +0.000 A 
ATOM     25  C   UNL     1       1.193   9.160  20.350  0.00  0.00    +0.000 A 
ATOM     26  C   UNL     1       1.502   7.794  20.418  0.00  0.00    +0.000 A 
ATOM     27  C   UNL     1       2.073   7.100  19.332  0.00  0.00    +0.000 A 
ATOM     28  C   UNL     1       2.234   7.843  18.147  0.00  0.00    +0.000 A 
ATOM     29  C   UNL     1       1.904   9.197  18.063  0.00  0.00    +0.000 A 
BRANCH  27  30
ATOM     30  C   UNL     1       2.486   5.581  19.411  0.00  0.00    +0.000 C 
ATOM     31  C   UNL     1       2.081   4.589  18.277  0.00  0.00    +0.000 C 
ATOM     32  C   UNL     1       3.519   4.728  17.736  0.00  0.00    +0.000 C 
ATOM     33  C   UNL     1       3.951   5.126  19.162  0.00  0.00    +0.000 C 
BRANCH  30  34
ATOM     34  N   UNL     1       2.048   5.010  20.683  0.00  0.00    +0.000 NA
ATOM     35  H   UNL     1       2.816   4.590  21.208  0.00  0.00    +0.000 HD
ATOM     36  H   UNL     1       1.372   4.254  20.563  0.00  0.00    +0.000 HD
ENDBRANCH  30  34
ENDBRANCH  27  30
ENDBRANCH   7  24
TORSDOF 5
ENDMDL
MODEL 4
REMARK VINA RESULT:      -8.0      3.165      3.728
REMARK  Name = 
REMARK  7 active torsions:
REMARK  status: ('A' for Active; 'I' for Inactive)
REMARK    1  A    between atoms: C_1  and  C_2
REMARK    2  A    between atoms: C_3  and  C_4
REMARK    3  A    between atoms: C_11  and  C_12
REMARK    4  A    between atoms: C_18  and  C_19
REMARK    5  A    between atoms: C_22  and  C_23
REMARK    6  A    between atoms: C_23  and  N_24
REMARK    7  A    between atoms: C_32  and  C_33
REMARK                            x       y       z     vdW  Elec       q    Type
REMARK                         _______ _______ _______ _____ _____    ______ ____
ROOT
ATOM      1  C   UNL     1      -3.615  14.976  23.108  0.00  0.00    +0.000 C 
ATOM      2  C   UNL     1      -3.097  14.017  22.052  0.00  0.00    +0.000 A 
ATOM      3  C   UNL     1      -3.906  13.859  20.828  0.00  0.00    +0.000 A 
ATOM      4  C   UNL     1      -3.471  13.000  19.884  0.00  0.00    +0.000 A 
ATOM      5  N   UNL     1      -2.313  12.257  20.080  0.00  0.00    +0.000 N 
ATOM      6  C   UNL     1      -1.729  11.271  19.279  0.00  0.00    +0.000 A 
ATOM      7  C   UNL     1      -0.584  10.910  19.996  0.00  0.00    +0.000 A 
ATOM      8  N   UNL     1      -0.451  11.643  21.149  0.00  0.00    +0.000 NA
ATOM      9  C   UNL     1      -1.514  12.414  21.204  0.00  0.00    +0.000 A 
ATOM     10  C   UNL     1      -1.924  13.342  22.225  0.00  0.00    +0.000 A 
ATOM     11  C   UNL     1      -1.074  13.571  23.457  0.00  0.00    +0.000 C 
ENDROOT
BRANCH   3  12
ATOM     12  C   UNL     1      -5.127  14.511  20.524  0.00  0.00    +0.000 A 
ATOM     13  C   UNL     1      -6.461  14.255  20.772  0.00  0.00    +0.000 A 
ATOM     14  C   UNL     1      -7.147  15.300  20.127  0.00  0.00    +0.000 A 
ATOM     15  N   UNL     1      -6.322  16.160  19.525  0.00  0.00    +0.000 NA
ATOM     16  N   UNL     1      -5.101  15.664  19.788  0.00  0.00    +0.000 N 
ATOM     17  H   UNL     1      -4.289  16.149  19.419  0.00  0.00    +0.000 HD
ENDBRANCH   3  12
BRANCH   6  18
ATOM     18  C   UNL     1      -2.267  10.789  17.989  0.00  0.00    +0.000 A 
ATOM     19  C   UNL     1      -3.002   9.594  17.918  0.00  0.00    +0.000 A 
ATOM     20  C   UNL     1      -3.606   9.183  16.725  0.00  0.00    +0.000 A 
ATOM     21  C   UNL     1      -3.425   9.922  15.562  0.00  0.00    +0.000 A 
ATOM     22  C   UNL     1      -2.669  11.089  15.598  0.00  0.00    +0.000 A 
ATOM     23  C   UNL     1      -2.127  11.535  16.808  0.00  0.00    +0.000 A 
ENDBRANCH   6  18
BRANCH   7  24
ATOM     24  C   UNL     1       0.401   9.904  19.628  0.00  0.00    +0.000 A 
ATOM     25  C   UNL     1       0.826   9.790  18.304  0.00  0.00    +0.000 A 
ATOM     26  C   UNL     1       1.691   8.756  17.921  0.00  0.00    +0.000 A 
ATOM     27  C   UNL     1       2.158   7.791  18.837  0.00  0.00    +0.000 A 
ATOM     28  C   UNL     1       1.770   7.981  20.177  0.00  0.00    +0.000 A 
ATOM     29  C   UNL     1       0.928   9.023  20.572  0.00  0.00    +0.000 A 
BRANCH  27  30
ATOM     30  C   UNL     1       3.080   6.587  18.413  0.00  0.00    +0.000 C 
ATOM     31  C   UNL     1       3.791   5.713  19.491  0.00  0.00    +0.000 C 
ATOM     32  C   UNL     1       2.685   4.661  19.271  0.00  0.00    +0.000 C 
ATOM     33  C   UNL     1       2.480   5.261  17.866  0.00  0.00    +0.000 C 
BRANCH  30  34
ATOM     34  N   UNL     1       4.096   7.044  17.465  0.00  0.00    +0.000 NA
ATOM     35  H   UNL     1       4.913   6.433  17.443  0.00  0.00    +0.000 HD
ATOM     36  H   UNL     1       4.468   7.964  17.701  0.00  0.00    +0.000 HD
ENDBRANCH  30  34
ENDBRANCH  27  30
ENDBRANCH   7  24
TORSDOF 5
ENDMDL
MODEL 5
REMARK VINA RESULT:      -8.0      2.075      9.100
REMARK  Name = 
REMARK  7 active torsions:
REMARK  status: ('A' for Active; 'I' for Inactive)
REMARK    1  A    between atoms: C_1  and  C_2
REMARK    2  A    between atoms: C_3  and  C_4
REMARK    3  A    between atoms: C_11  and  C_12
REMARK    4  A    between atoms: C_18  and  C_19
REMARK    5  A    between atoms: C_22  and  C_23
REMARK    6  A    between atoms: C_23  and  N_24
REMARK    7  A    between atoms: C_32  and  C_33
REMARK                            x       y       z     vdW  Elec       q    Type
REMARK                         _______ _______ _______ _____ _____    ______ ____
ROOT
ATOM      1  C   UNL     1       3.419   4.867  17.663  0.00  0.00    +0.000 C 
ATOM      2  C   UNL     1       2.859   6.135  18.279  0.00  0.00    +0.000 A 
ATOM      3  C   UNL     1       2.129   6.002  19.554  0.00  0.00    +0.000 A 
ATOM      4  C   UNL     1       1.610   7.116  20.109  0.00  0.00    +0.000 A 
ATOM      5  N   UNL     1       1.728   8.347  19.475  0.00  0.00    +0.000 N 
ATOM      6  C   UNL     1       1.211   9.596  19.830  0.00  0.00    +0.000 A 
ATOM      7  C   UNL     1       1.679  10.438  18.816  0.00  0.00    +0.000 A 
ATOM      8  N   UNL     1       2.457   9.762  17.909  0.00  0.00    +0.000 NA
ATOM      9  C   UNL     1       2.442   8.506  18.296  0.00  0.00    +0.000 A 
ATOM     10  C   UNL     1       3.039   7.349  17.681  0.00  0.00    +0.000 A 
ATOM     11  C   UNL     1       3.851   7.473  16.410  0.00  0.00    +0.000 C 
ENDROOT
BRANCH   3  12
ATOM     12  C   UNL     1       1.889   4.807  20.277  0.00  0.00    +0.000 A 
ATOM     13  C   UNL     1       1.031   3.735  20.139  0.00  0.00    +0.000 A 
ATOM     14  C   UNL     1       1.296   2.924  21.258  0.00  0.00    +0.000 A 
ATOM     15  N   UNL     1       2.251   3.429  22.042  0.00  0.00    +0.000 NA
ATOM     16  N   UNL     1       2.602   4.568  21.421  0.00  0.00    +0.000 N 
ATOM     17  H   UNL     1       3.320   5.149  21.840  0.00  0.00    +0.000 HD
ENDBRANCH   3  12
BRANCH   6  18
ATOM     18  C   UNL     1       0.378   9.869  21.021  0.00  0.00    +0.000 A 
ATOM     19  C   UNL     1       0.630   9.217  22.239  0.00  0.00    +0.000 A 
ATOM     20  C   UNL     1      -0.081   9.545  23.398  0.00  0.00    +0.000 A 
ATOM     21  C   UNL     1      -1.109  10.479  23.344  0.00  0.00    +0.000 A 
ATOM     22  C   UNL     1      -1.404  11.110  22.140  0.00  0.00    +0.000 A 
ATOM     23  C   UNL     1      -0.643  10.833  21.000  0.00  0.00    +0.000 A 
ENDBRANCH   6  18
BRANCH   7  24
ATOM     24  C   UNL     1       1.428  11.864  18.674  0.00  0.00    +0.000 A 
ATOM     25  C   UNL     1       2.485  12.772  18.748  0.00  0.00    +0.000 A 
ATOM     26  C   UNL     1       2.241  14.152  18.720  0.00  0.00    +0.000 A 
ATOM     27  C   UNL     1       0.937  14.681  18.629  0.00  0.00    +0.000 A 
ATOM     28  C   UNL     1      -0.097  13.737  18.482  0.00  0.00    +0.000 A 
ATOM     29  C   UNL     1       0.140  12.361  18.482  0.00  0.00    +0.000 A 
BRANCH  27  30
ATOM     30  C   UNL     1       0.639  16.228  18.660  0.00  0.00    +0.000 C 
ATOM     31  C   UNL     1       0.774  17.035  19.988  0.00  0.00    +0.000 C 
ATOM     32  C   UNL     1       2.140  17.529  19.469  0.00  0.00    +0.000 C 
ATOM     33  C   UNL     1       1.627  17.255  18.041  0.00  0.00    +0.000 C 
BRANCH  30  34
ATOM     34  N   UNL     1      -0.689  16.492  18.108  0.00  0.00    +0.000 NA
ATOM     35  H   UNL     1      -0.858  15.988  17.237  0.00  0.00    +0.000 HD
ATOM     36  H   UNL     1      -0.827  17.475  17.869  0.00  0.00    +0.000 HD
ENDBRANCH  30  34
ENDBRANCH  27  30
ENDBRANCH   7  24
TORSDOF 5
ENDMDL
MODEL 6
REMARK VINA RESULT:      -7.7      1.090      1.378
REMARK  Name = 
REMARK  7 active torsions:
REMARK  status: ('A' for Active; 'I' for Inactive)
REMARK    1  A    between atoms: C_1  and  C_2
REMARK    2  A    between atoms: C_3  and  C_4
REMARK    3  A    between atoms: C_11  and  C_12
REMARK    4  A    between atoms: C_18  and  C_19
REMARK    5  A    between atoms: C_22  and  C_23
REMARK    6  A    between atoms: C_23  and  N_24
REMARK    7  A    between atoms: C_32  and  C_33
REMARK                            x       y       z     vdW  Elec       q    Type
REMARK                         _______ _______ _______ _____ _____    ______ ____
ROOT
ATOM      1  C   UNL     1       1.356  17.093  20.760  0.00  0.00    +0.000 C 
ATOM      2  C   UNL     1       0.961  15.732  20.219  0.00  0.00    +0.000 A 
ATOM      3  C   UNL     1      -0.408  15.589  19.685  0.00  0.00    +0.000 A 
ATOM      4  C   UNL     1      -0.784  14.383  19.214  0.00  0.00    +0.000 A 
ATOM      5  N   UNL     1       0.082  13.298  19.266  0.00  0.00    +0.000 N 
ATOM      6  C   UNL     1      -0.123  11.963  18.907  0.00  0.00    +0.000 A 
ATOM      7  C   UNL     1       1.112  11.364  19.174  0.00  0.00    +0.000 A 
ATOM      8  N   UNL     1       2.030  12.272  19.639  0.00  0.00    +0.000 NA
ATOM      9  C   UNL     1       1.386  13.414  19.727  0.00  0.00    +0.000 A 
ATOM     10  C   UNL     1       1.842  14.690  20.214  0.00  0.00    +0.000 A 
ATOM     11  C   UNL     1       3.263  14.876  20.701  0.00  0.00    +0.000 C 
ENDROOT
BRANCH   3  12
ATOM     12  C   UNL     1      -1.406  16.592  19.621  0.00  0.00    +0.000 A 
ATOM     13  C   UNL     1      -2.462  16.975  20.425  0.00  0.00    +0.000 A 
ATOM     14  C   UNL     1      -3.080  18.024  19.719  0.00  0.00    +0.000 A 
ATOM     15  N   UNL     1      -2.466  18.298  18.566  0.00  0.00    +0.000 NA
ATOM     16  N   UNL     1      -1.447  17.421  18.533  0.00  0.00    +0.000 N 
ATOM     17  H   UNL     1      -0.827  17.426  17.730  0.00  0.00    +0.000 HD
ENDBRANCH   3  12
BRANCH   6  18
ATOM     18  C   UNL     1      -1.386  11.405  18.375  0.00  0.00    +0.000 A 
ATOM     19  C   UNL     1      -1.370  10.383  17.412  0.00  0.00    +0.000 A 
ATOM     20  C   UNL     1      -2.553   9.775  16.980  0.00  0.00    +0.000 A 
ATOM     21  C   UNL     1      -3.781  10.229  17.449  0.00  0.00    +0.000 A 
ATOM     22  C   UNL     1      -3.824  11.266  18.374  0.00  0.00    +0.000 A 
ATOM     23  C   UNL     1      -2.636  11.823  18.858  0.00  0.00    +0.000 A 
ENDBRANCH   6  18
BRANCH   7  24
ATOM     24  C   UNL     1       1.465   9.963  18.995  0.00  0.00    +0.000 A 
ATOM     25  C   UNL     1       1.272   9.054  20.035  0.00  0.00    +0.000 A 
ATOM     26  C   UNL     1       1.708   7.727  19.911  0.00  0.00    +0.000 A 
ATOM     27  C   UNL     1       2.362   7.259  18.753  0.00  0.00    +0.000 A 
ATOM     28  C   UNL     1       2.473   8.183  17.696  0.00  0.00    +0.000 A 
ATOM     29  C   UNL     1       2.018   9.499  17.802  0.00  0.00    +0.000 A 
BRANCH  27  30
ATOM     30  C   UNL     1       2.916   5.790  18.620  0.00  0.00    +0.000 C 
ATOM     31  C   UNL     1       4.117   5.477  17.676  0.00  0.00    +0.000 C 
ATOM     32  C   UNL     1       5.013   5.469  18.931  0.00  0.00    +0.000 C 
ATOM     33  C   UNL     1       3.753   5.134  19.753  0.00  0.00    +0.000 C 
BRANCH  30  34
ATOM     34  N   UNL     1       1.827   4.875  18.279  0.00  0.00    +0.000 NA
ATOM     35  H   UNL     1       1.334   5.152  17.430  0.00  0.00    +0.000 HD
ATOM     36  H   UNL     1       1.104   4.838  18.998  0.00  0.00    +0.000 HD
ENDBRANCH  30  34
ENDBRANCH  27  30
ENDBRANCH   7  24
TORSDOF 5
ENDMDL
MODEL 7
REMARK VINA RESULT:      -7.7      0.646      1.409
REMARK  Name = 
REMARK  7 active torsions:
REMARK  status: ('A' for Active; 'I' for Inactive)
REMARK    1  A    between atoms: C_1  and  C_2
REMARK    2  A    between atoms: C_3  and  C_4
REMARK    3  A    between atoms: C_11  and  C_12
REMARK    4  A    between atoms: C_18  and  C_19
REMARK    5  A    between atoms: C_22  and  C_23
REMARK    6  A    between atoms: C_23  and  N_24
REMARK    7  A    between atoms: C_32  and  C_33
REMARK                            x       y       z     vdW  Elec       q    Type
REMARK                         _______ _______ _______ _____ _____    ______ ____
ROOT
ATOM      1  C   UNL     1       1.623  17.308  20.110  0.00  0.00    +0.000 C 
ATOM      2  C   UNL     1       1.198  15.897  19.751  0.00  0.00    +0.000 A 
ATOM      3  C   UNL     1      -0.174  15.714  19.237  0.00  0.00    +0.000 A 
ATOM      4  C   UNL     1      -0.576  14.465  18.927  0.00  0.00    +0.000 A 
ATOM      5  N   UNL     1       0.266  13.378  19.124  0.00  0.00    +0.000 N 
ATOM      6  C   UNL     1       0.032  12.012  18.944  0.00  0.00    +0.000 A 
ATOM      7  C   UNL     1       1.253  11.426  19.291  0.00  0.00    +0.000 A 
ATOM      8  N   UNL     1       2.191  12.368  19.636  0.00  0.00    +0.000 NA
ATOM      9  C   UNL     1       1.572  13.525  19.570  0.00  0.00    +0.000 A 
ATOM     10  C   UNL     1       2.056  14.844  19.886  0.00  0.00    +0.000 A 
ATOM     11  C   UNL     1       3.481  15.062  20.349  0.00  0.00    +0.000 C 
ENDROOT
BRANCH   3  12
ATOM     12  C   UNL     1      -1.149  16.722  19.038  0.00  0.00    +0.000 A 
ATOM     13  C   UNL     1      -1.243  17.853  18.251  0.00  0.00    +0.000 A 
ATOM     14  C   UNL     1      -2.479  18.426  18.601  0.00  0.00    +0.000 A 
ATOM     15  N   UNL     1      -3.129  17.716  19.527  0.00  0.00    +0.000 NA
ATOM     16  N   UNL     1      -2.305  16.682  19.769  0.00  0.00    +0.000 N 
ATOM     17  H   UNL     1      -2.581  15.993  20.461  0.00  0.00    +0.000 HD
ENDBRANCH   3  12
BRANCH   6  18
ATOM     18  C   UNL     1      -1.243  11.417  18.486  0.00  0.00    +0.000 A 
ATOM     19  C   UNL     1      -2.470  11.860  19.005  0.00  0.00    +0.000 A 
ATOM     20  C   UNL     1      -3.685  11.382  18.503  0.00  0.00    +0.000 A 
ATOM     21  C   UNL     1      -3.695  10.396  17.523  0.00  0.00    +0.000 A 
ATOM     22  C   UNL     1      -2.491   9.913  17.020  0.00  0.00    +0.000 A 
ATOM     23  C   UNL     1      -1.279  10.446  17.473  0.00  0.00    +0.000 A 
ENDBRANCH   6  18
BRANCH   7  24
ATOM     24  C   UNL     1       1.575  10.007  19.299  0.00  0.00    +0.000 A 
ATOM     25  C   UNL     1       2.072   9.395  18.148  0.00  0.00    +0.000 A 
ATOM     26  C   UNL     1       2.283   8.009  18.114  0.00  0.00    +0.000 A 
ATOM     27  C   UNL     1       1.999   7.180  19.219  0.00  0.00    +0.000 A 
ATOM     28  C   UNL     1       1.571   7.841  20.386  0.00  0.00    +0.000 A 
ATOM     29  C   UNL     1       1.383   9.224  20.436  0.00  0.00    +0.000 A 
BRANCH  27  30
ATOM     30  C   UNL     1       2.171   5.615  19.178  0.00  0.00    +0.000 C 
ATOM     31  C   UNL     1       1.863   4.817  17.873  0.00  0.00    +0.000 C 
ATOM     32  C   UNL     1       3.385   4.773  17.623  0.00  0.00    +0.000 C 
ATOM     33  C   UNL     1       3.578   4.955  19.142  0.00  0.00    +0.000 C 
BRANCH  30  34
ATOM     34  N   UNL     1       1.414   5.000  20.268  0.00  0.00    +0.000 NA
ATOM     35  H   UNL     1       1.715   5.328  21.186  0.00  0.00    +0.000 HD
ATOM     36  H   UNL     1       1.530   3.987  20.304  0.00  0.00    +0.000 HD
ENDBRANCH  30  34
ENDBRANCH  27  30
ENDBRANCH   7  24
TORSDOF 5
ENDMDL
MODEL 8
REMARK VINA RESULT:      -7.6      2.024      9.081
REMARK  Name = 
REMARK  7 active torsions:
REMARK  status: ('A' for Active; 'I' for Inactive)
REMARK    1  A    between atoms: C_1  and  C_2
REMARK    2  A    between atoms: C_3  and  C_4
REMARK    3  A    between atoms: C_11  and  C_12
REMARK    4  A    between atoms: C_18  and  C_19
REMARK    5  A    between atoms: C_22  and  C_23
REMARK    6  A    between atoms: C_23  and  N_24
REMARK    7  A    between atoms: C_32  and  C_33
REMARK                            x       y       z     vdW  Elec       q    Type
REMARK                         _______ _______ _______ _____ _____    ______ ____
ROOT
ATOM      1  C   UNL     1       3.318   5.055  17.651  0.00  0.00    +0.000 C 
ATOM      2  C   UNL     1       2.784   6.320  18.297  0.00  0.00    +0.000 A 
ATOM      3  C   UNL     1       2.083   6.175  19.587  0.00  0.00    +0.000 A 
ATOM      4  C   UNL     1       1.587   7.285  20.170  0.00  0.00    +0.000 A 
ATOM      5  N   UNL     1       1.701   8.524  19.551  0.00  0.00    +0.000 N 
ATOM      6  C   UNL     1       1.204   9.772  19.935  0.00  0.00    +0.000 A 
ATOM      7  C   UNL     1       1.655  10.624  18.922  0.00  0.00    +0.000 A 
ATOM      8  N   UNL     1       2.405   9.955  17.988  0.00  0.00    +0.000 NA
ATOM      9  C   UNL     1       2.388   8.693  18.357  0.00  0.00    +0.000 A 
ATOM     10  C   UNL     1       2.960   7.540  17.712  0.00  0.00    +0.000 A 
ATOM     11  C   UNL     1       3.743   7.676  16.424  0.00  0.00    +0.000 C 
ENDROOT
BRANCH   3  12
ATOM     12  C   UNL     1       1.850   4.972  20.299  0.00  0.00    +0.000 A 
ATOM     13  C   UNL     1       0.958   3.925  20.185  0.00  0.00    +0.000 A 
ATOM     14  C   UNL     1       1.258   3.085  21.273  0.00  0.00    +0.000 A 
ATOM     15  N   UNL     1       2.266   3.549  22.016  0.00  0.00    +0.000 NA
ATOM     16  N   UNL     1       2.614   4.691  21.399  0.00  0.00    +0.000 N 
ATOM     17  H   UNL     1       3.368   5.245  21.791  0.00  0.00    +0.000 HD
ENDBRANCH   3  12
BRANCH   6  18
ATOM     18  C   UNL     1       0.401  10.036  21.149  0.00  0.00    +0.000 A 
ATOM     19  C   UNL     1      -0.617  11.003  21.141  0.00  0.00    +0.000 A 
ATOM     20  C   UNL     1      -1.453  11.186  22.248  0.00  0.00    +0.000 A 
ATOM     21  C   UNL     1      -1.238  10.455  23.411  0.00  0.00    +0.000 A 
ATOM     22  C   UNL     1      -0.211   9.519  23.456  0.00  0.00    +0.000 A 
ATOM     23  C   UNL     1       0.576   9.287  22.323  0.00  0.00    +0.000 A 
ENDBRANCH   6  18
BRANCH   7  24
ATOM     24  C   UNL     1       1.414  12.055  18.806  0.00  0.00    +0.000 A 
ATOM     25  C   UNL     1       2.440  12.962  19.073  0.00  0.00    +0.000 A 
ATOM     26  C   UNL     1       2.188  14.341  19.069  0.00  0.00    +0.000 A 
ATOM     27  C   UNL     1       0.907  14.869  18.810  0.00  0.00    +0.000 A 
ATOM     28  C   UNL     1      -0.086  13.929  18.472  0.00  0.00    +0.000 A 
ATOM     29  C   UNL     1       0.162  12.555  18.448  0.00  0.00    +0.000 A 
BRANCH  27  30
ATOM     30  C   UNL     1       0.592  16.412  18.863  0.00  0.00    +0.000 C 
ATOM     31  C   UNL     1       1.746  17.460  18.800  0.00  0.00    +0.000 C 
ATOM     32  C   UNL     1       1.391  17.659  17.312  0.00  0.00    +0.000 C 
ATOM     33  C   UNL     1      -0.027  17.154  17.646  0.00  0.00    +0.000 C 
BRANCH  30  34
ATOM     34  N   UNL     1      -0.225  16.715  20.037  0.00  0.00    +0.000 NA
ATOM     35  H   UNL     1      -0.759  15.909  20.361  0.00  0.00    +0.000 HD
ATOM     36  H   UNL     1      -0.927  17.433  19.853  0.00  0.00    +0.000 HD
ENDBRANCH  30  34
ENDBRANCH  27  30
ENDBRANCH   7  24
TORSDOF 5
ENDMDL
MODEL 9
REMARK VINA RESULT:      -7.4      1.381      1.785
REMARK  Name = 
REMARK  7 active torsions:
REMARK  status: ('A' for Active; 'I' for Inactive)
REMARK    1  A    between atoms: C_1  and  C_2
REMARK    2  A    between atoms: C_3  and  C_4
REMARK    3  A    between atoms: C_11  and  C_12
REMARK    4  A    between atoms: C_18  and  C_19
REMARK    5  A    between atoms: C_22  and  C_23
REMARK    6  A    between atoms: C_23  and  N_24
REMARK    7  A    between atoms: C_32  and  C_33
REMARK                            x       y       z     vdW  Elec       q    Type
REMARK                         _______ _______ _______ _____ _____    ______ ____
ROOT
ATOM      1  C   UNL     1       0.662  16.811  21.544  0.00  0.00    +0.000 C 
ATOM      2  C   UNL     1       0.397  15.481  20.865  0.00  0.00    +0.000 A 
ATOM      3  C   UNL     1      -0.881  15.335  20.141  0.00  0.00    +0.000 A 
ATOM      4  C   UNL     1      -1.142  14.154  19.543  0.00  0.00    +0.000 A 
ATOM      5  N   UNL     1      -0.248  13.095  19.641  0.00  0.00    +0.000 N 
ATOM      6  C   UNL     1      -0.350  11.784  19.170  0.00  0.00    +0.000 A 
ATOM      7  C   UNL     1       0.861  11.205  19.562  0.00  0.00    +0.000 A 
ATOM      8  N   UNL     1       1.672  12.105  20.208  0.00  0.00    +0.000 NA
ATOM      9  C   UNL     1       0.977  13.218  20.283  0.00  0.00    +0.000 A 
ATOM     10  C   UNL     1       1.312  14.469  20.911  0.00  0.00    +0.000 A 
ATOM     11  C   UNL     1       2.646  14.664  21.599  0.00  0.00    +0.000 C 
ENDROOT
BRANCH   3  12
ATOM     12  C   UNL     1      -1.900  16.310  20.008  0.00  0.00    +0.000 A 
ATOM     13  C   UNL     1      -1.968  17.593  19.502  0.00  0.00    +0.000 A 
ATOM     14  C   UNL     1      -3.293  17.998  19.744  0.00  0.00    +0.000 A 
ATOM     15  N   UNL     1      -4.017  17.051  20.345  0.00  0.00    +0.000 NA
ATOM     16  N   UNL     1      -3.152  16.032  20.486  0.00  0.00    +0.000 N 
ATOM     17  H   UNL     1      -3.472  15.181  20.936  0.00  0.00    +0.000 HD
ENDBRANCH   3  12
BRANCH   6  18
ATOM     18  C   UNL     1      -1.506  11.228  18.434  0.00  0.00    +0.000 A 
ATOM     19  C   UNL     1      -2.814  11.641  18.733  0.00  0.00    +0.000 A 
ATOM     20  C   UNL     1      -3.905  11.205  17.974  0.00  0.00    +0.000 A 
ATOM     21  C   UNL     1      -3.716  10.287  16.947  0.00  0.00    +0.000 A 
ATOM     22  C   UNL     1      -2.434   9.832  16.657  0.00  0.00    +0.000 A 
ATOM     23  C   UNL     1      -1.338  10.327  17.371  0.00  0.00    +0.000 A 
ENDBRANCH   6  18
BRANCH   7  24
ATOM     24  C   UNL     1       1.291   9.832  19.341  0.00  0.00    +0.000 A 
ATOM     25  C   UNL     1       1.225   8.902  20.379  0.00  0.00    +0.000 A 
ATOM     26  C   UNL     1       1.736   7.608  20.207  0.00  0.00    +0.000 A 
ATOM     27  C   UNL     1       2.341   7.194  19.002  0.00  0.00    +0.000 A 
ATOM     28  C   UNL     1       2.322   8.134  17.954  0.00  0.00    +0.000 A 
ATOM     29  C   UNL     1       1.792   9.417  18.108  0.00  0.00    +0.000 A 
BRANCH  27  30
ATOM     30  C   UNL     1       2.976   5.765  18.812  0.00  0.00    +0.000 C 
ATOM     31  C   UNL     1       3.696   5.387  17.481  0.00  0.00    +0.000 C 
ATOM     32  C   UNL     1       5.031   5.647  18.208  0.00  0.00    +0.000 C 
ATOM     33  C   UNL     1       4.294   5.363  19.533  0.00  0.00    +0.000 C 
BRANCH  30  34
ATOM     34  N   UNL     1       1.979   4.733  19.092  0.00  0.00    +0.000 NA
ATOM     35  H   UNL     1       2.115   4.295  20.003  0.00  0.00    +0.000 HD
ATOM     36  H   UNL     1       2.016   3.961  18.426  0.00  0.00    +0.000 HD
ENDBRANCH  30  34
ENDBRANCH  27  30
ENDBRANCH   7  24
TORSDOF 5
ENDMDL
