MODEL 1
REMARK VINA RESULT:      -7.8      0.000      0.000
REMARK  Name = 
REMARK  3 active torsions:
REMARK  status: ('A' for Active; 'I' for Inactive)
REMARK    1  A    between atoms: C_2  and  C_15
REMARK    2  A    between atoms: C_7  and  C_8
REMARK    3  A    between atoms: C_17  and  C_18
REMARK                            x       y       z     vdW  Elec       q    Type
REMARK                         _______ _______ _______ _____ _____    ______ ____
ROOT
ATOM      1  O   UNL     1       3.849   4.915  18.008  0.00  0.00    +0.000 OA
ATOM      2  C   UNL     1       4.043   6.001  17.483  0.00  0.00    +0.000 C 
ATOM      3  N   UNL     1       3.531   7.224  17.871  0.00  0.00    +0.000 N 
ATOM      4  C   UNL     1       2.712   7.317  18.971  0.00  0.00    +0.000 A 
ATOM      5  N   UNL     1       2.321   6.372  19.795  0.00  0.00    +0.000 NA
ATOM      6  N   UNL     1       1.486   6.925  20.732  0.00  0.00    +0.000 NA
ATOM      7  C   UNL     1       1.368   8.210  20.467  0.00  0.00    +0.000 A 
ATOM      8  N   UNL     1       2.152   8.497  19.377  0.00  0.00    +0.000 N 
ATOM      9  H   UNL     1       3.768   8.055  17.353  0.00  0.00    +0.000 HD
ATOM     10  H   UNL     1       2.240   9.412  18.966  0.00  0.00    +0.000 HD
ENDROOT
BRANCH   7  11
ATOM     11  C   UNL     1       0.544   9.188  21.156  0.00  0.00    +0.000 A 
ATOM     12  C   UNL     1       0.228   9.035  22.502  0.00  0.00    +0.000 A 
ATOM     13  C   UNL     1      -0.591   9.981  23.105  0.00  0.00    +0.000 A 
ATOM     14  C   UNL     1      -1.060  11.050  22.349  0.00  0.00    +0.000 A 
ATOM     15  C   UNL     1      -0.689  11.127  21.015  0.00  0.00    +0.000 A 
ATOM     16  N   UNL     1       0.102  10.220  20.392  0.00  0.00    +0.000 NA
ENDBRANCH   7  11
BRANCH   2  17
ATOM     17  C   UNL     1       4.960   6.085  16.303  0.00  0.00    +0.000 C 
ATOM     18  C   UNL     1       6.443   6.114  16.571  0.00  0.00    +0.000 C 
ATOM     19  C   UNL     1       5.825   4.892  15.922  0.00  0.00    +0.000 C 
BRANCH  19  20
ATOM     20  C   UNL     1       6.217   4.601  14.491  0.00  0.00    +0.000 A 
ATOM     21  C   UNL     1       5.461   3.692  13.728  0.00  0.00    +0.000 A 
ATOM     22  C   UNL     1       5.831   3.340  12.428  0.00  0.00    +0.000 A 
ATOM     23  C   UNL     1       6.962   3.908  11.853  0.00  0.00    +0.000 A 
ATOM     24  C   UNL     1       7.699   4.851  12.566  0.00  0.00    +0.000 A 
ATOM     25  C   UNL     1       7.322   5.201  13.867  0.00  0.00    +0.000 A 
ENDBRANCH  19  20
ENDBRANCH   2  17
TORSDOF 3
ENDMDL
MODEL 2
REMARK VINA RESULT:      -7.8      5.817      7.750
REMARK  Name = 
REMARK  3 active torsions:
REMARK  status: ('A' for Active; 'I' for Inactive)
REMARK    1  A    between atoms: C_2  and  C_15
REMARK    2  A    between atoms: C_7  and  C_8
REMARK    3  A    between atoms: C_17  and  C_18
REMARK                            x       y       z     vdW  Elec       q    Type
REMARK                         _______ _______ _______ _____ _____    ______ ____
ROOT
ATOM      1  O   UNL     1       8.431   6.915  18.926  0.00  0.00    +0.000 OA
ATOM      2  C   UNL     1       7.624   7.298  18.093  0.00  0.00    +0.000 C 
ATOM      3  N   UNL     1       7.482   8.576  17.587  0.00  0.00    +0.000 N 
ATOM      4  C   UNL     1       8.313   9.586  18.010  0.00  0.00    +0.000 A 
ATOM      5  N   UNL     1       9.312   9.535  18.860  0.00  0.00    +0.000 NA
ATOM      6  N   UNL     1       9.838  10.795  18.994  0.00  0.00    +0.000 NA
ATOM      7  C   UNL     1       9.146  11.610  18.225  0.00  0.00    +0.000 A 
ATOM      8  N   UNL     1       8.192  10.875  17.567  0.00  0.00    +0.000 N 
ATOM      9  H   UNL     1       6.774   8.768  16.897  0.00  0.00    +0.000 HD
ATOM     10  H   UNL     1       7.527  11.259  16.916  0.00  0.00    +0.000 HD
ENDROOT
BRANCH   7  11
ATOM     11  C   UNL     1       9.304  13.048  18.084  0.00  0.00    +0.000 A 
ATOM     12  C   UNL     1       8.227  13.908  18.276  0.00  0.00    +0.000 A 
ATOM     13  C   UNL     1       8.423  15.271  18.095  0.00  0.00    +0.000 A 
ATOM     14  C   UNL     1       9.686  15.731  17.738  0.00  0.00    +0.000 A 
ATOM     15  C   UNL     1      10.704  14.803  17.574  0.00  0.00    +0.000 A 
ATOM     16  N   UNL     1      10.548  13.467  17.735  0.00  0.00    +0.000 NA
ENDBRANCH   7  11
BRANCH   2  17
ATOM     17  C   UNL     1       6.679   6.308  17.486  0.00  0.00    +0.000 C 
ATOM     18  C   UNL     1       7.077   4.854  17.513  0.00  0.00    +0.000 C 
ATOM     19  C   UNL     1       5.924   5.329  18.374  0.00  0.00    +0.000 C 
BRANCH  19  20
ATOM     20  C   UNL     1       4.546   4.816  18.023  0.00  0.00    +0.000 A 
ATOM     21  C   UNL     1       3.420   5.634  18.227  0.00  0.00    +0.000 A 
ATOM     22  C   UNL     1       2.124   5.172  17.984  0.00  0.00    +0.000 A 
ATOM     23  C   UNL     1       1.928   3.879  17.513  0.00  0.00    +0.000 A 
ATOM     24  C   UNL     1       3.027   3.065  17.252  0.00  0.00    +0.000 A 
ATOM     25  C   UNL     1       4.323   3.535  17.495  0.00  0.00    +0.000 A 
ENDBRANCH  19  20
ENDBRANCH   2  17
TORSDOF 3
ENDMDL
MODEL 3
REMARK VINA RESULT:      -7.8      5.840      7.811
REMARK  Name = 
REMARK  3 active torsions:
REMARK  status: ('A' for Active; 'I' for Inactive)
REMARK    1  A    between atoms: C_2  and  C_15
REMARK    2  A    between atoms: C_7  and  C_8
REMARK    3  A    between atoms: C_17  and  C_18
REMARK                            x       y       z     vdW  Elec       q    Type
REMARK                         _______ _______ _______ _____ _____    ______ ____
ROOT
ATOM      1  O   UNL     1       8.512   7.030  19.011  0.00  0.00    +0.000 OA
ATOM      2  C   UNL     1       7.711   7.402  18.168  0.00  0.00    +0.000 C 
ATOM      3  N   UNL     1       7.572   8.674  17.644  0.00  0.00    +0.000 N 
ATOM      4  C   UNL     1       8.399   9.690  18.060  0.00  0.00    +0.000 A 
ATOM      5  N   UNL     1       9.392   9.650  18.918  0.00  0.00    +0.000 NA
ATOM      6  N   UNL     1       9.916  10.912  19.040  0.00  0.00    +0.000 NA
ATOM      7  C   UNL     1       9.230  11.717  18.255  0.00  0.00    +0.000 A 
ATOM      8  N   UNL     1       8.281  10.972  17.599  0.00  0.00    +0.000 N 
ATOM      9  H   UNL     1       6.868   8.856  16.946  0.00  0.00    +0.000 HD
ATOM     10  H   UNL     1       7.620  11.348  16.938  0.00  0.00    +0.000 HD
ENDROOT
BRANCH   7  11
ATOM     11  C   UNL     1       9.388  13.153  18.096  0.00  0.00    +0.000 A 
ATOM     12  C   UNL     1      10.551  13.688  17.552  0.00  0.00    +0.000 A 
ATOM     13  C   UNL     1      10.666  15.069  17.454  0.00  0.00    +0.000 A 
ATOM     14  C   UNL     1       9.616  15.868  17.892  0.00  0.00    +0.000 A 
ATOM     15  C   UNL     1       8.491  15.249  18.415  0.00  0.00    +0.000 A 
ATOM     16  N   UNL     1       8.346  13.907  18.533  0.00  0.00    +0.000 NA
ENDBRANCH   7  11
BRANCH   2  17
ATOM     17  C   UNL     1       6.771   6.404  17.566  0.00  0.00    +0.000 C 
ATOM     18  C   UNL     1       7.137   4.946  17.675  0.00  0.00    +0.000 C 
ATOM     19  C   UNL     1       5.960   5.481  18.465  0.00  0.00    +0.000 C 
BRANCH  19  20
ATOM     20  C   UNL     1       4.587   4.979  18.080  0.00  0.00    +0.000 A 
ATOM     21  C   UNL     1       3.450   5.760  18.358  0.00  0.00    +0.000 A 
ATOM     22  C   UNL     1       2.160   5.301  18.086  0.00  0.00    +0.000 A 
ATOM     23  C   UNL     1       1.978   4.050  17.508  0.00  0.00    +0.000 A 
ATOM     24  C   UNL     1       3.088   3.277  17.173  0.00  0.00    +0.000 A 
ATOM     25  C   UNL     1       4.378   3.743  17.447  0.00  0.00    +0.000 A 
ENDBRANCH  19  20
ENDBRANCH   2  17
TORSDOF 3
ENDMDL
MODEL 4
REMARK VINA RESULT:      -7.8      2.181      3.958
REMARK  Name = 
REMARK  3 active torsions:
REMARK  status: ('A' for Active; 'I' for Inactive)
REMARK    1  A    between atoms: C_2  and  C_15
REMARK    2  A    between atoms: C_7  and  C_8
REMARK    3  A    between atoms: C_17  and  C_18
REMARK                            x       y       z     vdW  Elec       q    Type
REMARK                         _______ _______ _______ _____ _____    ______ ____
ROOT
ATOM      1  O   UNL     1       1.923   6.984  20.947  0.00  0.00    +0.000 OA
ATOM      2  C   UNL     1       1.662   7.684  19.981  0.00  0.00    +0.000 C 
ATOM      3  N   UNL     1       1.010   8.903  19.979  0.00  0.00    +0.000 N 
ATOM      4  C   UNL     1       0.586   9.465  21.159  0.00  0.00    +0.000 A 
ATOM      5  N   UNL     1       0.726   9.019  22.386  0.00  0.00    +0.000 NA
ATOM      6  N   UNL     1       0.120   9.902  23.245  0.00  0.00    +0.000 NA
ATOM      7  C   UNL     1      -0.394  10.880  22.528  0.00  0.00    +0.000 A 
ATOM      8  N   UNL     1      -0.094  10.651  21.209  0.00  0.00    +0.000 N 
ATOM      9  H   UNL     1       0.854   9.388  19.110  0.00  0.00    +0.000 HD
ATOM     10  H   UNL     1      -0.373  11.252  20.450  0.00  0.00    +0.000 HD
ENDROOT
BRANCH   7  11
ATOM     11  C   UNL     1      -1.175  12.012  22.999  0.00  0.00    +0.000 A 
ATOM     12  C   UNL     1      -2.534  11.880  23.267  0.00  0.00    +0.000 A 
ATOM     13  C   UNL     1      -3.242  13.001  23.682  0.00  0.00    +0.000 A 
ATOM     14  C   UNL     1      -2.571  14.210  23.825  0.00  0.00    +0.000 A 
ATOM     15  C   UNL     1      -1.213  14.248  23.543  0.00  0.00    +0.000 A 
ATOM     16  N   UNL     1      -0.492  13.178  23.130  0.00  0.00    +0.000 NA
ENDBRANCH   7  11
BRANCH   2  17
ATOM     17  C   UNL     1       2.107   7.243  18.621  0.00  0.00    +0.000 C 
ATOM     18  C   UNL     1       2.674   8.289  17.697  0.00  0.00    +0.000 C 
ATOM     19  C   UNL     1       3.587   7.225  18.270  0.00  0.00    +0.000 C 
BRANCH  19  20
ATOM     20  C   UNL     1       4.177   6.228  17.299  0.00  0.00    +0.000 A 
ATOM     21  C   UNL     1       3.943   4.852  17.478  0.00  0.00    +0.000 A 
ATOM     22  C   UNL     1       4.528   3.894  16.647  0.00  0.00    +0.000 A 
ATOM     23  C   UNL     1       5.352   4.296  15.601  0.00  0.00    +0.000 A 
ATOM     24  C   UNL     1       5.558   5.654  15.369  0.00  0.00    +0.000 A 
ATOM     25  C   UNL     1       4.967   6.609  16.204  0.00  0.00    +0.000 A 
ENDBRANCH  19  20
ENDBRANCH   2  17
TORSDOF 3
ENDMDL
MODEL 5
REMARK VINA RESULT:      -7.7      1.879      2.357
REMARK  Name = 
REMARK  3 active torsions:
REMARK  status: ('A' for Active; 'I' for Inactive)
REMARK    1  A    between atoms: C_2  and  C_15
REMARK    2  A    between atoms: C_7  and  C_8
REMARK    3  A    between atoms: C_17  and  C_18
REMARK                            x       y       z     vdW  Elec       q    Type
REMARK                         _______ _______ _______ _____ _____    ______ ____
ROOT
ATOM      1  O   UNL     1       4.401   5.529  18.607  0.00  0.00    +0.000 OA
ATOM      2  C   UNL     1       4.583   6.178  17.589  0.00  0.00    +0.000 C 
ATOM      3  N   UNL     1       3.926   7.329  17.198  0.00  0.00    +0.000 N 
ATOM      4  C   UNL     1       2.949   7.876  17.996  0.00  0.00    +0.000 A 
ATOM      5  N   UNL     1       2.518   7.474  19.169  0.00  0.00    +0.000 NA
ATOM      6  N   UNL     1       1.513   8.315  19.578  0.00  0.00    +0.000 NA
ATOM      7  C   UNL     1       1.335   9.223  18.641  0.00  0.00    +0.000 A 
ATOM      8  N   UNL     1       2.244   8.993  17.639  0.00  0.00    +0.000 N 
ATOM      9  H   UNL     1       4.169   7.777  16.329  0.00  0.00    +0.000 HD
ATOM     10  H   UNL     1       2.320   9.546  16.801  0.00  0.00    +0.000 HD
ENDROOT
BRANCH   7  11
ATOM     11  C   UNL     1       0.344  10.286  18.610  0.00  0.00    +0.000 A 
ATOM     12  C   UNL     1      -0.879  10.105  17.972  0.00  0.00    +0.000 A 
ATOM     13  C   UNL     1      -1.777  11.163  17.942  0.00  0.00    +0.000 A 
ATOM     14  C   UNL     1      -1.431  12.362  18.555  0.00  0.00    +0.000 A 
ATOM     15  C   UNL     1      -0.193  12.452  19.173  0.00  0.00    +0.000 A 
ATOM     16  N   UNL     1       0.711  11.444  19.217  0.00  0.00    +0.000 NA
ENDBRANCH   7  11
BRANCH   2  17
ATOM     17  C   UNL     1       5.654   5.750  16.634  0.00  0.00    +0.000 C 
ATOM     18  C   UNL     1       6.430   4.502  16.968  0.00  0.00    +0.000 C 
ATOM     19  C   UNL     1       5.472   4.494  15.795  0.00  0.00    +0.000 C 
BRANCH  19  20
ATOM     20  C   UNL     1       6.074   4.348  14.415  0.00  0.00    +0.000 A 
ATOM     21  C   UNL     1       7.233   5.070  14.076  0.00  0.00    +0.000 A 
ATOM     22  C   UNL     1       7.778   5.019  12.792  0.00  0.00    +0.000 A 
ATOM     23  C   UNL     1       7.182   4.227  11.817  0.00  0.00    +0.000 A 
ATOM     24  C   UNL     1       6.064   3.461  12.140  0.00  0.00    +0.000 A 
ATOM     25  C   UNL     1       5.524   3.514  13.430  0.00  0.00    +0.000 A 
ENDBRANCH  19  20
ENDBRANCH   2  17
TORSDOF 3
ENDMDL
MODEL 6
REMARK VINA RESULT:      -7.7      0.584      1.005
REMARK  Name = 
REMARK  3 active torsions:
REMARK  status: ('A' for Active; 'I' for Inactive)
REMARK    1  A    between atoms: C_2  and  C_15
REMARK    2  A    between atoms: C_7  and  C_8
REMARK    3  A    between atoms: C_17  and  C_18
REMARK                            x       y       z     vdW  Elec       q    Type
REMARK                         _______ _______ _______ _____ _____    ______ ____
ROOT
ATOM      1  O   UNL     1       3.947   4.881  17.986  0.00  0.00    +0.000 OA
ATOM      2  C   UNL     1       4.126   5.964  17.451  0.00  0.00    +0.000 C 
ATOM      3  N   UNL     1       3.593   7.183  17.825  0.00  0.00    +0.000 N 
ATOM      4  C   UNL     1       2.767   7.273  18.920  0.00  0.00    +0.000 A 
ATOM      5  N   UNL     1       2.387   6.330  19.751  0.00  0.00    +0.000 NA
ATOM      6  N   UNL     1       1.539   6.879  20.679  0.00  0.00    +0.000 NA
ATOM      7  C   UNL     1       1.402   8.159  20.400  0.00  0.00    +0.000 A 
ATOM      8  N   UNL     1       2.187   8.448  19.312  0.00  0.00    +0.000 N 
ATOM      9  H   UNL     1       3.819   8.013  17.300  0.00  0.00    +0.000 HD
ATOM     10  H   UNL     1       2.263   9.361  18.892  0.00  0.00    +0.000 HD
ENDROOT
BRANCH   7  11
ATOM     11  C   UNL     1       0.560   9.131  21.076  0.00  0.00    +0.000 A 
ATOM     12  C   UNL     1      -0.038  10.171  20.371  0.00  0.00    +0.000 A 
ATOM     13  C   UNL     1      -0.807  11.094  21.070  0.00  0.00    +0.000 A 
ATOM     14  C   UNL     1      -0.960  10.943  22.444  0.00  0.00    +0.000 A 
ATOM     15  C   UNL     1      -0.334   9.872  23.064  0.00  0.00    +0.000 A 
ATOM     16  N   UNL     1       0.428   8.958  22.416  0.00  0.00    +0.000 NA
ENDBRANCH   7  11
BRANCH   2  17
ATOM     17  C   UNL     1       5.048   6.051  16.275  0.00  0.00    +0.000 C 
ATOM     18  C   UNL     1       6.530   6.023  16.545  0.00  0.00    +0.000 C 
ATOM     19  C   UNL     1       5.873   4.842  15.860  0.00  0.00    +0.000 C 
BRANCH  19  20
ATOM     20  C   UNL     1       6.258   4.579  14.422  0.00  0.00    +0.000 A 
ATOM     21  C   UNL     1       5.516   3.662  13.654  0.00  0.00    +0.000 A 
ATOM     22  C   UNL     1       5.882   3.337  12.346  0.00  0.00    +0.000 A 
ATOM     23  C   UNL     1       6.993   3.939  11.768  0.00  0.00    +0.000 A 
ATOM     24  C   UNL     1       7.714   4.890  12.487  0.00  0.00    +0.000 A 
ATOM     25  C   UNL     1       7.342   5.213  13.796  0.00  0.00    +0.000 A 
ENDBRANCH  19  20
ENDBRANCH   2  17
TORSDOF 3
ENDMDL
MODEL 7
REMARK VINA RESULT:      -7.7      5.823      7.785
REMARK  Name = 
REMARK  3 active torsions:
REMARK  status: ('A' for Active; 'I' for Inactive)
REMARK    1  A    between atoms: C_2  and  C_15
REMARK    2  A    between atoms: C_7  and  C_8
REMARK    3  A    between atoms: C_17  and  C_18
REMARK                            x       y       z     vdW  Elec       q    Type
REMARK                         _______ _______ _______ _____ _____    ______ ____
ROOT
ATOM      1  O   UNL     1       8.514   7.029  19.011  0.00  0.00    +0.000 OA
ATOM      2  C   UNL     1       7.682   7.393  18.195  0.00  0.00    +0.000 C 
ATOM      3  N   UNL     1       7.520   8.660  17.668  0.00  0.00    +0.000 N 
ATOM      4  C   UNL     1       8.358   9.682  18.048  0.00  0.00    +0.000 A 
ATOM      5  N   UNL     1       9.380   9.652  18.870  0.00  0.00    +0.000 NA
ATOM      6  N   UNL     1       9.904  10.917  18.965  0.00  0.00    +0.000 NA
ATOM      7  C   UNL     1       9.186  11.714  18.200  0.00  0.00    +0.000 A 
ATOM      8  N   UNL     1       8.218  10.961  17.583  0.00  0.00    +0.000 N 
ATOM      9  H   UNL     1       6.791   8.835  16.995  0.00  0.00    +0.000 HD
ATOM     10  H   UNL     1       7.533  11.330  16.944  0.00  0.00    +0.000 HD
ENDROOT
BRANCH   7  11
ATOM     11  C   UNL     1       9.333  13.149  18.026  0.00  0.00    +0.000 A 
ATOM     12  C   UNL     1      10.544  13.699  17.619  0.00  0.00    +0.000 A 
ATOM     13  C   UNL     1      10.642  15.080  17.501  0.00  0.00    +0.000 A 
ATOM     14  C   UNL     1       9.529  15.863  17.785  0.00  0.00    +0.000 A 
ATOM     15  C   UNL     1       8.359  15.229  18.178  0.00  0.00    +0.000 A 
ATOM     16  N   UNL     1       8.230  13.887  18.310  0.00  0.00    +0.000 NA
ENDBRANCH   7  11
BRANCH   2  17
ATOM     17  C   UNL     1       6.726   6.387  17.634  0.00  0.00    +0.000 C 
ATOM     18  C   UNL     1       7.109   4.932  17.723  0.00  0.00    +0.000 C 
ATOM     19  C   UNL     1       5.963   5.455  18.565  0.00  0.00    +0.000 C 
BRANCH  19  20
ATOM     20  C   UNL     1       4.579   4.941  18.240  0.00  0.00    +0.000 A 
ATOM     21  C   UNL     1       4.417   3.645  17.718  0.00  0.00    +0.000 A 
ATOM     22  C   UNL     1       3.165   3.159  17.337  0.00  0.00    +0.000 A 
ATOM     23  C   UNL     1       2.037   3.958  17.487  0.00  0.00    +0.000 A 
ATOM     24  C   UNL     1       2.161   5.226  18.051  0.00  0.00    +0.000 A 
ATOM     25  C   UNL     1       3.419   5.706  18.433  0.00  0.00    +0.000 A 
ENDBRANCH  19  20
ENDBRANCH   2  17
TORSDOF 3
ENDMDL
MODEL 8
REMARK VINA RESULT:      -7.7      1.953      3.416
REMARK  Name = 
REMARK  3 active torsions:
REMARK  status: ('A' for Active; 'I' for Inactive)
REMARK    1  A    between atoms: C_2  and  C_15
REMARK    2  A    between atoms: C_7  and  C_8
REMARK    3  A    between atoms: C_17  and  C_18
REMARK                            x       y       z     vdW  Elec       q    Type
REMARK                         _______ _______ _______ _____ _____    ______ ____
ROOT
ATOM      1  O   UNL     1       1.072   5.394  20.755  0.00  0.00    +0.000 OA
ATOM      2  C   UNL     1       1.977   6.083  20.311  0.00  0.00    +0.000 C 
ATOM      3  N   UNL     1       2.115   7.454  20.412  0.00  0.00    +0.000 N 
ATOM      4  C   UNL     1       1.175   8.200  21.083  0.00  0.00    +0.000 A 
ATOM      5  N   UNL     1       0.097   7.797  21.715  0.00  0.00    +0.000 NA
ATOM      6  N   UNL     1      -0.555   8.897  22.213  0.00  0.00    +0.000 NA
ATOM      7  C   UNL     1       0.132   9.968  21.872  0.00  0.00    +0.000 A 
ATOM      8  N   UNL     1       1.247   9.562  21.181  0.00  0.00    +0.000 N 
ATOM      9  H   UNL     1       2.914   7.911  20.001  0.00  0.00    +0.000 HD
ATOM     10  H   UNL     1       1.942  10.187  20.806  0.00  0.00    +0.000 HD
ENDROOT
BRANCH   7  11
ATOM     11  C   UNL     1      -0.201  11.358  22.132  0.00  0.00    +0.000 A 
ATOM     12  C   UNL     1      -1.271  11.695  22.954  0.00  0.00    +0.000 A 
ATOM     13  C   UNL     1      -1.569  13.039  23.143  0.00  0.00    +0.000 A 
ATOM     14  C   UNL     1      -0.786  14.000  22.512  0.00  0.00    +0.000 A 
ATOM     15  C   UNL     1       0.265  13.574  21.714  0.00  0.00    +0.000 A 
ATOM     16  N   UNL     1       0.581  12.273  21.503  0.00  0.00    +0.000 NA
ENDBRANCH   7  11
BRANCH   2  17
ATOM     17  C   UNL     1       3.115   5.419  19.599  0.00  0.00    +0.000 C 
ATOM     18  C   UNL     1       2.974   3.956  19.268  0.00  0.00    +0.000 C 
ATOM     19  C   UNL     1       2.958   4.979  18.151  0.00  0.00    +0.000 C 
BRANCH  19  20
ATOM     20  C   UNL     1       4.117   4.958  17.181  0.00  0.00    +0.000 A 
ATOM     21  C   UNL     1       4.620   6.166  16.663  0.00  0.00    +0.000 A 
ATOM     22  C   UNL     1       5.641   6.186  15.711  0.00  0.00    +0.000 A 
ATOM     23  C   UNL     1       6.196   4.992  15.266  0.00  0.00    +0.000 A 
ATOM     24  C   UNL     1       5.754   3.784  15.800  0.00  0.00    +0.000 A 
ATOM     25  C   UNL     1       4.732   3.770  16.757  0.00  0.00    +0.000 A 
ENDBRANCH  19  20
ENDBRANCH   2  17
TORSDOF 3
ENDMDL
MODEL 9
REMARK VINA RESULT:      -7.7      1.497      1.977
REMARK  Name = 
REMARK  3 active torsions:
REMARK  status: ('A' for Active; 'I' for Inactive)
REMARK    1  A    between atoms: C_2  and  C_15
REMARK    2  A    between atoms: C_7  and  C_8
REMARK    3  A    between atoms: C_17  and  C_18
REMARK                            x       y       z     vdW  Elec       q    Type
REMARK                         _______ _______ _______ _____ _____    ______ ____
ROOT
ATOM      1  O   UNL     1       4.632   5.582  18.767  0.00  0.00    +0.000 OA
ATOM      2  C   UNL     1       4.677   6.199  17.714  0.00  0.00    +0.000 C 
ATOM      3  N   UNL     1       3.888   7.267  17.332  0.00  0.00    +0.000 N 
ATOM      4  C   UNL     1       2.925   7.758  18.182  0.00  0.00    +0.000 A 
ATOM      5  N   UNL     1       2.621   7.372  19.400  0.00  0.00    +0.000 NA
ATOM      6  N   UNL     1       1.575   8.135  19.852  0.00  0.00    +0.000 NA
ATOM      7  C   UNL     1       1.243   8.981  18.899  0.00  0.00    +0.000 A 
ATOM      8  N   UNL     1       2.095   8.789  17.839  0.00  0.00    +0.000 N 
ATOM      9  H   UNL     1       4.024   7.695  16.431  0.00  0.00    +0.000 HD
ATOM     10  H   UNL     1       2.056   9.309  16.977  0.00  0.00    +0.000 HD
ENDROOT
BRANCH   7  11
ATOM     11  C   UNL     1       0.158   9.946  18.904  0.00  0.00    +0.000 A 
ATOM     12  C   UNL     1      -0.688  10.077  17.807  0.00  0.00    +0.000 A 
ATOM     13  C   UNL     1      -1.689  11.040  17.850  0.00  0.00    +0.000 A 
ATOM     14  C   UNL     1      -1.818  11.831  18.985  0.00  0.00    +0.000 A 
ATOM     15  C   UNL     1      -0.935  11.628  20.035  0.00  0.00    +0.000 A 
ATOM     16  N   UNL     1       0.057  10.704  20.026  0.00  0.00    +0.000 NA
ENDBRANCH   7  11
BRANCH   2  17
ATOM     17  C   UNL     1       5.711   5.827  16.697  0.00  0.00    +0.000 C 
ATOM     18  C   UNL     1       6.580   4.631  16.988  0.00  0.00    +0.000 C 
ATOM     19  C   UNL     1       5.553   4.555  15.877  0.00  0.00    +0.000 C 
BRANCH  19  20
ATOM     20  C   UNL     1       6.076   4.433  14.464  0.00  0.00    +0.000 A 
ATOM     21  C   UNL     1       5.417   3.600  13.541  0.00  0.00    +0.000 A 
ATOM     22  C   UNL     1       5.908   3.404  12.249  0.00  0.00    +0.000 A 
ATOM     23  C   UNL     1       7.068   4.054  11.844  0.00  0.00    +0.000 A 
ATOM     24  C   UNL     1       7.712   4.925  12.719  0.00  0.00    +0.000 A 
ATOM     25  C   UNL     1       7.213   5.120  14.011  0.00  0.00    +0.000 A 
ENDBRANCH  19  20
ENDBRANCH   2  17
TORSDOF 3
ENDMDL
