MODEL 1
REMARK VINA RESULT:      -8.4      0.000      0.000
REMARK  Name = 
REMARK  5 active torsions:
REMARK  status: ('A' for Active; 'I' for Inactive)
REMARK    1  A    between atoms: O_1  and  C_2
REMARK    2  A    between atoms: C_8  and  S_9
REMARK    3  A    between atoms: S_9  and  C_10
REMARK    4  A    between atoms: C_10  and  C_11
REMARK    5  A    between atoms: C_19  and  C_20
REMARK                            x       y       z     vdW  Elec       q    Type
REMARK                         _______ _______ _______ _____ _____    ______ ____
ROOT
ATOM      1  C   UNL     1       1.450   8.143  20.468  0.00  0.00    +0.000 C 
ATOM      2  C   UNL     1       2.269   7.587  19.552  0.00  0.00    +0.000 C 
ATOM      3  C   UNL     1       2.407   8.249  18.214  0.00  0.00    +0.000 C 
ATOM      4  N   UNL     1       3.226   7.878  17.278  0.00  0.00    +0.000 NA
ATOM      5  C   UNL     1       4.052   6.833  17.501  0.00  0.00    +0.000 A 
ATOM      6  N   UNL     1       5.022   6.366  16.745  0.00  0.00    +0.000 NA
ATOM      7  C   UNL     1       5.561   5.342  17.474  0.00  0.00    +0.000 A 
ATOM      8  N   UNL     1       4.980   5.136  18.664  0.00  0.00    +0.000 NA
ATOM      9  N   UNL     1       4.015   6.080  18.641  0.00  0.00    +0.000 N 
ATOM     10  C   UNL     1       3.108   6.333  19.755  0.00  0.00    +0.000 C 
ATOM     11  C   UNL     1       1.596   9.497  17.900  0.00  0.00    +0.000 C 
ATOM     12  C   UNL     1       0.410   9.768  18.802  0.00  0.00    +0.000 C 
ATOM     13  C   UNL     1       0.615   9.371  20.253  0.00  0.00    +0.000 C 
ENDROOT
BRANCH  10  14
ATOM     14  C   UNL     1       2.252   5.105  20.009  0.00  0.00    +0.000 A 
ATOM     15  C   UNL     1       2.055   4.415  21.189  0.00  0.00    +0.000 A 
ATOM     16  C   UNL     1       1.334   3.202  20.995  0.00  0.00    +0.000 A 
ATOM     17  C   UNL     1       0.979   3.017  19.680  0.00  0.00    +0.000 A 
ATOM     18  S   UNL     1       1.472   4.321  18.693  0.00  0.00    +0.000 S 
ENDBRANCH  10  14
BRANCH   1  19
ATOM     19  O   UNL     1       1.268   7.629  21.738  0.00  0.00    +0.000 OA
ATOM     20  H   UNL     1       1.163   6.662  21.736  0.00  0.00    +0.000 HD
ENDBRANCH   1  19
BRANCH   7  21
ATOM     21  S   UNL     1       6.949   4.449  16.910  0.00  0.00    +0.000 S 
BRANCH  21  22
ATOM     22  C   UNL     1       7.437   5.417  15.459  0.00  0.00    +0.000 C 
BRANCH  22  23
ATOM     23  C   UNL     1       7.004   4.762  14.164  0.00  0.00    +0.000 A 
ATOM     24  C   UNL     1       5.889   3.911  14.127  0.00  0.00    +0.000 A 
ATOM     25  C   UNL     1       5.484   3.318  12.928  0.00  0.00    +0.000 A 
ATOM     26  C   UNL     1       6.193   3.562  11.753  0.00  0.00    +0.000 A 
ATOM     27  C   UNL     1       7.310   4.393  11.777  0.00  0.00    +0.000 A 
ATOM     28  C   UNL     1       7.716   4.991  12.975  0.00  0.00    +0.000 A 
ENDBRANCH  22  23
ENDBRANCH  21  22
ENDBRANCH   7  21
TORSDOF 5
ENDMDL
MODEL 2
REMARK VINA RESULT:      -8.4      0.421      1.052
REMARK  Name = 
REMARK  5 active torsions:
REMARK  status: ('A' for Active; 'I' for Inactive)
REMARK    1  A    between atoms: O_1  and  C_2
REMARK    2  A    between atoms: C_8  and  S_9
REMARK    3  A    between atoms: S_9  and  C_10
REMARK    4  A    between atoms: C_10  and  C_11
REMARK    5  A    between atoms: C_19  and  C_20
REMARK                            x       y       z     vdW  Elec       q    Type
REMARK                         _______ _______ _______ _____ _____    ______ ____
ROOT
ATOM      1  C   UNL     1       1.379   8.208  20.470  0.00  0.00    +0.000 C 
ATOM      2  C   UNL     1       2.196   7.682  19.533  0.00  0.00    +0.000 C 
ATOM      3  C   UNL     1       2.316   8.377  18.211  0.00  0.00    +0.000 C 
ATOM      4  N   UNL     1       3.131   8.037  17.260  0.00  0.00    +0.000 NA
ATOM      5  C   UNL     1       3.969   6.994  17.451  0.00  0.00    +0.000 A 
ATOM      6  N   UNL     1       4.936   6.554  16.676  0.00  0.00    +0.000 NA
ATOM      7  C   UNL     1       5.490   5.518  17.375  0.00  0.00    +0.000 A 
ATOM      8  N   UNL     1       4.921   5.278  18.565  0.00  0.00    +0.000 NA
ATOM      9  N   UNL     1       3.948   6.213  18.572  0.00  0.00    +0.000 N 
ATOM     10  C   UNL     1       3.048   6.431  19.699  0.00  0.00    +0.000 C 
ATOM     11  C   UNL     1       1.491   9.625  17.934  0.00  0.00    +0.000 C 
ATOM     12  C   UNL     1       0.311   9.863  18.852  0.00  0.00    +0.000 C 
ATOM     13  C   UNL     1       0.531   9.433  20.290  0.00  0.00    +0.000 C 
ENDROOT
BRANCH  10  14
ATOM     14  C   UNL     1       2.205   5.190  19.931  0.00  0.00    +0.000 A 
ATOM     15  C   UNL     1       1.961   4.515  21.111  0.00  0.00    +0.000 A 
ATOM     16  C   UNL     1       1.276   3.284  20.902  0.00  0.00    +0.000 A 
ATOM     17  C   UNL     1       0.994   3.070  19.574  0.00  0.00    +0.000 A 
ATOM     18  S   UNL     1       1.511   4.367  18.590  0.00  0.00    +0.000 S 
ENDBRANCH  10  14
BRANCH   1  19
ATOM     19  O   UNL     1       1.212   7.662  21.728  0.00  0.00    +0.000 OA
ATOM     20  H   UNL     1       1.860   8.003  22.369  0.00  0.00    +0.000 HD
ENDBRANCH   1  19
BRANCH   7  21
ATOM     21  S   UNL     1       6.882   4.652  16.778  0.00  0.00    +0.000 S 
BRANCH  21  22
ATOM     22  C   UNL     1       6.135   3.599  15.508  0.00  0.00    +0.000 C 
BRANCH  22  23
ATOM     23  C   UNL     1       6.563   3.999  14.112  0.00  0.00    +0.000 A 
ATOM     24  C   UNL     1       7.471   5.049  13.912  0.00  0.00    +0.000 A 
ATOM     25  C   UNL     1       7.873   5.408  12.623  0.00  0.00    +0.000 A 
ATOM     26  C   UNL     1       7.368   4.726  11.517  0.00  0.00    +0.000 A 
ATOM     27  C   UNL     1       6.455   3.691  11.699  0.00  0.00    +0.000 A 
ATOM     28  C   UNL     1       6.052   3.326  12.989  0.00  0.00    +0.000 A 
ENDBRANCH  22  23
ENDBRANCH  21  22
ENDBRANCH   7  21
TORSDOF 5
ENDMDL
MODEL 3
REMARK VINA RESULT:      -8.2      0.885      1.061
REMARK  Name = 
REMARK  5 active torsions:
REMARK  status: ('A' for Active; 'I' for Inactive)
REMARK    1  A    between atoms: O_1  and  C_2
REMARK    2  A    between atoms: C_8  and  S_9
REMARK    3  A    between atoms: S_9  and  C_10
REMARK    4  A    between atoms: C_10  and  C_11
REMARK    5  A    between atoms: C_19  and  C_20
REMARK                            x       y       z     vdW  Elec       q    Type
REMARK                         _______ _______ _______ _____ _____    ______ ____
ROOT
ATOM      1  C   UNL     1       1.880   7.677  20.213  0.00  0.00    +0.000 C 
ATOM      2  C   UNL     1       2.623   7.220  19.183  0.00  0.00    +0.000 C 
ATOM      3  C   UNL     1       2.732   8.058  17.946  0.00  0.00    +0.000 C 
ATOM      4  N   UNL     1       3.483   7.786  16.923  0.00  0.00    +0.000 NA
ATOM      5  C   UNL     1       4.262   6.682  16.952  0.00  0.00    +0.000 A 
ATOM      6  N   UNL     1       5.167   6.283  16.085  0.00  0.00    +0.000 NA
ATOM      7  C   UNL     1       5.684   5.142  16.633  0.00  0.00    +0.000 A 
ATOM      8  N   UNL     1       5.151   4.796  17.813  0.00  0.00    +0.000 NA
ATOM      9  N   UNL     1       4.239   5.777  17.975  0.00  0.00    +0.000 N 
ATOM     10  C   UNL     1       3.402   5.912  19.163  0.00  0.00    +0.000 C 
ATOM     11  C   UNL     1       1.975   9.375  17.855  0.00  0.00    +0.000 C 
ATOM     12  C   UNL     1       0.851   9.569  18.850  0.00  0.00    +0.000 C 
ATOM     13  C   UNL     1       1.103   8.961  20.218  0.00  0.00    +0.000 C 
ENDROOT
BRANCH  10  14
ATOM     14  C   UNL     1       2.494   4.701  19.290  0.00  0.00    +0.000 A 
ATOM     15  C   UNL     1       2.346   3.837  20.357  0.00  0.00    +0.000 A 
ATOM     16  C   UNL     1       1.539   2.708  20.035  0.00  0.00    +0.000 A 
ATOM     17  C   UNL     1       1.074   2.760  18.742  0.00  0.00    +0.000 A 
ATOM     18  S   UNL     1       1.569   4.182  17.937  0.00  0.00    +0.000 S 
ENDBRANCH  10  14
BRANCH   1  19
ATOM     19  O   UNL     1       1.732   6.997  21.407  0.00  0.00    +0.000 OA
ATOM     20  H   UNL     1       2.584   6.829  21.846  0.00  0.00    +0.000 HD
ENDBRANCH   1  19
BRANCH   7  21
ATOM     21  S   UNL     1       6.994   4.274  15.873  0.00  0.00    +0.000 S 
BRANCH  21  22
ATOM     22  C   UNL     1       7.000   5.007  14.217  0.00  0.00    +0.000 C 
BRANCH  22  23
ATOM     23  C   UNL     1       6.404   4.077  13.181  0.00  0.00    +0.000 A 
ATOM     24  C   UNL     1       5.017   4.017  12.982  0.00  0.00    +0.000 A 
ATOM     25  C   UNL     1       4.471   3.167  12.016  0.00  0.00    +0.000 A 
ATOM     26  C   UNL     1       5.305   2.363  11.240  0.00  0.00    +0.000 A 
ATOM     27  C   UNL     1       6.683   2.401  11.436  0.00  0.00    +0.000 A 
ATOM     28  C   UNL     1       7.233   3.253  12.400  0.00  0.00    +0.000 A 
ENDBRANCH  22  23
ENDBRANCH  21  22
ENDBRANCH   7  21
TORSDOF 5
ENDMDL
MODEL 4
REMARK VINA RESULT:      -8.1      1.254      1.742
REMARK  Name = 
REMARK  5 active torsions:
REMARK  status: ('A' for Active; 'I' for Inactive)
REMARK    1  A    between atoms: O_1  and  C_2
REMARK    2  A    between atoms: C_8  and  S_9
REMARK    3  A    between atoms: S_9  and  C_10
REMARK    4  A    between atoms: C_10  and  C_11
REMARK    5  A    between atoms: C_19  and  C_20
REMARK                            x       y       z     vdW  Elec       q    Type
REMARK                         _______ _______ _______ _____ _____    ______ ____
ROOT
ATOM      1  C   UNL     1       2.073   7.264  20.114  0.00  0.00    +0.000 C 
ATOM      2  C   UNL     1       2.824   6.945  19.040  0.00  0.00    +0.000 C 
ATOM      3  C   UNL     1       2.910   7.920  17.905  0.00  0.00    +0.000 C 
ATOM      4  N   UNL     1       3.665   7.785  16.859  0.00  0.00    +0.000 NA
ATOM      5  C   UNL     1       4.471   6.704  16.763  0.00  0.00    +0.000 A 
ATOM      6  N   UNL     1       5.384   6.428  15.857  0.00  0.00    +0.000 NA
ATOM      7  C   UNL     1       5.930   5.245  16.273  0.00  0.00    +0.000 A 
ATOM      8  N   UNL     1       5.409   4.755  17.406  0.00  0.00    +0.000 NA
ATOM      9  N   UNL     1       4.473   5.689  17.677  0.00  0.00    +0.000 N 
ATOM     10  C   UNL     1       3.635   5.667  18.871  0.00  0.00    +0.000 C 
ATOM     11  C   UNL     1       2.121   9.220  17.964  0.00  0.00    +0.000 C 
ATOM     12  C   UNL     1       0.994   9.273  18.974  0.00  0.00    +0.000 C 
ATOM     13  C   UNL     1       1.264   8.520  20.264  0.00  0.00    +0.000 C 
ENDROOT
BRANCH  10  14
ATOM     14  C   UNL     1       2.757   4.428  18.860  0.00  0.00    +0.000 A 
ATOM     15  C   UNL     1       1.631   4.171  18.104  0.00  0.00    +0.000 A 
ATOM     16  C   UNL     1       0.966   2.977  18.507  0.00  0.00    +0.000 A 
ATOM     17  C   UNL     1       1.620   2.347  19.539  0.00  0.00    +0.000 A 
ATOM     18  S   UNL     1       3.050   3.164  19.988  0.00  0.00    +0.000 S 
ENDBRANCH  10  14
BRANCH   1  19
ATOM     19  O   UNL     1       1.944   6.449  21.223  0.00  0.00    +0.000 OA
ATOM     20  H   UNL     1       2.750   6.434  21.767  0.00  0.00    +0.000 HD
ENDBRANCH   1  19
BRANCH   7  21
ATOM     21  S   UNL     1       7.259   4.502  15.420  0.00  0.00    +0.000 S 
BRANCH  21  22
ATOM     22  C   UNL     1       6.990   5.106  13.734  0.00  0.00    +0.000 C 
BRANCH  22  23
ATOM     23  C   UNL     1       6.440   4.029  12.824  0.00  0.00    +0.000 A 
ATOM     24  C   UNL     1       7.299   3.151  12.147  0.00  0.00    +0.000 A 
ATOM     25  C   UNL     1       6.788   2.149  11.318  0.00  0.00    +0.000 A 
ATOM     26  C   UNL     1       5.410   2.017  11.149  0.00  0.00    +0.000 A 
ATOM     27  C   UNL     1       4.545   2.890  11.803  0.00  0.00    +0.000 A 
ATOM     28  C   UNL     1       5.053   3.892  12.637  0.00  0.00    +0.000 A 
ENDBRANCH  22  23
ENDBRANCH  21  22
ENDBRANCH   7  21
TORSDOF 5
ENDMDL
MODEL 5
REMARK VINA RESULT:      -8.1      4.106      6.372
REMARK  Name = 
REMARK  5 active torsions:
REMARK  status: ('A' for Active; 'I' for Inactive)
REMARK    1  A    between atoms: O_1  and  C_2
REMARK    2  A    between atoms: C_8  and  S_9
REMARK    3  A    between atoms: S_9  and  C_10
REMARK    4  A    between atoms: C_10  and  C_11
REMARK    5  A    between atoms: C_19  and  C_20
REMARK                            x       y       z     vdW  Elec       q    Type
REMARK                         _______ _______ _______ _____ _____    ______ ____
ROOT
ATOM      1  C   UNL     1       2.121   3.835  18.084  0.00  0.00    +0.000 C 
ATOM      2  C   UNL     1       3.307   4.444  18.290  0.00  0.00    +0.000 C 
ATOM      3  C   UNL     1       4.321   3.768  19.163  0.00  0.00    +0.000 C 
ATOM      4  N   UNL     1       5.530   4.193  19.369  0.00  0.00    +0.000 NA
ATOM      5  C   UNL     1       5.950   5.315  18.745  0.00  0.00    +0.000 A 
ATOM      6  N   UNL     1       7.150   5.853  18.725  0.00  0.00    +0.000 NA
ATOM      7  C   UNL     1       7.024   6.939  17.903  0.00  0.00    +0.000 A 
ATOM      8  N   UNL     1       5.797   7.116  17.394  0.00  0.00    +0.000 NA
ATOM      9  N   UNL     1       5.136   6.086  17.964  0.00  0.00    +0.000 N 
ATOM     10  C   UNL     1       3.738   5.774  17.689  0.00  0.00    +0.000 C 
ATOM     11  C   UNL     1       3.983   2.444  19.830  0.00  0.00    +0.000 C 
ATOM     12  C   UNL     1       2.514   2.084  19.894  0.00  0.00    +0.000 C 
ATOM     13  C   UNL     1       1.699   2.530  18.694  0.00  0.00    +0.000 C 
ENDROOT
BRANCH  10  14
ATOM     14  C   UNL     1       2.856   6.923  18.146  0.00  0.00    +0.000 A 
ATOM     15  C   UNL     1       2.490   8.063  17.457  0.00  0.00    +0.000 A 
ATOM     16  C   UNL     1       1.808   9.001  18.283  0.00  0.00    +0.000 A 
ATOM     17  C   UNL     1       1.649   8.538  19.567  0.00  0.00    +0.000 A 
ATOM     18  S   UNL     1       2.278   6.962  19.765  0.00  0.00    +0.000 S 
ENDBRANCH  10  14
BRANCH   1  19
ATOM     19  O   UNL     1       1.126   4.357  17.280  0.00  0.00    +0.000 OA
ATOM     20  H   UNL     1       0.616   5.055  17.725  0.00  0.00    +0.000 HD
ENDBRANCH   1  19
BRANCH   7  21
ATOM     21  S   UNL     1       8.391   7.944  17.499  0.00  0.00    +0.000 S 
BRANCH  21  22
ATOM     22  C   UNL     1       7.850   9.557  18.119  0.00  0.00    +0.000 C 
BRANCH  22  23
ATOM     23  C   UNL     1       9.008  10.392  18.625  0.00  0.00    +0.000 A 
ATOM     24  C   UNL     1       9.234  10.549  20.000  0.00  0.00    +0.000 A 
ATOM     25  C   UNL     1      10.311  11.309  20.463  0.00  0.00    +0.000 A 
ATOM     26  C   UNL     1      11.172  11.926  19.558  0.00  0.00    +0.000 A 
ATOM     27  C   UNL     1      10.952  11.792  18.190  0.00  0.00    +0.000 A 
ATOM     28  C   UNL     1       9.877  11.029  17.722  0.00  0.00    +0.000 A 
ENDBRANCH  22  23
ENDBRANCH  21  22
ENDBRANCH   7  21
TORSDOF 5
ENDMDL
MODEL 6
REMARK VINA RESULT:      -8.0      4.212      6.478
REMARK  Name = 
REMARK  5 active torsions:
REMARK  status: ('A' for Active; 'I' for Inactive)
REMARK    1  A    between atoms: O_1  and  C_2
REMARK    2  A    between atoms: C_8  and  S_9
REMARK    3  A    between atoms: S_9  and  C_10
REMARK    4  A    between atoms: C_10  and  C_11
REMARK    5  A    between atoms: C_19  and  C_20
REMARK                            x       y       z     vdW  Elec       q    Type
REMARK                         _______ _______ _______ _____ _____    ______ ____
ROOT
ATOM      1  C   UNL     1       2.171   3.810  17.958  0.00  0.00    +0.000 C 
ATOM      2  C   UNL     1       3.332   4.468  18.158  0.00  0.00    +0.000 C 
ATOM      3  C   UNL     1       4.432   3.779  18.907  0.00  0.00    +0.000 C 
ATOM      4  N   UNL     1       5.625   4.256  19.088  0.00  0.00    +0.000 NA
ATOM      5  C   UNL     1       5.944   5.455  18.553  0.00  0.00    +0.000 A 
ATOM      6  N   UNL     1       7.108   6.065  18.520  0.00  0.00    +0.000 NA
ATOM      7  C   UNL     1       6.874   7.212  17.814  0.00  0.00    +0.000 A 
ATOM      8  N   UNL     1       5.611   7.360  17.390  0.00  0.00    +0.000 NA
ATOM      9  N   UNL     1       5.044   6.244  17.894  0.00  0.00    +0.000 N 
ATOM     10  C   UNL     1       3.651   5.873  17.665  0.00  0.00    +0.000 C 
ATOM     11  C   UNL     1       4.208   2.380  19.461  0.00  0.00    +0.000 C 
ATOM     12  C   UNL     1       2.768   1.926  19.569  0.00  0.00    +0.000 C 
ATOM     13  C   UNL     1       1.861   2.430  18.462  0.00  0.00    +0.000 C 
ENDROOT
BRANCH  10  14
ATOM     14  C   UNL     1       2.734   6.918  18.277  0.00  0.00    +0.000 A 
ATOM     15  C   UNL     1       2.220   8.063  17.701  0.00  0.00    +0.000 A 
ATOM     16  C   UNL     1       1.553   8.894  18.647  0.00  0.00    +0.000 A 
ATOM     17  C   UNL     1       1.554   8.344  19.907  0.00  0.00    +0.000 A 
ATOM     18  S   UNL     1       2.315   6.815  19.941  0.00  0.00    +0.000 S 
ENDBRANCH  10  14
BRANCH   1  19
ATOM     19  O   UNL     1       1.103   4.342  17.262  0.00  0.00    +0.000 OA
ATOM     20  H   UNL     1       1.208   4.256  16.299  0.00  0.00    +0.000 HD
ENDBRANCH   1  19
BRANCH   7  21
ATOM     21  S   UNL     1       8.156   8.333  17.435  0.00  0.00    +0.000 S 
BRANCH  21  22
ATOM     22  C   UNL     1       8.720   8.809  19.089  0.00  0.00    +0.000 C 
BRANCH  22  23
ATOM     23  C   UNL     1       9.284  10.214  19.117  0.00  0.00    +0.000 A 
ATOM     24  C   UNL     1       9.583  10.892  17.926  0.00  0.00    +0.000 A 
ATOM     25  C   UNL     1      10.092  12.193  17.954  0.00  0.00    +0.000 A 
ATOM     26  C   UNL     1      10.313  12.831  19.174  0.00  0.00    +0.000 A 
ATOM     27  C   UNL     1      10.034  12.166  20.365  0.00  0.00    +0.000 A 
ATOM     28  C   UNL     1       9.522  10.864  20.340  0.00  0.00    +0.000 A 
ENDBRANCH  22  23
ENDBRANCH  21  22
ENDBRANCH   7  21
TORSDOF 5
ENDMDL
MODEL 7
REMARK VINA RESULT:      -7.9      0.707      1.265
REMARK  Name = 
REMARK  5 active torsions:
REMARK  status: ('A' for Active; 'I' for Inactive)
REMARK    1  A    between atoms: O_1  and  C_2
REMARK    2  A    between atoms: C_8  and  S_9
REMARK    3  A    between atoms: S_9  and  C_10
REMARK    4  A    between atoms: C_10  and  C_11
REMARK    5  A    between atoms: C_19  and  C_20
REMARK                            x       y       z     vdW  Elec       q    Type
REMARK                         _______ _______ _______ _____ _____    ______ ____
ROOT
ATOM      1  C   UNL     1       1.495   7.966  20.361  0.00  0.00    +0.000 C 
ATOM      2  C   UNL     1       2.302   7.458  19.407  0.00  0.00    +0.000 C 
ATOM      3  C   UNL     1       2.402   8.174  18.094  0.00  0.00    +0.000 C 
ATOM      4  N   UNL     1       3.206   7.851  17.127  0.00  0.00    +0.000 NA
ATOM      5  C   UNL     1       4.051   6.809  17.292  0.00  0.00    +0.000 A 
ATOM      6  N   UNL     1       5.010   6.385  16.498  0.00  0.00    +0.000 NA
ATOM      7  C   UNL     1       5.578   5.341  17.175  0.00  0.00    +0.000 A 
ATOM      8  N   UNL     1       5.025   5.082  18.368  0.00  0.00    +0.000 NA
ATOM      9  N   UNL     1       4.048   6.012  18.402  0.00  0.00    +0.000 N 
ATOM     10  C   UNL     1       3.161   6.209  19.544  0.00  0.00    +0.000 C 
ATOM     11  C   UNL     1       1.569   9.421  17.845  0.00  0.00    +0.000 C 
ATOM     12  C   UNL     1       0.399   9.640  18.782  0.00  0.00    +0.000 C 
ATOM     13  C   UNL     1       0.639   9.191  20.211  0.00  0.00    +0.000 C 
ENDROOT
BRANCH  10  14
ATOM     14  C   UNL     1       2.326   4.961  19.767  0.00  0.00    +0.000 A 
ATOM     15  C   UNL     1       1.384   4.388  18.936  0.00  0.00    +0.000 A 
ATOM     16  C   UNL     1       0.672   3.329  19.570  0.00  0.00    +0.000 A 
ATOM     17  C   UNL     1       1.112   3.108  20.854  0.00  0.00    +0.000 A 
ATOM     18  S   UNL     1       2.405   4.141  21.276  0.00  0.00    +0.000 S 
ENDBRANCH  10  14
BRANCH   1  19
ATOM     19  O   UNL     1       1.347   7.401  21.614  0.00  0.00    +0.000 OA
ATOM     20  H   UNL     1       0.925   6.525  21.578  0.00  0.00    +0.000 HD
ENDBRANCH   1  19
BRANCH   7  21
ATOM     21  S   UNL     1       6.966   4.490  16.548  0.00  0.00    +0.000 S 
BRANCH  21  22
ATOM     22  C   UNL     1       7.252   5.366  14.989  0.00  0.00    +0.000 C 
BRANCH  22  23
ATOM     23  C   UNL     1       6.706   4.604  13.799  0.00  0.00    +0.000 A 
ATOM     24  C   UNL     1       7.380   4.613  12.569  0.00  0.00    +0.000 A 
ATOM     25  C   UNL     1       6.881   3.899  11.477  0.00  0.00    +0.000 A 
ATOM     26  C   UNL     1       5.698   3.172  11.598  0.00  0.00    +0.000 A 
ATOM     27  C   UNL     1       5.010   3.165  12.809  0.00  0.00    +0.000 A 
ATOM     28  C   UNL     1       5.509   3.876  13.906  0.00  0.00    +0.000 A 
ENDBRANCH  22  23
ENDBRANCH  21  22
ENDBRANCH   7  21
TORSDOF 5
ENDMDL
MODEL 8
REMARK VINA RESULT:      -7.7      4.126      6.917
REMARK  Name = 
REMARK  5 active torsions:
REMARK  status: ('A' for Active; 'I' for Inactive)
REMARK    1  A    between atoms: O_1  and  C_2
REMARK    2  A    between atoms: C_8  and  S_9
REMARK    3  A    between atoms: S_9  and  C_10
REMARK    4  A    between atoms: C_10  and  C_11
REMARK    5  A    between atoms: C_19  and  C_20
REMARK                            x       y       z     vdW  Elec       q    Type
REMARK                         _______ _______ _______ _____ _____    ______ ____
ROOT
ATOM      1  C   UNL     1      -1.474  12.403  20.818  0.00  0.00    +0.000 C 
ATOM      2  C   UNL     1      -0.582  11.405  20.645  0.00  0.00    +0.000 C 
ATOM      3  C   UNL     1      -0.410  10.396  21.739  0.00  0.00    +0.000 C 
ATOM      4  N   UNL     1       0.339   9.338  21.668  0.00  0.00    +0.000 NA
ATOM      5  C   UNL     1       1.012   9.082  20.525  0.00  0.00    +0.000 A 
ATOM      6  N   UNL     1       1.728   8.028  20.203  0.00  0.00    +0.000 NA
ATOM      7  C   UNL     1       2.131   8.267  18.919  0.00  0.00    +0.000 A 
ATOM      8  N   UNL     1       1.701   9.428  18.405  0.00  0.00    +0.000 NA
ATOM      9  N   UNL     1       1.015   9.929  19.453  0.00  0.00    +0.000 N 
ATOM     10  C   UNL     1       0.274  11.185  19.405  0.00  0.00    +0.000 C 
ATOM     11  C   UNL     1      -1.203  10.536  23.030  0.00  0.00    +0.000 C 
ATOM     12  C   UNL     1      -1.818  11.894  23.292  0.00  0.00    +0.000 C 
ATOM     13  C   UNL     1      -2.302  12.620  22.051  0.00  0.00    +0.000 C 
ENDROOT
BRANCH  10  14
ATOM     14  C   UNL     1       1.231  12.337  19.157  0.00  0.00    +0.000 A 
ATOM     15  C   UNL     1       1.666  12.859  17.954  0.00  0.00    +0.000 A 
ATOM     16  C   UNL     1       2.710  13.814  18.122  0.00  0.00    +0.000 A 
ATOM     17  C   UNL     1       3.019  14.013  19.447  0.00  0.00    +0.000 A 
ATOM     18  S   UNL     1       2.026  13.087  20.484  0.00  0.00    +0.000 S 
ENDBRANCH  10  14
BRANCH   1  19
ATOM     19  O   UNL     1      -1.728  13.371  19.866  0.00  0.00    +0.000 OA
ATOM     20  H   UNL     1      -2.053  14.200  20.257  0.00  0.00    +0.000 HD
ENDBRANCH   1  19
BRANCH   7  21
ATOM     21  S   UNL     1       3.060   7.097  18.017  0.00  0.00    +0.000 S 
BRANCH  21  22
ATOM     22  C   UNL     1       3.457   5.884  19.301  0.00  0.00    +0.000 C 
BRANCH  22  23
ATOM     23  C   UNL     1       2.590   4.646  19.204  0.00  0.00    +0.000 A 
ATOM     24  C   UNL     1       1.632   4.360  20.188  0.00  0.00    +0.000 A 
ATOM     25  C   UNL     1       0.824   3.224  20.088  0.00  0.00    +0.000 A 
ATOM     26  C   UNL     1       0.969   2.356  19.007  0.00  0.00    +0.000 A 
ATOM     27  C   UNL     1       1.925   2.619  18.030  0.00  0.00    +0.000 A 
ATOM     28  C   UNL     1       2.733   3.758  18.124  0.00  0.00    +0.000 A 
ENDBRANCH  22  23
ENDBRANCH  21  22
ENDBRANCH   7  21
TORSDOF 5
ENDMDL
MODEL 9
REMARK VINA RESULT:      -7.6      3.893      6.124
REMARK  Name = 
REMARK  5 active torsions:
REMARK  status: ('A' for Active; 'I' for Inactive)
REMARK    1  A    between atoms: O_1  and  C_2
REMARK    2  A    between atoms: C_8  and  S_9
REMARK    3  A    between atoms: S_9  and  C_10
REMARK    4  A    between atoms: C_10  and  C_11
REMARK    5  A    between atoms: C_19  and  C_20
REMARK                            x       y       z     vdW  Elec       q    Type
REMARK                         _______ _______ _______ _____ _____    ______ ____
ROOT
ATOM      1  C   UNL     1       1.736   3.937  17.977  0.00  0.00    +0.000 C 
ATOM      2  C   UNL     1       2.970   4.337  18.350  0.00  0.00    +0.000 C 
ATOM      3  C   UNL     1       3.837   3.381  19.111  0.00  0.00    +0.000 C 
ATOM      4  N   UNL     1       5.071   3.599  19.449  0.00  0.00    +0.000 NA
ATOM      5  C   UNL     1       5.661   4.758  19.080  0.00  0.00    +0.000 A 
ATOM      6  N   UNL     1       6.914   5.131  19.218  0.00  0.00    +0.000 NA
ATOM      7  C   UNL     1       6.971   6.362  18.625  0.00  0.00    +0.000 A 
ATOM      8  N   UNL     1       5.810   6.790  18.111  0.00  0.00    +0.000 NA
ATOM      9  N   UNL     1       4.997   5.763  18.436  0.00  0.00    +0.000 N 
ATOM     10  C   UNL     1       3.593   5.692  18.046  0.00  0.00    +0.000 C 
ATOM     11  C   UNL     1       3.303   2.007  19.485  0.00  0.00    +0.000 C 
ATOM     12  C   UNL     1       1.800   1.833  19.415  0.00  0.00    +0.000 C 
ATOM     13  C   UNL     1       1.125   2.603  18.296  0.00  0.00    +0.000 C 
ENDROOT
BRANCH  10  14
ATOM     14  C   UNL     1       2.823   6.834  18.687  0.00  0.00    +0.000 A 
ATOM     15  C   UNL     1       2.280   6.909  19.954  0.00  0.00    +0.000 A 
ATOM     16  C   UNL     1       1.466   8.065  20.129  0.00  0.00    +0.000 A 
ATOM     17  C   UNL     1       1.435   8.850  19.000  0.00  0.00    +0.000 A 
ATOM     18  S   UNL     1       2.418   8.220  17.753  0.00  0.00    +0.000 S 
ENDBRANCH  10  14
BRANCH   1  19
ATOM     19  O   UNL     1       0.865   4.728  17.253  0.00  0.00    +0.000 OA
ATOM     20  H   UNL     1       1.199   5.633  17.131  0.00  0.00    +0.000 HD
ENDBRANCH   1  19
BRANCH   7  21
ATOM     21  S   UNL     1       8.471   7.243  18.488  0.00  0.00    +0.000 S 
BRANCH  21  22
ATOM     22  C   UNL     1       7.928   8.753  17.649  0.00  0.00    +0.000 C 
BRANCH  22  23
ATOM     23  C   UNL     1       8.566   9.994  18.238  0.00  0.00    +0.000 A 
ATOM     24  C   UNL     1       9.375   9.913  19.381  0.00  0.00    +0.000 A 
ATOM     25  C   UNL     1       9.973  11.057  19.915  0.00  0.00    +0.000 A 
ATOM     26  C   UNL     1       9.766  12.299  19.315  0.00  0.00    +0.000 A 
ATOM     27  C   UNL     1       8.954  12.397  18.188  0.00  0.00    +0.000 A 
ATOM     28  C   UNL     1       8.356  11.253  17.649  0.00  0.00    +0.000 A 
ENDBRANCH  22  23
ENDBRANCH  21  22
ENDBRANCH   7  21
TORSDOF 5
ENDMDL
