MODEL 1
REMARK VINA RESULT:      -8.6      0.000      0.000
REMARK  Name = 
REMARK  5 active torsions:
REMARK  status: ('A' for Active; 'I' for Inactive)
REMARK    1  A    between atoms: C_1  and  C_2
REMARK    2  A    between atoms: C_4  and  C_5
REMARK    3  A    between atoms: C_7  and  N_8
REMARK    4  A    between atoms: N_8  and  C_9
REMARK    5  A    between atoms: C_14  and  C_15
REMARK                            x       y       z     vdW  Elec       q    Type
REMARK                         _______ _______ _______ _____ _____    ______ ____
ROOT
ATOM      1  C   UNL     1       7.145   4.925  15.000  0.00  0.00    +0.000 C 
ATOM      2  C   UNL     1       5.928   5.076  15.881  0.00  0.00    +0.000 A 
ATOM      3  C   UNL     1       5.244   3.831  16.288  0.00  0.00    +0.000 A 
ATOM      4  C   UNL     1       4.143   3.940  17.057  0.00  0.00    +0.000 A 
ATOM      5  C   UNL     1       3.485   2.662  17.426  0.00  0.00    +0.000 C 
ATOM      6  N   UNL     1       3.689   5.231  17.439  0.00  0.00    +0.000 N 
ATOM      7  C   UNL     1       2.585   5.753  18.163  0.00  0.00    +0.000 A 
ATOM      8  C   UNL     1       2.763   7.146  18.100  0.00  0.00    +0.000 A 
ATOM      9  N   UNL     1       3.904   7.481  17.435  0.00  0.00    +0.000 NA
ATOM     10  C   UNL     1       4.430   6.361  17.008  0.00  0.00    +0.000 A 
ATOM     11  N   UNL     1       5.550   6.264  16.227  0.00  0.00    +0.000 NA
ENDROOT
BRANCH   8  12
ATOM     12  C   UNL     1       1.932   8.208  18.690  0.00  0.00    +0.000 A 
ATOM     13  C   UNL     1       1.716   8.205  20.083  0.00  0.00    +0.000 A 
ATOM     14  C   UNL     1       0.912   9.174  20.696  0.00  0.00    +0.000 A 
ATOM     15  C   UNL     1       0.296  10.141  19.922  0.00  0.00    +0.000 A 
ATOM     16  F   UNL     1      -0.500  11.049  20.500  0.00  0.00    +0.000 F 
ATOM     17  C   UNL     1       0.513  10.192  18.552  0.00  0.00    +0.000 A 
ATOM     18  C   UNL     1       1.360   9.256  17.948  0.00  0.00    +0.000 A 
ENDBRANCH   8  12
BRANCH   7  19
ATOM     19  N   UNL     1       1.504   5.124  18.729  0.00  0.00    +0.000 N 
ATOM     20  H   UNL     1       0.622   5.362  18.286  0.00  0.00    +0.000 HD
BRANCH  19  21
ATOM     21  C   UNL     1       1.210   4.639  20.062  0.00  0.00    +0.000 C 
ATOM     22  C   UNL     1       0.815   3.153  20.001  0.00  0.00    +0.000 C 
ATOM     23  C   UNL     1       1.429   2.476  21.220  0.00  0.00    +0.000 C 
ATOM     24  C   UNL     1       2.457   3.432  21.799  0.00  0.00    +0.000 C 
ATOM     25  C   UNL     1       2.517   4.627  20.867  0.00  0.00    +0.000 C 
ENDBRANCH  19  21
ENDBRANCH   7  19
TORSDOF 3
ENDMDL
MODEL 2
REMARK VINA RESULT:      -8.5      2.710      5.886
REMARK  Name = 
REMARK  5 active torsions:
REMARK  status: ('A' for Active; 'I' for Inactive)
REMARK    1  A    between atoms: C_1  and  C_2
REMARK    2  A    between atoms: C_4  and  C_5
REMARK    3  A    between atoms: C_7  and  N_8
REMARK    4  A    between atoms: N_8  and  C_9
REMARK    5  A    between atoms: C_14  and  C_15
REMARK                            x       y       z     vdW  Elec       q    Type
REMARK                         _______ _______ _______ _____ _____    ______ ____
ROOT
ATOM      1  C   UNL     1       0.068  12.131  18.785  0.00  0.00    +0.000 C 
ATOM      2  C   UNL     1       0.676  10.767  19.006  0.00  0.00    +0.000 A 
ATOM      3  C   UNL     1       0.502  10.172  20.348  0.00  0.00    +0.000 A 
ATOM      4  C   UNL     1       1.053   8.965  20.577  0.00  0.00    +0.000 A 
ATOM      5  C   UNL     1       0.863   8.417  21.944  0.00  0.00    +0.000 C 
ATOM      6  N   UNL     1       1.772   8.320  19.534  0.00  0.00    +0.000 N 
ATOM      7  C   UNL     1       2.518   7.120  19.398  0.00  0.00    +0.000 A 
ATOM      8  C   UNL     1       2.991   7.162  18.074  0.00  0.00    +0.000 A 
ATOM      9  N   UNL     1       2.546   8.266  17.412  0.00  0.00    +0.000 NA
ATOM     10  C   UNL     1       1.864   8.972  18.278  0.00  0.00    +0.000 A 
ATOM     11  N   UNL     1       1.308  10.198  18.031  0.00  0.00    +0.000 NA
ENDROOT
BRANCH   8  12
ATOM     12  C   UNL     1       3.811   6.171  17.358  0.00  0.00    +0.000 A 
ATOM     13  C   UNL     1       3.450   4.811  17.431  0.00  0.00    +0.000 A 
ATOM     14  C   UNL     1       4.210   3.822  16.794  0.00  0.00    +0.000 A 
ATOM     15  C   UNL     1       5.350   4.178  16.097  0.00  0.00    +0.000 A 
ATOM     16  F   UNL     1       6.097   3.233  15.514  0.00  0.00    +0.000 F 
ATOM     17  C   UNL     1       5.718   5.512  15.979  0.00  0.00    +0.000 A 
ATOM     18  C   UNL     1       4.928   6.505  16.572  0.00  0.00    +0.000 A 
ENDBRANCH   8  12
BRANCH   7  19
ATOM     19  N   UNL     1       2.839   6.152  20.317  0.00  0.00    +0.000 N 
ATOM     20  H   UNL     1       3.822   5.900  20.309  0.00  0.00    +0.000 HD
BRANCH  19  21
ATOM     21  C   UNL     1       2.107   5.055  20.914  0.00  0.00    +0.000 C 
ATOM     22  C   UNL     1       0.910   4.680  20.021  0.00  0.00    +0.000 C 
ATOM     23  C   UNL     1       0.789   3.162  20.051  0.00  0.00    +0.000 C 
ATOM     24  C   UNL     1       2.078   2.615  20.638  0.00  0.00    +0.000 C 
ATOM     25  C   UNL     1       2.993   3.803  20.865  0.00  0.00    +0.000 C 
ENDBRANCH  19  21
ENDBRANCH   7  19
TORSDOF 3
ENDMDL
MODEL 3
REMARK VINA RESULT:      -8.5      0.987      1.467
REMARK  Name = 
REMARK  5 active torsions:
REMARK  status: ('A' for Active; 'I' for Inactive)
REMARK    1  A    between atoms: C_1  and  C_2
REMARK    2  A    between atoms: C_4  and  C_5
REMARK    3  A    between atoms: C_7  and  N_8
REMARK    4  A    between atoms: N_8  and  C_9
REMARK    5  A    between atoms: C_14  and  C_15
REMARK                            x       y       z     vdW  Elec       q    Type
REMARK                         _______ _______ _______ _____ _____    ______ ____
ROOT
ATOM      1  C   UNL     1       6.684   5.084  14.959  0.00  0.00    +0.000 C 
ATOM      2  C   UNL     1       5.789   5.365  16.142  0.00  0.00    +0.000 A 
ATOM      3  C   UNL     1       5.790   4.363  17.229  0.00  0.00    +0.000 A 
ATOM      4  C   UNL     1       4.984   4.580  18.285  0.00  0.00    +0.000 A 
ATOM      5  C   UNL     1       5.011   3.539  19.343  0.00  0.00    +0.000 C 
ATOM      6  N   UNL     1       4.172   5.747  18.311  0.00  0.00    +0.000 N 
ATOM      7  C   UNL     1       3.187   6.287  19.179  0.00  0.00    +0.000 A 
ATOM      8  C   UNL     1       2.773   7.465  18.533  0.00  0.00    +0.000 A 
ATOM      9  N   UNL     1       3.466   7.681  17.380  0.00  0.00    +0.000 NA
ATOM     10  C   UNL     1       4.261   6.653  17.223  0.00  0.00    +0.000 A 
ATOM     11  N   UNL     1       5.076   6.445  16.145  0.00  0.00    +0.000 NA
ENDROOT
BRANCH   8  12
ATOM     12  C   UNL     1       1.778   8.456  18.974  0.00  0.00    +0.000 A 
ATOM     13  C   UNL     1       1.157   9.271  18.007  0.00  0.00    +0.000 A 
ATOM     14  C   UNL     1       0.224  10.250  18.373  0.00  0.00    +0.000 A 
ATOM     15  C   UNL     1      -0.081  10.440  19.708  0.00  0.00    +0.000 A 
ATOM     16  F   UNL     1      -0.947  11.396  20.064  0.00  0.00    +0.000 F 
ATOM     17  C   UNL     1       0.489   9.634  20.684  0.00  0.00    +0.000 A 
ATOM     18  C   UNL     1       1.382   8.621  20.313  0.00  0.00    +0.000 A 
ENDBRANCH   8  12
BRANCH   7  19
ATOM     19  N   UNL     1       2.637   5.789  20.334  0.00  0.00    +0.000 N 
ATOM     20  H   UNL     1       3.293   5.750  21.108  0.00  0.00    +0.000 HD
BRANCH  19  21
ATOM     21  C   UNL     1       1.569   4.852  20.613  0.00  0.00    +0.000 C 
ATOM     22  C   UNL     1       1.270   4.015  19.356  0.00  0.00    +0.000 C 
ATOM     23  C   UNL     1       0.979   2.594  19.824  0.00  0.00    +0.000 C 
ATOM     24  C   UNL     1       1.442   2.488  21.265  0.00  0.00    +0.000 C 
ATOM     25  C   UNL     1       2.091   3.814  21.615  0.00  0.00    +0.000 C 
ENDBRANCH  19  21
ENDBRANCH   7  19
TORSDOF 3
ENDMDL
MODEL 4
REMARK VINA RESULT:      -8.3      2.768      5.912
REMARK  Name = 
REMARK  5 active torsions:
REMARK  status: ('A' for Active; 'I' for Inactive)
REMARK    1  A    between atoms: C_1  and  C_2
REMARK    2  A    between atoms: C_4  and  C_5
REMARK    3  A    between atoms: C_7  and  N_8
REMARK    4  A    between atoms: N_8  and  C_9
REMARK    5  A    between atoms: C_14  and  C_15
REMARK                            x       y       z     vdW  Elec       q    Type
REMARK                         _______ _______ _______ _____ _____    ______ ____
ROOT
ATOM      1  C   UNL     1      -0.125  11.668  18.687  0.00  0.00    +0.000 C 
ATOM      2  C   UNL     1       0.618  10.366  18.868  0.00  0.00    +0.000 A 
ATOM      3  C   UNL     1       0.324   9.599  20.097  0.00  0.00    +0.000 A 
ATOM      4  C   UNL     1       0.989   8.444  20.292  0.00  0.00    +0.000 A 
ATOM      5  C   UNL     1       0.667   7.719  21.547  0.00  0.00    +0.000 C 
ATOM      6  N   UNL     1       1.937   8.017  19.324  0.00  0.00    +0.000 N 
ATOM      7  C   UNL     1       2.849   6.937  19.194  0.00  0.00    +0.000 A 
ATOM      8  C   UNL     1       3.508   7.191  17.979  0.00  0.00    +0.000 A 
ATOM      9  N   UNL     1       3.026   8.307  17.365  0.00  0.00    +0.000 NA
ATOM     10  C   UNL     1       2.132   8.821  18.172  0.00  0.00    +0.000 A 
ATOM     11  N   UNL     1       1.462   9.995  17.960  0.00  0.00    +0.000 NA
ENDROOT
BRANCH   8  12
ATOM     12  C   UNL     1       4.552   6.395  17.314  0.00  0.00    +0.000 A 
ATOM     13  C   UNL     1       4.201   5.155  16.744  0.00  0.00    +0.000 A 
ATOM     14  C   UNL     1       5.158   4.343  16.124  0.00  0.00    +0.000 A 
ATOM     15  C   UNL     1       6.480   4.748  16.087  0.00  0.00    +0.000 A 
ATOM     16  F   UNL     1       7.404   3.960  15.525  0.00  0.00    +0.000 F 
ATOM     17  C   UNL     1       6.855   5.978  16.611  0.00  0.00    +0.000 A 
ATOM     18  C   UNL     1       5.888   6.813  17.183  0.00  0.00    +0.000 A 
ENDBRANCH   8  12
BRANCH   7  19
ATOM     19  N   UNL     1       3.152   5.909  20.053  0.00  0.00    +0.000 N 
ATOM     20  H   UNL     1       4.029   6.043  20.546  0.00  0.00    +0.000 HD
BRANCH  19  21
ATOM     21  C   UNL     1       2.849   4.493  20.068  0.00  0.00    +0.000 C 
ATOM     22  C   UNL     1       2.367   4.079  21.470  0.00  0.00    +0.000 C 
ATOM     23  C   UNL     1       1.246   3.066  21.277  0.00  0.00    +0.000 C 
ATOM     24  C   UNL     1       0.817   3.137  19.823  0.00  0.00    +0.000 C 
ATOM     25  C   UNL     1       1.616   4.257  19.185  0.00  0.00    +0.000 C 
ENDBRANCH  19  21
ENDBRANCH   7  19
TORSDOF 3
ENDMDL
MODEL 5
REMARK VINA RESULT:      -8.1      0.662      1.367
REMARK  Name = 
REMARK  5 active torsions:
REMARK  status: ('A' for Active; 'I' for Inactive)
REMARK    1  A    between atoms: C_1  and  C_2
REMARK    2  A    between atoms: C_4  and  C_5
REMARK    3  A    between atoms: C_7  and  N_8
REMARK    4  A    between atoms: N_8  and  C_9
REMARK    5  A    between atoms: C_14  and  C_15
REMARK                            x       y       z     vdW  Elec       q    Type
REMARK                         _______ _______ _______ _____ _____    ______ ____
ROOT
ATOM      1  C   UNL     1       7.408   5.150  14.524  0.00  0.00    +0.000 C 
ATOM      2  C   UNL     1       6.240   5.167  15.481  0.00  0.00    +0.000 A 
ATOM      3  C   UNL     1       5.660   3.857  15.844  0.00  0.00    +0.000 A 
ATOM      4  C   UNL     1       4.604   3.846  16.680  0.00  0.00    +0.000 A 
ATOM      5  C   UNL     1       4.050   2.507  17.003  0.00  0.00    +0.000 C 
ATOM      6  N   UNL     1       4.094   5.079  17.170  0.00  0.00    +0.000 N 
ATOM      7  C   UNL     1       3.007   5.482  17.988  0.00  0.00    +0.000 A 
ATOM      8  C   UNL     1       3.094   6.885  18.005  0.00  0.00    +0.000 A 
ATOM      9  N   UNL     1       4.169   7.334  17.299  0.00  0.00    +0.000 NA
ATOM     10  C   UNL     1       4.737   6.279  16.771  0.00  0.00    +0.000 A 
ATOM     11  N   UNL     1       5.811   6.304  15.924  0.00  0.00    +0.000 NA
ENDROOT
BRANCH   8  12
ATOM     12  C   UNL     1       2.237   7.852  18.709  0.00  0.00    +0.000 A 
ATOM     13  C   UNL     1       1.695   8.933  17.985  0.00  0.00    +0.000 A 
ATOM     14  C   UNL     1       0.896   9.899  18.609  0.00  0.00    +0.000 A 
ATOM     15  C   UNL     1       0.649   9.809  19.967  0.00  0.00    +0.000 A 
ATOM     16  F   UNL     1      -0.086  10.748  20.575  0.00  0.00    +0.000 F 
ATOM     17  C   UNL     1       1.142   8.741  20.705  0.00  0.00    +0.000 A 
ATOM     18  C   UNL     1       1.896   7.747  20.069  0.00  0.00    +0.000 A 
ENDBRANCH   8  12
BRANCH   7  19
ATOM     19  N   UNL     1       2.003   4.750  18.573  0.00  0.00    +0.000 N 
ATOM     20  H   UNL     1       1.229   5.319  18.902  0.00  0.00    +0.000 HD
BRANCH  19  21
ATOM     21  C   UNL     1       1.968   3.497  19.298  0.00  0.00    +0.000 C 
ATOM     22  C   UNL     1       3.192   3.396  20.225  0.00  0.00    +0.000 C 
ATOM     23  C   UNL     1       2.722   2.743  21.518  0.00  0.00    +0.000 C 
ATOM     24  C   UNL     1       1.205   2.780  21.519  0.00  0.00    +0.000 C 
ATOM     25  C   UNL     1       0.786   3.540  20.275  0.00  0.00    +0.000 C 
ENDBRANCH  19  21
ENDBRANCH   7  19
TORSDOF 3
ENDMDL
MODEL 6
REMARK VINA RESULT:      -8.1      2.723      5.928
REMARK  Name = 
REMARK  5 active torsions:
REMARK  status: ('A' for Active; 'I' for Inactive)
REMARK    1  A    between atoms: C_1  and  C_2
REMARK    2  A    between atoms: C_4  and  C_5
REMARK    3  A    between atoms: C_7  and  N_8
REMARK    4  A    between atoms: N_8  and  C_9
REMARK    5  A    between atoms: C_14  and  C_15
REMARK                            x       y       z     vdW  Elec       q    Type
REMARK                         _______ _______ _______ _____ _____    ______ ____
ROOT
ATOM      1  C   UNL     1       0.116  12.095  18.752  0.00  0.00    +0.000 C 
ATOM      2  C   UNL     1       0.715  10.727  18.967  0.00  0.00    +0.000 A 
ATOM      3  C   UNL     1       0.379  10.046  20.236  0.00  0.00    +0.000 A 
ATOM      4  C   UNL     1       0.919   8.833  20.461  0.00  0.00    +0.000 A 
ATOM      5  C   UNL     1       0.562   8.198  21.755  0.00  0.00    +0.000 C 
ATOM      6  N   UNL     1       1.781   8.264  19.485  0.00  0.00    +0.000 N 
ATOM      7  C   UNL     1       2.562   7.084  19.375  0.00  0.00    +0.000 A 
ATOM      8  C   UNL     1       3.204   7.215  18.131  0.00  0.00    +0.000 A 
ATOM      9  N   UNL     1       2.828   8.353  17.484  0.00  0.00    +0.000 NA
ATOM     10  C   UNL     1       2.024   8.995  18.294  0.00  0.00    +0.000 A 
ATOM     11  N   UNL     1       1.481  10.228  18.052  0.00  0.00    +0.000 NA
ENDROOT
BRANCH   8  12
ATOM     12  C   UNL     1       4.130   6.281  17.470  0.00  0.00    +0.000 A 
ATOM     13  C   UNL     1       5.464   6.684  17.259  0.00  0.00    +0.000 A 
ATOM     14  C   UNL     1       6.382   5.848  16.611  0.00  0.00    +0.000 A 
ATOM     15  C   UNL     1       5.971   4.612  16.146  0.00  0.00    +0.000 A 
ATOM     16  F   UNL     1       6.836   3.823  15.496  0.00  0.00    +0.000 F 
ATOM     17  C   UNL     1       4.674   4.171  16.364  0.00  0.00    +0.000 A 
ATOM     18  C   UNL     1       3.771   4.985  17.059  0.00  0.00    +0.000 A 
ENDBRANCH   8  12
BRANCH   7  19
ATOM     19  N   UNL     1       2.779   6.064  20.268  0.00  0.00    +0.000 N 
ATOM     20  H   UNL     1       3.457   6.295  20.986  0.00  0.00    +0.000 HD
BRANCH  19  21
ATOM     21  C   UNL     1       2.709   4.620  20.176  0.00  0.00    +0.000 C 
ATOM     22  C   UNL     1       2.589   4.014  21.586  0.00  0.00    +0.000 C 
ATOM     23  C   UNL     1       1.624   2.839  21.487  0.00  0.00    +0.000 C 
ATOM     24  C   UNL     1       0.905   2.954  20.155  0.00  0.00    +0.000 C 
ATOM     25  C   UNL     1       1.376   4.245  19.514  0.00  0.00    +0.000 C 
ENDBRANCH  19  21
ENDBRANCH   7  19
TORSDOF 3
ENDMDL
MODEL 7
REMARK VINA RESULT:      -7.9      2.855      5.943
REMARK  Name = 
REMARK  5 active torsions:
REMARK  status: ('A' for Active; 'I' for Inactive)
REMARK    1  A    between atoms: C_1  and  C_2
REMARK    2  A    between atoms: C_4  and  C_5
REMARK    3  A    between atoms: C_7  and  N_8
REMARK    4  A    between atoms: N_8  and  C_9
REMARK    5  A    between atoms: C_14  and  C_15
REMARK                            x       y       z     vdW  Elec       q    Type
REMARK                         _______ _______ _______ _____ _____    ______ ____
ROOT
ATOM      1  C   UNL     1       0.093  11.621  18.849  0.00  0.00    +0.000 C 
ATOM      2  C   UNL     1       0.819  10.304  18.978  0.00  0.00    +0.000 A 
ATOM      3  C   UNL     1       0.585   9.535  20.219  0.00  0.00    +0.000 A 
ATOM      4  C   UNL     1       1.238   8.366  20.367  0.00  0.00    +0.000 A 
ATOM      5  C   UNL     1       0.980   7.640  21.636  0.00  0.00    +0.000 C 
ATOM      6  N   UNL     1       2.116   7.926  19.341  0.00  0.00    +0.000 N 
ATOM      7  C   UNL     1       2.997   6.829  19.149  0.00  0.00    +0.000 A 
ATOM      8  C   UNL     1       3.585   7.078  17.897  0.00  0.00    +0.000 A 
ATOM      9  N   UNL     1       3.088   8.207  17.319  0.00  0.00    +0.000 NA
ATOM     10  C   UNL     1       2.256   8.734  18.182  0.00  0.00    +0.000 A 
ATOM     11  N   UNL     1       1.598   9.922  18.018  0.00  0.00    +0.000 NA
ENDROOT
BRANCH   8  12
ATOM     12  C   UNL     1       4.570   6.265  17.165  0.00  0.00    +0.000 A 
ATOM     13  C   UNL     1       5.931   6.622  17.237  0.00  0.00    +0.000 A 
ATOM     14  C   UNL     1       6.909   5.902  16.539  0.00  0.00    +0.000 A 
ATOM     15  C   UNL     1       6.535   4.835  15.743  0.00  0.00    +0.000 A 
ATOM     16  F   UNL     1       7.462   4.165  15.048  0.00  0.00    +0.000 F 
ATOM     17  C   UNL     1       5.207   4.437  15.673  0.00  0.00    +0.000 A 
ATOM     18  C   UNL     1       4.237   5.124  16.414  0.00  0.00    +0.000 A 
ENDBRANCH   8  12
BRANCH   7  19
ATOM     19  N   UNL     1       3.332   5.791  19.983  0.00  0.00    +0.000 N 
ATOM     20  H   UNL     1       4.279   5.852  20.340  0.00  0.00    +0.000 HD
BRANCH  19  21
ATOM     21  C   UNL     1       2.911   4.408  20.080  0.00  0.00    +0.000 C 
ATOM     22  C   UNL     1       1.776   4.137  19.076  0.00  0.00    +0.000 C 
ATOM     23  C   UNL     1       2.008   2.744  18.505  0.00  0.00    +0.000 C 
ATOM     24  C   UNL     1       3.424   2.334  18.870  0.00  0.00    +0.000 C 
ATOM     25  C   UNL     1       4.055   3.521  19.571  0.00  0.00    +0.000 C 
ENDBRANCH  19  21
ENDBRANCH   7  19
TORSDOF 3
ENDMDL
MODEL 8
REMARK VINA RESULT:      -7.4      2.923      6.820
REMARK  Name = 
REMARK  5 active torsions:
REMARK  status: ('A' for Active; 'I' for Inactive)
REMARK    1  A    between atoms: C_1  and  C_2
REMARK    2  A    between atoms: C_4  and  C_5
REMARK    3  A    between atoms: C_7  and  N_8
REMARK    4  A    between atoms: N_8  and  C_9
REMARK    5  A    between atoms: C_14  and  C_15
REMARK                            x       y       z     vdW  Elec       q    Type
REMARK                         _______ _______ _______ _____ _____    ______ ____
ROOT
ATOM      1  C   UNL     1      -0.378   9.942  22.150  0.00  0.00    +0.000 C 
ATOM      2  C   UNL     1       0.469   9.174  21.163  0.00  0.00    +0.000 A 
ATOM      3  C   UNL     1       0.988   9.929  20.004  0.00  0.00    +0.000 A 
ATOM      4  C   UNL     1       1.729   9.261  19.099  0.00  0.00    +0.000 A 
ATOM      5  C   UNL     1       2.214  10.061  17.946  0.00  0.00    +0.000 C 
ATOM      6  N   UNL     1       1.976   7.875  19.290  0.00  0.00    +0.000 N 
ATOM      7  C   UNL     1       2.632   6.845  18.567  0.00  0.00    +0.000 A 
ATOM      8  C   UNL     1       2.434   5.697  19.354  0.00  0.00    +0.000 A 
ATOM      9  N   UNL     1       1.754   5.979  20.500  0.00  0.00    +0.000 NA
ATOM     10  C   UNL     1       1.445   7.251  20.448  0.00  0.00    +0.000 A 
ATOM     11  N   UNL     1       0.692   7.917  21.375  0.00  0.00    +0.000 NA
ENDROOT
BRANCH   8  12
ATOM     12  C   UNL     1       2.907   4.324  19.114  0.00  0.00    +0.000 A 
ATOM     13  C   UNL     1       2.264   3.546  18.131  0.00  0.00    +0.000 A 
ATOM     14  C   UNL     1       2.653   2.224  17.880  0.00  0.00    +0.000 A 
ATOM     15  C   UNL     1       3.672   1.658  18.624  0.00  0.00    +0.000 A 
ATOM     16  F   UNL     1       4.025   0.385  18.410  0.00  0.00    +0.000 F 
ATOM     17  C   UNL     1       4.348   2.405  19.579  0.00  0.00    +0.000 A 
ATOM     18  C   UNL     1       3.993   3.743  19.792  0.00  0.00    +0.000 A 
ENDBRANCH   8  12
BRANCH   7  19
ATOM     19  N   UNL     1       3.244   6.859  17.338  0.00  0.00    +0.000 N 
ATOM     20  H   UNL     1       2.659   6.495  16.593  0.00  0.00    +0.000 HD
BRANCH  19  21
ATOM     21  C   UNL     1       4.622   6.764  16.903  0.00  0.00    +0.000 C 
ATOM     22  C   UNL     1       5.547   6.643  18.127  0.00  0.00    +0.000 C 
ATOM     23  C   UNL     1       6.650   5.658  17.759  0.00  0.00    +0.000 C 
ATOM     24  C   UNL     1       6.207   4.932  16.501  0.00  0.00    +0.000 C 
ATOM     25  C   UNL     1       4.807   5.421  16.184  0.00  0.00    +0.000 C 
ENDBRANCH  19  21
ENDBRANCH   7  19
TORSDOF 3
ENDMDL
MODEL 9
REMARK VINA RESULT:      -7.1      4.769      9.137
REMARK  Name = 
REMARK  5 active torsions:
REMARK  status: ('A' for Active; 'I' for Inactive)
REMARK    1  A    between atoms: C_1  and  C_2
REMARK    2  A    between atoms: C_4  and  C_5
REMARK    3  A    between atoms: C_7  and  N_8
REMARK    4  A    between atoms: N_8  and  C_9
REMARK    5  A    between atoms: C_14  and  C_15
REMARK                            x       y       z     vdW  Elec       q    Type
REMARK                         _______ _______ _______ _____ _____    ______ ____
ROOT
ATOM      1  C   UNL     1      -1.297  14.983  24.483  0.00  0.00    +0.000 C 
ATOM      2  C   UNL     1      -1.337  14.072  23.280  0.00  0.00    +0.000 A 
ATOM      3  C   UNL     1      -2.560  14.121  22.451  0.00  0.00    +0.000 A 
ATOM      4  C   UNL     1      -2.629  13.302  21.383  0.00  0.00    +0.000 A 
ATOM      5  C   UNL     1      -3.882  13.379  20.591  0.00  0.00    +0.000 C 
ATOM      6  N   UNL     1      -1.540  12.434  21.103  0.00  0.00    +0.000 N 
ATOM      7  C   UNL     1      -1.260  11.421  20.148  0.00  0.00    +0.000 A 
ATOM      8  C   UNL     1       0.014  10.950  20.514  0.00  0.00    +0.000 A 
ATOM      9  N   UNL     1       0.521  11.634  21.577  0.00  0.00    +0.000 NA
ATOM     10  C   UNL     1      -0.406  12.479  21.954  0.00  0.00    +0.000 A 
ATOM     11  N   UNL     1      -0.322  13.307  23.040  0.00  0.00    +0.000 NA
ENDROOT
BRANCH   8  12
ATOM     12  C   UNL     1       0.828   9.906  19.872  0.00  0.00    +0.000 A 
ATOM     13  C   UNL     1       1.315  10.131  18.568  0.00  0.00    +0.000 A 
ATOM     14  C   UNL     1       2.071   9.162  17.898  0.00  0.00    +0.000 A 
ATOM     15  C   UNL     1       2.329   7.949  18.511  0.00  0.00    +0.000 A 
ATOM     16  F   UNL     1       3.023   7.007  17.862  0.00  0.00    +0.000 F 
ATOM     17  C   UNL     1       1.891   7.706  19.806  0.00  0.00    +0.000 A 
ATOM     18  C   UNL     1       1.180   8.697  20.496  0.00  0.00    +0.000 A 
ENDBRANCH   8  12
BRANCH   7  19
ATOM     19  N   UNL     1      -2.034  10.894  19.144  0.00  0.00    +0.000 N 
ATOM     20  H   UNL     1      -2.258   9.913  19.282  0.00  0.00    +0.000 HD
BRANCH  19  21
ATOM     21  C   UNL     1      -2.184  11.187  17.734  0.00  0.00    +0.000 C 
ATOM     22  C   UNL     1      -1.904   9.921  16.906  0.00  0.00    +0.000 C 
ATOM     23  C   UNL     1      -2.899   9.912  15.752  0.00  0.00    +0.000 C 
ATOM     24  C   UNL     1      -3.975  10.933  16.074  0.00  0.00    +0.000 C 
ATOM     25  C   UNL     1      -3.665  11.473  17.457  0.00  0.00    +0.000 C 
ENDBRANCH  19  21
ENDBRANCH   7  19
TORSDOF 3
ENDMDL
