MODEL 1
REMARK VINA RESULT:      -7.5      0.000      0.000
REMARK  Name = 
REMARK  7 active torsions:
REMARK  status: ('A' for Active; 'I' for Inactive)
REMARK    1  A    between atoms: C_2  and  C_3
REMARK    2  A    between atoms: N_11  and  C_12
REMARK    3  A    between atoms: C_12  and  C_13
REMARK    4  A    between atoms: C_13  and  C_14
REMARK    5  A    between atoms: C_17  and  N_18
REMARK    6  A    between atoms: C_19  and  C_21
REMARK    7  A    between atoms: C_24  and  C_25
REMARK                            x       y       z     vdW  Elec       q    Type
REMARK                         _______ _______ _______ _____ _____    ______ ____
ROOT
ATOM      1  C   UNL     1       1.381  12.536  19.008  0.00  0.00    +0.000 C 
ATOM      2  C   UNL     1       1.596  13.739  18.075  0.00  0.00    +0.000 C 
ATOM      3  C   UNL     1       1.253  15.070  18.747  0.00  0.00    +0.000 C 
ATOM      4  C   UNL     1       1.989  15.271  20.079  0.00  0.00    +0.000 C 
ATOM      5  C   UNL     1       1.799  14.064  21.005  0.00  0.00    +0.000 C 
ATOM      6  C   UNL     1       2.175  12.752  20.311  0.00  0.00    +0.000 C 
ENDROOT
BRANCH   4   7
ATOM      7  N   UNL     1       3.401  15.525  19.831  0.00  0.00    +0.000 N 
ATOM      8  C   UNL     1       3.901  16.745  19.427  0.00  0.00    +0.000 C 
ATOM      9  O   UNL     1       3.169  17.710  19.217  0.00  0.00    +0.000 OA
ATOM     10  H   UNL     1       4.080  14.829  20.108  0.00  0.00    +0.000 HD
BRANCH   8  11
ATOM     11  C   UNL     1       5.350  16.801  19.274  0.00  0.00    +0.000 A 
ATOM     12  C   UNL     1       6.213  17.736  19.810  0.00  0.00    +0.000 A 
ATOM     13  C   UNL     1       7.575  17.472  19.484  0.00  0.00    +0.000 A 
ATOM     14  C   UNL     1       7.736  16.320  18.732  0.00  0.00    +0.000 A 
ATOM     15  S   UNL     1       6.208  15.642  18.347  0.00  0.00    +0.000 S 
BRANCH  14  16
ATOM     16  C   UNL     1       8.993  15.676  18.320  0.00  0.00    +0.000 A 
ATOM     17  C   UNL     1      10.101  16.395  17.876  0.00  0.00    +0.000 A 
ATOM     18  C   UNL     1      11.163  15.707  17.297  0.00  0.00    +0.000 A 
ATOM     19  C   UNL     1      11.108  14.323  17.207  0.00  0.00    +0.000 A 
ATOM     20  C   UNL     1       9.998  13.679  17.725  0.00  0.00    +0.000 A 
ATOM     21  N   UNL     1       8.940  14.322  18.267  0.00  0.00    +0.000 NA
ENDBRANCH  14  16
ENDBRANCH   8  11
ENDBRANCH   4   7
BRANCH   1  22
ATOM     22  C   UNL     1      -0.109  12.258  19.314  0.00  0.00    +0.000 C 
BRANCH  22  23
ATOM     23  C   UNL     1      -0.408  10.763  19.489  0.00  0.00    +0.000 C 
BRANCH  23  32
ATOM     24  C   UNL     1       2.101   4.609  18.630  0.00  0.00    +0.000 A 
ATOM     25  C   UNL     1       1.724   4.478  19.972  0.00  0.00    +0.000 A 
ATOM     26  C   UNL     1       1.622   5.610  20.781  0.00  0.00    +0.000 A 
ATOM     27  C   UNL     1       1.881   6.886  20.261  0.00  0.00    +0.000 A 
ATOM     28  C   UNL     1       2.223   7.029  18.905  0.00  0.00    +0.000 A 
ATOM     29  C   UNL     1       2.346   5.884  18.101  0.00  0.00    +0.000 A 
ATOM     30  C   UNL     1       2.413   8.406  18.317  0.00  0.00    +0.000 C 
ATOM     31  C   UNL     1       1.123   9.252  18.332  0.00  0.00    +0.000 C 
ATOM     32  N   UNL     1       0.785   9.900  19.617  0.00  0.00    +0.000 NA
ATOM     33  C   UNL     1       0.509   8.927  20.699  0.00  0.00    +0.000 C 
ATOM     34  C   UNL     1       1.723   8.103  21.136  0.00  0.00    +0.000 C 
BRANCH  24  36
ATOM     35  N   UNL     1       2.287   2.510  17.109  0.00  0.00    +0.000 NA
ATOM     36  C   UNL     1       2.216   3.455  17.788  0.00  0.00    +0.000 C 
ENDBRANCH  24  36
ENDBRANCH  23  32
ENDBRANCH  22  23
ENDBRANCH   1  22
TORSDOF 7
ENDMDL
MODEL 2
REMARK VINA RESULT:      -7.5      1.683      2.860
REMARK  Name = 
REMARK  7 active torsions:
REMARK  status: ('A' for Active; 'I' for Inactive)
REMARK    1  A    between atoms: C_2  and  C_3
REMARK    2  A    between atoms: N_11  and  C_12
REMARK    3  A    between atoms: C_12  and  C_13
REMARK    4  A    between atoms: C_13  and  C_14
REMARK    5  A    between atoms: C_17  and  N_18
REMARK    6  A    between atoms: C_19  and  C_21
REMARK    7  A    between atoms: C_24  and  C_25
REMARK                            x       y       z     vdW  Elec       q    Type
REMARK                         _______ _______ _______ _____ _____    ______ ____
ROOT
ATOM      1  C   UNL     1       1.987  14.041  19.667  0.00  0.00    +0.000 C 
ATOM      2  C   UNL     1       2.353  14.963  18.492  0.00  0.00    +0.000 C 
ATOM      3  C   UNL     1       2.582  16.410  18.933  0.00  0.00    +0.000 C 
ATOM      4  C   UNL     1       3.612  16.530  20.065  0.00  0.00    +0.000 C 
ATOM      5  C   UNL     1       3.268  15.594  21.230  0.00  0.00    +0.000 C 
ATOM      6  C   UNL     1       3.069  14.151  20.758  0.00  0.00    +0.000 C 
ENDROOT
BRANCH   4   7
ATOM      7  N   UNL     1       4.947  16.258  19.551  0.00  0.00    +0.000 N 
ATOM      8  C   UNL     1       5.955  17.198  19.499  0.00  0.00    +0.000 C 
ATOM      9  O   UNL     1       5.780  18.359  19.862  0.00  0.00    +0.000 OA
ATOM     10  H   UNL     1       5.213  15.301  19.360  0.00  0.00    +0.000 HD
BRANCH   8  11
ATOM     11  C   UNL     1       7.231  16.710  18.987  0.00  0.00    +0.000 A 
ATOM     12  C   UNL     1       8.395  17.432  18.819  0.00  0.00    +0.000 A 
ATOM     13  C   UNL     1       9.466  16.633  18.323  0.00  0.00    +0.000 A 
ATOM     14  C   UNL     1       9.112  15.305  18.150  0.00  0.00    +0.000 A 
ATOM     15  S   UNL     1       7.447  15.083  18.496  0.00  0.00    +0.000 S 
BRANCH  14  16
ATOM     16  C   UNL     1       9.981  14.178  17.775  0.00  0.00    +0.000 A 
ATOM     17  C   UNL     1       9.637  12.848  18.009  0.00  0.00    +0.000 A 
ATOM     18  C   UNL     1      10.602  11.861  17.831  0.00  0.00    +0.000 A 
ATOM     19  C   UNL     1      11.869  12.221  17.393  0.00  0.00    +0.000 A 
ATOM     20  C   UNL     1      12.113  13.557  17.127  0.00  0.00    +0.000 A 
ATOM     21  N   UNL     1      11.205  14.540  17.317  0.00  0.00    +0.000 NA
ENDBRANCH  14  16
ENDBRANCH   8  11
ENDBRANCH   4   7
BRANCH   1  22
ATOM     22  C   UNL     1       0.585  14.324  20.254  0.00  0.00    +0.000 C 
BRANCH  22  23
ATOM     23  C   UNL     1       0.186  13.321  21.345  0.00  0.00    +0.000 C 
BRANCH  23  32
ATOM     24  C   UNL     1       2.434   7.388  19.189  0.00  0.00    +0.000 A 
ATOM     25  C   UNL     1       2.297   8.008  17.941  0.00  0.00    +0.000 A 
ATOM     26  C   UNL     1       1.394   9.059  17.780  0.00  0.00    +0.000 A 
ATOM     27  C   UNL     1       0.626   9.513  18.860  0.00  0.00    +0.000 A 
ATOM     28  C   UNL     1       0.786   8.921  20.125  0.00  0.00    +0.000 A 
ATOM     29  C   UNL     1       1.680   7.850  20.277  0.00  0.00    +0.000 A 
ATOM     30  C   UNL     1       0.030   9.466  21.313  0.00  0.00    +0.000 C 
ATOM     31  C   UNL     1       0.430  10.913  21.670  0.00  0.00    +0.000 C 
ATOM     32  N   UNL     1      -0.185  11.979  20.852  0.00  0.00    +0.000 NA
ATOM     33  C   UNL     1       0.209  11.911  19.426  0.00  0.00    +0.000 C 
ATOM     34  C   UNL     1      -0.313  10.679  18.681  0.00  0.00    +0.000 C 
BRANCH  24  36
ATOM     35  N   UNL     1       4.112   5.433  19.532  0.00  0.00    +0.000 NA
ATOM     36  C   UNL     1       3.353   6.304  19.368  0.00  0.00    +0.000 C 
ENDBRANCH  24  36
ENDBRANCH  23  32
ENDBRANCH  22  23
ENDBRANCH   1  22
TORSDOF 7
ENDMDL
MODEL 3
REMARK VINA RESULT:      -7.5      4.795     10.153
REMARK  Name = 
REMARK  7 active torsions:
REMARK  status: ('A' for Active; 'I' for Inactive)
REMARK    1  A    between atoms: C_2  and  C_3
REMARK    2  A    between atoms: N_11  and  C_12
REMARK    3  A    between atoms: C_12  and  C_13
REMARK    4  A    between atoms: C_13  and  C_14
REMARK    5  A    between atoms: C_17  and  N_18
REMARK    6  A    between atoms: C_19  and  C_21
REMARK    7  A    between atoms: C_24  and  C_25
REMARK                            x       y       z     vdW  Elec       q    Type
REMARK                         _______ _______ _______ _____ _____    ______ ____
ROOT
ATOM      1  C   UNL     1       2.003   5.454  19.291  0.00  0.00    +0.000 C 
ATOM      2  C   UNL     1       1.248   6.137  20.443  0.00  0.00    +0.000 C 
ATOM      3  C   UNL     1       1.852   7.493  20.817  0.00  0.00    +0.000 C 
ATOM      4  C   UNL     1       1.985   8.436  19.613  0.00  0.00    +0.000 C 
ATOM      5  C   UNL     1       2.714   7.752  18.450  0.00  0.00    +0.000 C 
ATOM      6  C   UNL     1       2.070   6.412  18.086  0.00  0.00    +0.000 C 
ENDROOT
BRANCH   4   7
ATOM      7  N   UNL     1       0.668   8.903  19.203  0.00  0.00    +0.000 N 
ATOM      8  C   UNL     1       0.444  10.113  18.580  0.00  0.00    +0.000 C 
ATOM      9  O   UNL     1       1.355  10.905  18.353  0.00  0.00    +0.000 OA
ATOM     10  H   UNL     1      -0.111   8.260  19.231  0.00  0.00    +0.000 HD
BRANCH   8  11
ATOM     11  C   UNL     1      -0.944  10.374  18.214  0.00  0.00    +0.000 A 
ATOM     12  C   UNL     1      -1.641   9.843  17.147  0.00  0.00    +0.000 A 
ATOM     13  C   UNL     1      -2.994  10.289  17.103  0.00  0.00    +0.000 A 
ATOM     14  C   UNL     1      -3.319  11.129  18.155  0.00  0.00    +0.000 A 
ATOM     15  S   UNL     1      -1.934  11.441  19.117  0.00  0.00    +0.000 S 
BRANCH  14  16
ATOM     16  C   UNL     1      -4.639  11.680  18.499  0.00  0.00    +0.000 A 
ATOM     17  C   UNL     1      -4.854  12.485  19.616  0.00  0.00    +0.000 A 
ATOM     18  C   UNL     1      -6.162  12.779  19.994  0.00  0.00    +0.000 A 
ATOM     19  C   UNL     1      -7.214  12.292  19.232  0.00  0.00    +0.000 A 
ATOM     20  C   UNL     1      -6.914  11.549  18.104  0.00  0.00    +0.000 A 
ATOM     21  N   UNL     1      -5.657  11.225  17.728  0.00  0.00    +0.000 NA
ENDBRANCH  14  16
ENDBRANCH   8  11
ENDBRANCH   4   7
BRANCH   1  22
ATOM     22  C   UNL     1       3.417   4.970  19.687  0.00  0.00    +0.000 C 
BRANCH  22  23
ATOM     23  C   UNL     1       4.073   4.108  18.602  0.00  0.00    +0.000 C 
BRANCH  23  32
ATOM     24  C   UNL     1       8.635   9.014  18.738  0.00  0.00    +0.000 A 
ATOM     25  C   UNL     1       8.087   9.295  17.481  0.00  0.00    +0.000 A 
ATOM     26  C   UNL     1       7.460   8.285  16.752  0.00  0.00    +0.000 A 
ATOM     27  C   UNL     1       7.361   6.986  17.270  0.00  0.00    +0.000 A 
ATOM     28  C   UNL     1       7.876   6.705  18.547  0.00  0.00    +0.000 A 
ATOM     29  C   UNL     1       8.525   7.720  19.267  0.00  0.00    +0.000 A 
ATOM     30  C   UNL     1       7.691   5.332  19.149  0.00  0.00    +0.000 C 
ATOM     31  C   UNL     1       6.211   4.979  19.400  0.00  0.00    +0.000 C 
ATOM     32  N   UNL     1       5.443   4.514  18.226  0.00  0.00    +0.000 NA
ATOM     33  C   UNL     1       5.321   5.547  17.171  0.00  0.00    +0.000 C 
ATOM     34  C   UNL     1       6.641   5.916  16.489  0.00  0.00    +0.000 C 
BRANCH  24  36
ATOM     35  N   UNL     1       9.808  10.891  20.099  0.00  0.00    +0.000 NA
ATOM     36  C   UNL     1       9.288  10.040  19.496  0.00  0.00    +0.000 C 
ENDBRANCH  24  36
ENDBRANCH  23  32
ENDBRANCH  22  23
ENDBRANCH   1  22
TORSDOF 7
ENDMDL
MODEL 4
REMARK VINA RESULT:      -7.4      1.805      3.108
REMARK  Name = 
REMARK  7 active torsions:
REMARK  status: ('A' for Active; 'I' for Inactive)
REMARK    1  A    between atoms: C_2  and  C_3
REMARK    2  A    between atoms: N_11  and  C_12
REMARK    3  A    between atoms: C_12  and  C_13
REMARK    4  A    between atoms: C_13  and  C_14
REMARK    5  A    between atoms: C_17  and  N_18
REMARK    6  A    between atoms: C_19  and  C_21
REMARK    7  A    between atoms: C_24  and  C_25
REMARK                            x       y       z     vdW  Elec       q    Type
REMARK                         _______ _______ _______ _____ _____    ______ ____
ROOT
ATOM      1  C   UNL     1       2.214  14.070  19.578  0.00  0.00    +0.000 C 
ATOM      2  C   UNL     1       2.636  14.457  18.152  0.00  0.00    +0.000 C 
ATOM      3  C   UNL     1       2.778  15.970  17.973  0.00  0.00    +0.000 C 
ATOM      4  C   UNL     1       3.713  16.606  19.013  0.00  0.00    +0.000 C 
ATOM      5  C   UNL     1       3.313  16.203  20.438  0.00  0.00    +0.000 C 
ATOM      6  C   UNL     1       3.204  14.683  20.587  0.00  0.00    +0.000 C 
ENDROOT
BRANCH   4   7
ATOM      7  N   UNL     1       5.092  16.234  18.731  0.00  0.00    +0.000 N 
ATOM      8  C   UNL     1       6.181  16.991  19.108  0.00  0.00    +0.000 C 
ATOM      9  O   UNL     1       6.056  18.065  19.691  0.00  0.00    +0.000 OA
ATOM     10  H   UNL     1       5.288  15.308  18.377  0.00  0.00    +0.000 HD
BRANCH   8  11
ATOM     11  C   UNL     1       7.480  16.421  18.765  0.00  0.00    +0.000 A 
ATOM     12  C   UNL     1       8.523  17.048  18.112  0.00  0.00    +0.000 A 
ATOM     13  C   UNL     1       9.662  16.204  17.967  0.00  0.00    +0.000 A 
ATOM     14  C   UNL     1       9.484  14.955  18.539  0.00  0.00    +0.000 A 
ATOM     15  S   UNL     1       7.888  14.803  19.150  0.00  0.00    +0.000 S 
BRANCH  14  16
ATOM     16  C   UNL     1      10.475  13.878  18.688  0.00  0.00    +0.000 A 
ATOM     17  C   UNL     1      10.867  13.060  17.631  0.00  0.00    +0.000 A 
ATOM     18  C   UNL     1      11.634  11.930  17.901  0.00  0.00    +0.000 A 
ATOM     19  C   UNL     1      12.017  11.666  19.208  0.00  0.00    +0.000 A 
ATOM     20  C   UNL     1      11.637  12.561  20.193  0.00  0.00    +0.000 A 
ATOM     21  N   UNL     1      10.869  13.650  19.966  0.00  0.00    +0.000 NA
ENDBRANCH  14  16
ENDBRANCH   8  11
ENDBRANCH   4   7
BRANCH   1  22
ATOM     22  C   UNL     1       0.761  14.476  19.918  0.00  0.00    +0.000 C 
BRANCH  22  23
ATOM     23  C   UNL     1       0.189  13.688  21.104  0.00  0.00    +0.000 C 
BRANCH  23  32
ATOM     24  C   UNL     1       2.270   7.659  19.049  0.00  0.00    +0.000 A 
ATOM     25  C   UNL     1       1.881   8.164  17.803  0.00  0.00    +0.000 A 
ATOM     26  C   UNL     1       0.918   9.170  17.728  0.00  0.00    +0.000 A 
ATOM     27  C   UNL     1       0.339   9.694  18.892  0.00  0.00    +0.000 A 
ATOM     28  C   UNL     1       0.752   9.219  20.149  0.00  0.00    +0.000 A 
ATOM     29  C   UNL     1       1.706   8.190  20.217  0.00  0.00    +0.000 A 
ATOM     30  C   UNL     1       0.201   9.841  21.409  0.00  0.00    +0.000 C 
ATOM     31  C   UNL     1       0.594  11.325  21.569  0.00  0.00    +0.000 C 
ATOM     32  N   UNL     1      -0.206  12.298  20.797  0.00  0.00    +0.000 NA
ATOM     33  C   UNL     1      -0.074  12.118  19.332  0.00  0.00    +0.000 C 
ATOM     34  C   UNL     1      -0.667  10.812  18.797  0.00  0.00    +0.000 C 
BRANCH  24  36
ATOM     35  N   UNL     1       4.069   5.792  19.228  0.00  0.00    +0.000 NA
ATOM     36  C   UNL     1       3.254   6.622  19.141  0.00  0.00    +0.000 C 
ENDBRANCH  24  36
ENDBRANCH  23  32
ENDBRANCH  22  23
ENDBRANCH   1  22
TORSDOF 7
ENDMDL
MODEL 5
REMARK VINA RESULT:      -7.4      5.438      9.714
REMARK  Name = 
REMARK  7 active torsions:
REMARK  status: ('A' for Active; 'I' for Inactive)
REMARK    1  A    between atoms: C_2  and  C_3
REMARK    2  A    between atoms: N_11  and  C_12
REMARK    3  A    between atoms: C_12  and  C_13
REMARK    4  A    between atoms: C_13  and  C_14
REMARK    5  A    between atoms: C_17  and  N_18
REMARK    6  A    between atoms: C_19  and  C_21
REMARK    7  A    between atoms: C_24  and  C_25
REMARK                            x       y       z     vdW  Elec       q    Type
REMARK                         _______ _______ _______ _____ _____    ______ ____
ROOT
ATOM      1  C   UNL     1      -1.388  13.443  21.181  0.00  0.00    +0.000 C 
ATOM      2  C   UNL     1      -2.113  12.374  20.349  0.00  0.00    +0.000 C 
ATOM      3  C   UNL     1      -1.665  12.367  18.886  0.00  0.00    +0.000 C 
ATOM      4  C   UNL     1      -0.142  12.243  18.731  0.00  0.00    +0.000 C 
ATOM      5  C   UNL     1       0.589  13.291  19.579  0.00  0.00    +0.000 C 
ATOM      6  C   UNL     1       0.134  13.254  21.041  0.00  0.00    +0.000 C 
ENDROOT
BRANCH   4   7
ATOM      7  N   UNL     1       0.283  10.895  19.083  0.00  0.00    +0.000 N 
ATOM      8  C   UNL     1       1.442  10.311  18.617  0.00  0.00    +0.000 C 
ATOM      9  O   UNL     1       2.191  10.890  17.834  0.00  0.00    +0.000 OA
ATOM     10  H   UNL     1      -0.203  10.405  19.822  0.00  0.00    +0.000 HD
BRANCH   8  11
ATOM     11  C   UNL     1       1.706   8.969  19.123  0.00  0.00    +0.000 A 
ATOM     12  C   UNL     1       1.440   8.485  20.388  0.00  0.00    +0.000 A 
ATOM     13  C   UNL     1       1.798   7.113  20.534  0.00  0.00    +0.000 A 
ATOM     14  C   UNL     1       2.302   6.560  19.368  0.00  0.00    +0.000 A 
ATOM     15  S   UNL     1       2.426   7.759  18.147  0.00  0.00    +0.000 S 
BRANCH  14  16
ATOM     16  C   UNL     1       2.657   5.156  19.112  0.00  0.00    +0.000 A 
ATOM     17  C   UNL     1       2.802   4.635  17.828  0.00  0.00    +0.000 A 
ATOM     18  C   UNL     1       2.917   3.257  17.668  0.00  0.00    +0.000 A 
ATOM     19  C   UNL     1       2.919   2.441  18.791  0.00  0.00    +0.000 A 
ATOM     20  C   UNL     1       2.829   3.042  20.035  0.00  0.00    +0.000 A 
ATOM     21  N   UNL     1       2.689   4.373  20.219  0.00  0.00    +0.000 NA
ENDBRANCH  14  16
ENDBRANCH   8  11
ENDBRANCH   4   7
BRANCH   1  22
ATOM     22  C   UNL     1      -1.798  14.888  20.812  0.00  0.00    +0.000 C 
BRANCH  22  23
ATOM     23  C   UNL     1      -2.681  15.544  21.882  0.00  0.00    +0.000 C 
BRANCH  23  32
ATOM     24  C   UNL     1      -7.183  10.823  20.351  0.00  0.00    +0.000 A 
ATOM     25  C   UNL     1      -7.148  11.466  19.108  0.00  0.00    +0.000 A 
ATOM     26  C   UNL     1      -6.766  12.805  19.027  0.00  0.00    +0.000 A 
ATOM     27  C   UNL     1      -6.404  13.516  20.179  0.00  0.00    +0.000 A 
ATOM     28  C   UNL     1      -6.400  12.866  21.425  0.00  0.00    +0.000 A 
ATOM     29  C   UNL     1      -6.806  11.525  21.504  0.00  0.00    +0.000 A 
ATOM     30  C   UNL     1      -5.923  13.599  22.656  0.00  0.00    +0.000 C 
ATOM     31  C   UNL     1      -4.433  13.993  22.583  0.00  0.00    +0.000 C 
ATOM     32  N   UNL     1      -4.117  15.205  21.798  0.00  0.00    +0.000 NA
ATOM     33  C   UNL     1      -4.452  15.065  20.362  0.00  0.00    +0.000 C 
ATOM     34  C   UNL     1      -5.950  14.949  20.069  0.00  0.00    +0.000 C 
BRANCH  24  36
ATOM     35  N   UNL     1      -7.917   8.337  20.549  0.00  0.00    +0.000 NA
ATOM     36  C   UNL     1      -7.578   9.449  20.451  0.00  0.00    +0.000 C 
ENDBRANCH  24  36
ENDBRANCH  23  32
ENDBRANCH  22  23
ENDBRANCH   1  22
TORSDOF 7
ENDMDL
MODEL 6
REMARK VINA RESULT:      -7.3      5.296     10.172
REMARK  Name = 
REMARK  7 active torsions:
REMARK  status: ('A' for Active; 'I' for Inactive)
REMARK    1  A    between atoms: C_2  and  C_3
REMARK    2  A    between atoms: N_11  and  C_12
REMARK    3  A    between atoms: C_12  and  C_13
REMARK    4  A    between atoms: C_13  and  C_14
REMARK    5  A    between atoms: C_17  and  N_18
REMARK    6  A    between atoms: C_19  and  C_21
REMARK    7  A    between atoms: C_24  and  C_25
REMARK                            x       y       z     vdW  Elec       q    Type
REMARK                         _______ _______ _______ _____ _____    ______ ____
ROOT
ATOM      1  C   UNL     1       0.381  13.558  18.888  0.00  0.00    +0.000 C 
ATOM      2  C   UNL     1       1.574  13.002  19.682  0.00  0.00    +0.000 C 
ATOM      3  C   UNL     1       1.143  12.286  20.963  0.00  0.00    +0.000 C 
ATOM      4  C   UNL     1       0.096  11.192  20.710  0.00  0.00    +0.000 C 
ATOM      5  C   UNL     1      -1.086  11.733  19.896  0.00  0.00    +0.000 C 
ATOM      6  C   UNL     1      -0.621  12.421  18.609  0.00  0.00    +0.000 C 
ENDROOT
BRANCH   4   7
ATOM      7  N   UNL     1       0.717  10.058  20.040  0.00  0.00    +0.000 N 
ATOM      8  C   UNL     1       1.198   8.948  20.701  0.00  0.00    +0.000 C 
ATOM      9  O   UNL     1       1.161   8.853  21.925  0.00  0.00    +0.000 OA
ATOM     10  H   UNL     1       0.666   9.996  19.032  0.00  0.00    +0.000 HD
BRANCH   8  11
ATOM     11  C   UNL     1       1.747   7.904  19.841  0.00  0.00    +0.000 A 
ATOM     12  C   UNL     1       2.269   8.056  18.572  0.00  0.00    +0.000 A 
ATOM     13  C   UNL     1       2.747   6.828  18.028  0.00  0.00    +0.000 A 
ATOM     14  C   UNL     1       2.611   5.762  18.903  0.00  0.00    +0.000 A 
ATOM     15  S   UNL     1       1.805   6.264  20.331  0.00  0.00    +0.000 S 
BRANCH  14  16
ATOM     16  C   UNL     1       3.099   4.385  18.734  0.00  0.00    +0.000 A 
ATOM     17  C   UNL     1       2.921   3.658  17.558  0.00  0.00    +0.000 A 
ATOM     18  C   UNL     1       3.210   2.297  17.556  0.00  0.00    +0.000 A 
ATOM     19  C   UNL     1       3.699   1.705  18.712  0.00  0.00    +0.000 A 
ATOM     20  C   UNL     1       3.904   2.508  19.820  0.00  0.00    +0.000 A 
ATOM     21  N   UNL     1       3.606   3.826  19.861  0.00  0.00    +0.000 NA
ENDBRANCH  14  16
ENDBRANCH   8  11
ENDBRANCH   4   7
BRANCH   1  22
ATOM     22  C   UNL     1      -0.319  14.747  19.587  0.00  0.00    +0.000 C 
BRANCH  22  23
ATOM     23  C   UNL     1       0.312  15.090  20.943  0.00  0.00    +0.000 C 
BRANCH  23  32
ATOM     24  C   UNL     1      -5.736  13.620  23.426  0.00  0.00    +0.000 A 
ATOM     25  C   UNL     1      -6.097  14.763  22.703  0.00  0.00    +0.000 A 
ATOM     26  C   UNL     1      -5.141  15.739  22.420  0.00  0.00    +0.000 A 
ATOM     27  C   UNL     1      -3.814  15.584  22.841  0.00  0.00    +0.000 A 
ATOM     28  C   UNL     1      -3.435  14.421  23.534  0.00  0.00    +0.000 A 
ATOM     29  C   UNL     1      -4.406  13.452  23.836  0.00  0.00    +0.000 A 
ATOM     30  C   UNL     1      -1.990  14.204  23.911  0.00  0.00    +0.000 C 
ATOM     31  C   UNL     1      -1.062  14.069  22.686  0.00  0.00    +0.000 C 
ATOM     32  N   UNL     1      -0.653  15.332  22.036  0.00  0.00    +0.000 NA
ATOM     33  C   UNL     1      -1.794  16.078  21.456  0.00  0.00    +0.000 C 
ATOM     34  C   UNL     1      -2.783  16.625  22.488  0.00  0.00    +0.000 C 
BRANCH  24  36
ATOM     35  N   UNL     1      -7.506  11.805  23.994  0.00  0.00    +0.000 NA
ATOM     36  C   UNL     1      -6.707  12.611  23.730  0.00  0.00    +0.000 C 
ENDBRANCH  24  36
ENDBRANCH  23  32
ENDBRANCH  22  23
ENDBRANCH   1  22
TORSDOF 7
ENDMDL
MODEL 7
REMARK VINA RESULT:      -7.1      0.889      1.045
REMARK  Name = 
REMARK  7 active torsions:
REMARK  status: ('A' for Active; 'I' for Inactive)
REMARK    1  A    between atoms: C_2  and  C_3
REMARK    2  A    between atoms: N_11  and  C_12
REMARK    3  A    between atoms: C_12  and  C_13
REMARK    4  A    between atoms: C_13  and  C_14
REMARK    5  A    between atoms: C_17  and  N_18
REMARK    6  A    between atoms: C_19  and  C_21
REMARK    7  A    between atoms: C_24  and  C_25
REMARK                            x       y       z     vdW  Elec       q    Type
REMARK                         _______ _______ _______ _____ _____    ______ ____
ROOT
ATOM      1  C   UNL     1       1.492  12.689  19.217  0.00  0.00    +0.000 C 
ATOM      2  C   UNL     1       1.687  13.776  18.148  0.00  0.00    +0.000 C 
ATOM      3  C   UNL     1       1.196  15.149  18.613  0.00  0.00    +0.000 C 
ATOM      4  C   UNL     1       1.813  15.579  19.951  0.00  0.00    +0.000 C 
ATOM      5  C   UNL     1       1.644  14.488  21.016  0.00  0.00    +0.000 C 
ATOM      6  C   UNL     1       2.167  13.134  20.528  0.00  0.00    +0.000 C 
ENDROOT
BRANCH   4   7
ATOM      7  N   UNL     1       3.217  15.915  19.764  0.00  0.00    +0.000 N 
ATOM      8  C   UNL     1       3.946  16.683  20.648  0.00  0.00    +0.000 C 
ATOM      9  O   UNL     1       3.439  17.170  21.656  0.00  0.00    +0.000 OA
ATOM     10  H   UNL     1       3.740  15.447  19.036  0.00  0.00    +0.000 HD
BRANCH   8  11
ATOM     11  C   UNL     1       5.350  16.868  20.296  0.00  0.00    +0.000 A 
ATOM     12  C   UNL     1       6.161  17.935  20.627  0.00  0.00    +0.000 A 
ATOM     13  C   UNL     1       7.493  17.778  20.145  0.00  0.00    +0.000 A 
ATOM     14  C   UNL     1       7.687  16.579  19.480  0.00  0.00    +0.000 A 
ATOM     15  S   UNL     1       6.210  15.715  19.366  0.00  0.00    +0.000 S 
BRANCH  14  16
ATOM     16  C   UNL     1       8.948  16.026  18.959  0.00  0.00    +0.000 A 
ATOM     17  C   UNL     1       8.992  14.976  18.044  0.00  0.00    +0.000 A 
ATOM     18  C   UNL     1      10.214  14.368  17.775  0.00  0.00    +0.000 A 
ATOM     19  C   UNL     1      11.361  14.842  18.396  0.00  0.00    +0.000 A 
ATOM     20  C   UNL     1      11.241  15.927  19.247  0.00  0.00    +0.000 A 
ATOM     21  N   UNL     1      10.065  16.520  19.549  0.00  0.00    +0.000 NA
ENDBRANCH  14  16
ENDBRANCH   8  11
ENDBRANCH   4   7
BRANCH   1  22
ATOM     22  C   UNL     1       0.007  12.328  19.459  0.00  0.00    +0.000 C 
BRANCH  22  23
ATOM     23  C   UNL     1      -0.276  10.832  19.274  0.00  0.00    +0.000 C 
BRANCH  23  32
ATOM     24  C   UNL     1       2.083   4.585  18.717  0.00  0.00    +0.000 A 
ATOM     25  C   UNL     1       1.733   4.539  20.072  0.00  0.00    +0.000 A 
ATOM     26  C   UNL     1       1.673   5.717  20.817  0.00  0.00    +0.000 A 
ATOM     27  C   UNL     1       1.947   6.955  20.219  0.00  0.00    +0.000 A 
ATOM     28  C   UNL     1       2.262   7.013  18.850  0.00  0.00    +0.000 A 
ATOM     29  C   UNL     1       2.343   5.822  18.111  0.00  0.00    +0.000 A 
ATOM     30  C   UNL     1       2.468   8.350  18.180  0.00  0.00    +0.000 C 
ATOM     31  C   UNL     1       1.197   9.223  18.174  0.00  0.00    +0.000 C 
ATOM     32  N   UNL     1       0.901   9.951  19.425  0.00  0.00    +0.000 NA
ATOM     33  C   UNL     1       0.628   9.048  20.567  0.00  0.00    +0.000 C 
ATOM     34  C   UNL     1       1.834   8.223  21.026  0.00  0.00    +0.000 C 
BRANCH  24  36
ATOM     35  N   UNL     1       2.202   2.392  17.327  0.00  0.00    +0.000 NA
ATOM     36  C   UNL     1       2.155   3.383  17.941  0.00  0.00    +0.000 C 
ENDBRANCH  24  36
ENDBRANCH  23  32
ENDBRANCH  22  23
ENDBRANCH   1  22
TORSDOF 7
ENDMDL
MODEL 8
REMARK VINA RESULT:      -7.1      5.146      9.490
REMARK  Name = 
REMARK  7 active torsions:
REMARK  status: ('A' for Active; 'I' for Inactive)
REMARK    1  A    between atoms: C_2  and  C_3
REMARK    2  A    between atoms: N_11  and  C_12
REMARK    3  A    between atoms: C_12  and  C_13
REMARK    4  A    between atoms: C_13  and  C_14
REMARK    5  A    between atoms: C_17  and  N_18
REMARK    6  A    between atoms: C_19  and  C_21
REMARK    7  A    between atoms: C_24  and  C_25
REMARK                            x       y       z     vdW  Elec       q    Type
REMARK                         _______ _______ _______ _____ _____    ______ ____
ROOT
ATOM      1  C   UNL     1       1.264   4.268  19.234  0.00  0.00    +0.000 C 
ATOM      2  C   UNL     1       1.064   5.096  20.514  0.00  0.00    +0.000 C 
ATOM      3  C   UNL     1       2.201   6.092  20.751  0.00  0.00    +0.000 C 
ATOM      4  C   UNL     1       2.454   7.004  19.542  0.00  0.00    +0.000 C 
ATOM      5  C   UNL     1       2.629   6.185  18.257  0.00  0.00    +0.000 C 
ATOM      6  C   UNL     1       1.463   5.217  18.037  0.00  0.00    +0.000 C 
ENDROOT
BRANCH   4   7
ATOM      7  N   UNL     1       1.366   7.962  19.409  0.00  0.00    +0.000 N 
ATOM      8  C   UNL     1       1.458   9.129  18.679  0.00  0.00    +0.000 C 
ATOM      9  O   UNL     1       2.494   9.457  18.107  0.00  0.00    +0.000 OA
ATOM     10  H   UNL     1       0.444   7.704  19.733  0.00  0.00    +0.000 HD
BRANCH   8  11
ATOM     11  C   UNL     1       0.239   9.930  18.638  0.00  0.00    +0.000 A 
ATOM     12  C   UNL     1      -0.740   9.915  17.664  0.00  0.00    +0.000 A 
ATOM     13  C   UNL     1      -1.812  10.807  17.956  0.00  0.00    +0.000 A 
ATOM     14  C   UNL     1      -1.653  11.466  19.163  0.00  0.00    +0.000 A 
ATOM     15  S   UNL     1      -0.142  11.062  19.867  0.00  0.00    +0.000 S 
BRANCH  14  16
ATOM     16  C   UNL     1      -2.606  12.360  19.840  0.00  0.00    +0.000 A 
ATOM     17  C   UNL     1      -3.986  12.255  19.679  0.00  0.00    +0.000 A 
ATOM     18  C   UNL     1      -4.801  13.270  20.170  0.00  0.00    +0.000 A 
ATOM     19  C   UNL     1      -4.224  14.342  20.837  0.00  0.00    +0.000 A 
ATOM     20  C   UNL     1      -2.851  14.342  21.007  0.00  0.00    +0.000 A 
ATOM     21  N   UNL     1      -2.032  13.386  20.517  0.00  0.00    +0.000 NA
ENDBRANCH  14  16
ENDBRANCH   8  11
ENDBRANCH   4   7
BRANCH   1  22
ATOM     22  C   UNL     1       2.432   3.259  19.334  0.00  0.00    +0.000 C 
BRANCH  22  23
ATOM     23  C   UNL     1       3.004   2.877  17.963  0.00  0.00    +0.000 C 
BRANCH  23  32
ATOM     24  C   UNL     1       7.858   7.496  17.936  0.00  0.00    +0.000 A 
ATOM     25  C   UNL     1       7.590   7.491  16.563  0.00  0.00    +0.000 A 
ATOM     26  C   UNL     1       7.031   6.361  15.966  0.00  0.00    +0.000 A 
ATOM     27  C   UNL     1       6.722   5.227  16.730  0.00  0.00    +0.000 A 
ATOM     28  C   UNL     1       6.954   5.239  18.117  0.00  0.00    +0.000 A 
ATOM     29  C   UNL     1       7.537   6.371  18.708  0.00  0.00    +0.000 A 
ATOM     30  C   UNL     1       6.539   4.058  18.960  0.00  0.00    +0.000 C 
ATOM     31  C   UNL     1       5.013   3.831  18.971  0.00  0.00    +0.000 C 
ATOM     32  N   UNL     1       4.450   3.130  17.799  0.00  0.00    +0.000 NA
ATOM     33  C   UNL     1       4.623   3.885  16.537  0.00  0.00    +0.000 C 
ATOM     34  C   UNL     1       6.077   4.031  16.079  0.00  0.00    +0.000 C 
BRANCH  24  36
ATOM     35  N   UNL     1       8.931   9.575  19.067  0.00  0.00    +0.000 NA
ATOM     36  C   UNL     1       8.438   8.647  18.562  0.00  0.00    +0.000 C 
ENDBRANCH  24  36
ENDBRANCH  23  32
ENDBRANCH  22  23
ENDBRANCH   1  22
TORSDOF 7
ENDMDL
MODEL 9
REMARK VINA RESULT:      -7.1      2.024      3.400
REMARK  Name = 
REMARK  7 active torsions:
REMARK  status: ('A' for Active; 'I' for Inactive)
REMARK    1  A    between atoms: C_2  and  C_3
REMARK    2  A    between atoms: N_11  and  C_12
REMARK    3  A    between atoms: C_12  and  C_13
REMARK    4  A    between atoms: C_13  and  C_14
REMARK    5  A    between atoms: C_17  and  N_18
REMARK    6  A    between atoms: C_19  and  C_21
REMARK    7  A    between atoms: C_24  and  C_25
REMARK                            x       y       z     vdW  Elec       q    Type
REMARK                         _______ _______ _______ _____ _____    ______ ____
ROOT
ATOM      1  C   UNL     1       1.461  14.673  19.613  0.00  0.00    +0.000 C 
ATOM      2  C   UNL     1       1.877  15.347  18.295  0.00  0.00    +0.000 C 
ATOM      3  C   UNL     1       2.216  16.828  18.478  0.00  0.00    +0.000 C 
ATOM      4  C   UNL     1       3.267  17.067  19.572  0.00  0.00    +0.000 C 
ATOM      5  C   UNL     1       2.870  16.376  20.882  0.00  0.00    +0.000 C 
ATOM      6  C   UNL     1       2.561  14.891  20.668  0.00  0.00    +0.000 C 
ENDROOT
BRANCH   4   7
ATOM      7  N   UNL     1       4.571  16.612  19.113  0.00  0.00    +0.000 N 
ATOM      8  C   UNL     1       5.746  17.296  19.345  0.00  0.00    +0.000 C 
ATOM      9  O   UNL     1       5.766  18.371  19.939  0.00  0.00    +0.000 OA
ATOM     10  H   UNL     1       4.660  15.678  18.737  0.00  0.00    +0.000 HD
BRANCH   8  11
ATOM     11  C   UNL     1       6.951  16.648  18.837  0.00  0.00    +0.000 A 
ATOM     12  C   UNL     1       8.128  17.257  18.449  0.00  0.00    +0.000 A 
ATOM     13  C   UNL     1       9.115  16.318  18.030  0.00  0.00    +0.000 A 
ATOM     14  C   UNL     1       8.689  15.004  18.134  0.00  0.00    +0.000 A 
ATOM     15  S   UNL     1       7.051  14.949  18.641  0.00  0.00    +0.000 S 
BRANCH  14  16
ATOM     16  C   UNL     1       9.470  13.778  17.910  0.00  0.00    +0.000 A 
ATOM     17  C   UNL     1       8.972  12.505  18.177  0.00  0.00    +0.000 A 
ATOM     18  C   UNL     1       9.845  11.420  18.151  0.00  0.00    +0.000 A 
ATOM     19  C   UNL     1      11.178  11.629  17.827  0.00  0.00    +0.000 A 
ATOM     20  C   UNL     1      11.580  12.916  17.516  0.00  0.00    +0.000 A 
ATOM     21  N   UNL     1      10.763  13.992  17.560  0.00  0.00    +0.000 NA
ENDBRANCH  14  16
ENDBRANCH   8  11
ENDBRANCH   4   7
BRANCH   1  22
ATOM     22  C   UNL     1       0.090  15.156  20.141  0.00  0.00    +0.000 C 
BRANCH  22  23
ATOM     23  C   UNL     1      -0.366  14.391  21.390  0.00  0.00    +0.000 C 
BRANCH  23  32
ATOM     24  C   UNL     1       1.514   8.555  18.687  0.00  0.00    +0.000 A 
ATOM     25  C   UNL     1       0.776   9.041  17.602  0.00  0.00    +0.000 A 
ATOM     26  C   UNL     1      -0.241   9.972  17.812  0.00  0.00    +0.000 A 
ATOM     27  C   UNL     1      -0.527  10.440  19.102  0.00  0.00    +0.000 A 
ATOM     28  C   UNL     1       0.236   9.985  20.191  0.00  0.00    +0.000 A 
ATOM     29  C   UNL     1       1.243   9.031  19.977  0.00  0.00    +0.000 A 
ATOM     30  C   UNL     1      -0.005  10.553  21.569  0.00  0.00    +0.000 C 
ATOM     31  C   UNL     1       0.312  12.060  21.664  0.00  0.00    +0.000 C 
ATOM     32  N   UNL     1      -0.730  12.978  21.157  0.00  0.00    +0.000 NA
ATOM     33  C   UNL     1      -0.978  12.823  19.705  0.00  0.00    +0.000 C 
ATOM     34  C   UNL     1      -1.598  11.480  19.307  0.00  0.00    +0.000 C 
BRANCH  24  36
ATOM     35  N   UNL     1       3.410   6.810  18.349  0.00  0.00    +0.000 NA
ATOM     36  C   UNL     1       2.557   7.593  18.487  0.00  0.00    +0.000 C 
ENDBRANCH  24  36
ENDBRANCH  23  32
ENDBRANCH  22  23
ENDBRANCH   1  22
TORSDOF 7
ENDMDL
