MODEL 1
REMARK VINA RESULT:      -6.5      0.000      0.000
REMARK  Name = 
REMARK  3 active torsions:
REMARK  status: ('A' for Active; 'I' for Inactive)
REMARK    1  A    between atoms: C_1  and  N_2
REMARK    2  A    between atoms: N_5  and  N_6
REMARK    3  A    between atoms: N_9  and  C_10
REMARK                            x       y       z     vdW  Elec       q    Type
REMARK                         _______ _______ _______ _____ _____    ______ ____
ROOT
ATOM      1  N   UNL     1       2.578   6.623  19.976  0.00  0.00    +0.000 N 
ATOM      2  C   UNL     1       1.901   7.837  20.051  0.00  0.00    +0.000 C 
ATOM      3  O   UNL     1       1.660   8.515  19.055  0.00  0.00    +0.000 OA
ATOM      4  N   UNL     1       1.507   8.145  21.343  0.00  0.00    +0.000 N 
ATOM      5  H   UNL     1       2.918   6.175  20.815  0.00  0.00    +0.000 HD
ATOM      6  H   UNL     1       1.988   7.671  22.091  0.00  0.00    +0.000 HD
ENDROOT
BRANCH   1  11
ATOM      7  C   UNL     1       3.907   2.022  19.345  0.00  0.00    +0.000 C 
ATOM      8  N   UNL     1       3.737   3.325  18.709  0.00  0.00    +0.000 NA
ATOM      9  C   UNL     1       4.637   4.329  19.301  0.00  0.00    +0.000 C 
ATOM     10  C   UNL     1       4.432   5.737  18.700  0.00  0.00    +0.000 C 
ATOM     11  N   UNL     1       3.037   6.194  18.706  0.00  0.00    +0.000 NA
ATOM     12  C   UNL     1       2.154   5.157  18.134  0.00  0.00    +0.000 C 
ATOM     13  C   UNL     1       2.337   3.779  18.798  0.00  0.00    +0.000 C 
ENDBRANCH   1  11
BRANCH   4  14
ATOM     14  C   UNL     1       0.716   9.264  21.691  0.00  0.00    +0.000 A 
ATOM     15  C   UNL     1       0.790  10.485  21.006  0.00  0.00    +0.000 A 
ATOM     16  C   UNL     1       0.074  11.596  21.443  0.00  0.00    +0.000 A 
ATOM     17  C   UNL     1      -0.748  11.484  22.553  0.00  0.00    +0.000 A 
ATOM     18  F   UNL     1      -1.411  12.558  22.996  0.00  0.00    +0.000 F 
ATOM     19  C   UNL     1      -0.890  10.265  23.208  0.00  0.00    +0.000 A 
ATOM     20  C   UNL     1      -0.169   9.150  22.771  0.00  0.00    +0.000 A 
ENDBRANCH   4  14
TORSDOF 2
ENDMDL
MODEL 2
REMARK VINA RESULT:      -6.4      1.698      2.466
REMARK  Name = 
REMARK  3 active torsions:
REMARK  status: ('A' for Active; 'I' for Inactive)
REMARK    1  A    between atoms: C_1  and  N_2
REMARK    2  A    between atoms: N_5  and  N_6
REMARK    3  A    between atoms: N_9  and  C_10
REMARK                            x       y       z     vdW  Elec       q    Type
REMARK                         _______ _______ _______ _____ _____    ______ ____
ROOT
ATOM      1  N   UNL     1       3.032   6.370  18.849  0.00  0.00    +0.000 N 
ATOM      2  C   UNL     1       2.129   6.828  19.805  0.00  0.00    +0.000 C 
ATOM      3  O   UNL     1       1.613   6.079  20.631  0.00  0.00    +0.000 OA
ATOM      4  N   UNL     1       1.933   8.198  19.735  0.00  0.00    +0.000 N 
ATOM      5  H   UNL     1       3.303   6.962  18.077  0.00  0.00    +0.000 HD
ATOM      6  H   UNL     1       2.183   8.650  18.870  0.00  0.00    +0.000 HD
ENDROOT
BRANCH   1  11
ATOM      7  C   UNL     1       7.162   4.830  16.873  0.00  0.00    +0.000 C 
ATOM      8  N   UNL     1       5.930   4.437  17.551  0.00  0.00    +0.000 NA
ATOM      9  C   UNL     1       4.746   4.767  16.740  0.00  0.00    +0.000 C 
ATOM     10  C   UNL     1       3.421   4.429  17.460  0.00  0.00    +0.000 C 
ATOM     11  N   UNL     1       3.318   4.983  18.815  0.00  0.00    +0.000 NA
ATOM     12  C   UNL     1       4.530   4.661  19.596  0.00  0.00    +0.000 C 
ATOM     13  C   UNL     1       5.831   5.068  18.879  0.00  0.00    +0.000 C 
ENDBRANCH   1  11
BRANCH   4  14
ATOM     14  C   UNL     1       1.150   8.940  20.649  0.00  0.00    +0.000 A 
ATOM     15  C   UNL     1       1.243   8.771  22.037  0.00  0.00    +0.000 A 
ATOM     16  C   UNL     1       0.382   9.441  22.901  0.00  0.00    +0.000 A 
ATOM     17  C   UNL     1      -0.562  10.312  22.381  0.00  0.00    +0.000 A 
ATOM     18  F   UNL     1      -1.415  10.932  23.204  0.00  0.00    +0.000 F 
ATOM     19  C   UNL     1      -0.630  10.548  21.011  0.00  0.00    +0.000 A 
ATOM     20  C   UNL     1       0.234   9.872  20.144  0.00  0.00    +0.000 A 
ENDBRANCH   4  14
TORSDOF 2
ENDMDL
MODEL 3
REMARK VINA RESULT:      -6.4      1.727      2.315
REMARK  Name = 
REMARK  3 active torsions:
REMARK  status: ('A' for Active; 'I' for Inactive)
REMARK    1  A    between atoms: C_1  and  N_2
REMARK    2  A    between atoms: N_5  and  N_6
REMARK    3  A    between atoms: N_9  and  C_10
REMARK                            x       y       z     vdW  Elec       q    Type
REMARK                         _______ _______ _______ _____ _____    ______ ____
ROOT
ATOM      1  N   UNL     1       3.094   6.312  18.914  0.00  0.00    +0.000 N 
ATOM      2  C   UNL     1       2.137   6.754  19.822  0.00  0.00    +0.000 C 
ATOM      3  O   UNL     1       1.580   5.994  20.609  0.00  0.00    +0.000 OA
ATOM      4  N   UNL     1       1.937   8.124  19.755  0.00  0.00    +0.000 N 
ATOM      5  H   UNL     1       3.406   6.914  18.165  0.00  0.00    +0.000 HD
ATOM      6  H   UNL     1       2.232   8.587  18.911  0.00  0.00    +0.000 HD
ENDROOT
BRANCH   1  11
ATOM      7  C   UNL     1       7.097   4.776  16.687  0.00  0.00    +0.000 C 
ATOM      8  N   UNL     1       5.917   4.383  17.451  0.00  0.00    +0.000 NA
ATOM      9  C   UNL     1       4.678   4.691  16.718  0.00  0.00    +0.000 C 
ATOM     10  C   UNL     1       3.408   4.354  17.529  0.00  0.00    +0.000 C 
ATOM     11  N   UNL     1       3.390   4.927  18.881  0.00  0.00    +0.000 NA
ATOM     12  C   UNL     1       4.655   4.627  19.582  0.00  0.00    +0.000 C 
ATOM     13  C   UNL     1       5.901   5.033  18.775  0.00  0.00    +0.000 C 
ENDBRANCH   1  11
BRANCH   4  14
ATOM     14  C   UNL     1       1.099   8.852  20.632  0.00  0.00    +0.000 A 
ATOM     15  C   UNL     1       0.105   9.729  20.175  0.00  0.00    +0.000 A 
ATOM     16  C   UNL     1      -0.629  10.507  21.066  0.00  0.00    +0.000 A 
ATOM     17  C   UNL     1      -0.394  10.389  22.427  0.00  0.00    +0.000 A 
ATOM     18  F   UNL     1      -1.072  11.160  23.283  0.00  0.00    +0.000 F 
ATOM     19  C   UNL     1       0.539   9.477  22.907  0.00  0.00    +0.000 A 
ATOM     20  C   UNL     1       1.279   8.697  22.013  0.00  0.00    +0.000 A 
ENDBRANCH   4  14
TORSDOF 2
ENDMDL
MODEL 4
REMARK VINA RESULT:      -6.3      0.729      1.255
REMARK  Name = 
REMARK  3 active torsions:
REMARK  status: ('A' for Active; 'I' for Inactive)
REMARK    1  A    between atoms: C_1  and  N_2
REMARK    2  A    between atoms: N_5  and  N_6
REMARK    3  A    between atoms: N_9  and  C_10
REMARK                            x       y       z     vdW  Elec       q    Type
REMARK                         _______ _______ _______ _____ _____    ______ ____
ROOT
ATOM      1  N   UNL     1       2.760   6.252  19.914  0.00  0.00    +0.000 N 
ATOM      2  C   UNL     1       2.160   7.507  19.976  0.00  0.00    +0.000 C 
ATOM      3  O   UNL     1       2.207   8.302  19.041  0.00  0.00    +0.000 OA
ATOM      4  N   UNL     1       1.485   7.713  21.169  0.00  0.00    +0.000 N 
ATOM      5  H   UNL     1       2.860   5.692  20.749  0.00  0.00    +0.000 HD
ATOM      6  H   UNL     1       1.741   7.124  21.945  0.00  0.00    +0.000 HD
ENDROOT
BRANCH   1  11
ATOM      7  C   UNL     1       3.430   1.609  18.764  0.00  0.00    +0.000 C 
ATOM      8  N   UNL     1       3.667   2.994  18.370  0.00  0.00    +0.000 NA
ATOM      9  C   UNL     1       4.515   3.691  19.352  0.00  0.00    +0.000 C 
ATOM     10  C   UNL     1       4.727   5.180  19.002  0.00  0.00    +0.000 C 
ATOM     11  N   UNL     1       3.484   5.918  18.744  0.00  0.00    +0.000 NA
ATOM     12  C   UNL     1       2.642   5.183  17.778  0.00  0.00    +0.000 C 
ATOM     13  C   UNL     1       2.396   3.719  18.188  0.00  0.00    +0.000 C 
ENDBRANCH   1  11
BRANCH   4  14
ATOM     14  C   UNL     1       0.703   8.856  21.456  0.00  0.00    +0.000 A 
ATOM     15  C   UNL     1       0.339   9.216  22.761  0.00  0.00    +0.000 A 
ATOM     16  C   UNL     1      -0.520  10.286  22.996  0.00  0.00    +0.000 A 
ATOM     17  C   UNL     1      -0.996  11.026  21.925  0.00  0.00    +0.000 A 
ATOM     18  F   UNL     1      -1.848  12.033  22.143  0.00  0.00    +0.000 F 
ATOM     19  C   UNL     1      -0.595  10.729  20.626  0.00  0.00    +0.000 A 
ATOM     20  C   UNL     1       0.265   9.653  20.390  0.00  0.00    +0.000 A 
ENDBRANCH   4  14
TORSDOF 2
ENDMDL
MODEL 5
REMARK VINA RESULT:      -6.3      6.437      7.677
REMARK  Name = 
REMARK  3 active torsions:
REMARK  status: ('A' for Active; 'I' for Inactive)
REMARK    1  A    between atoms: C_1  and  N_2
REMARK    2  A    between atoms: N_5  and  N_6
REMARK    3  A    between atoms: N_9  and  C_10
REMARK                            x       y       z     vdW  Elec       q    Type
REMARK                         _______ _______ _______ _____ _____    ______ ____
ROOT
ATOM      1  N   UNL     1       7.726   7.356  17.989  0.00  0.00    +0.000 N 
ATOM      2  C   UNL     1       8.126   8.690  18.001  0.00  0.00    +0.000 C 
ATOM      3  O   UNL     1       7.725   9.501  17.170  0.00  0.00    +0.000 OA
ATOM      4  N   UNL     1       8.965   8.981  19.064  0.00  0.00    +0.000 N 
ATOM      5  H   UNL     1       8.200   6.676  18.566  0.00  0.00    +0.000 HD
ATOM      6  H   UNL     1       9.433   8.204  19.502  0.00  0.00    +0.000 HD
ENDROOT
BRANCH   1  11
ATOM      7  C   UNL     1       4.780   3.599  18.718  0.00  0.00    +0.000 C 
ATOM      8  N   UNL     1       5.212   4.625  17.775  0.00  0.00    +0.000 NA
ATOM      9  C   UNL     1       6.629   4.455  17.412  0.00  0.00    +0.000 C 
ATOM     10  C   UNL     1       7.138   5.568  16.471  0.00  0.00    +0.000 C 
ATOM     11  N   UNL     1       6.865   6.929  16.949  0.00  0.00    +0.000 NA
ATOM     12  C   UNL     1       5.445   7.063  17.332  0.00  0.00    +0.000 C 
ATOM     13  C   UNL     1       4.985   5.976  18.321  0.00  0.00    +0.000 C 
ENDBRANCH   1  11
BRANCH   4  14
ATOM     14  C   UNL     1       9.437  10.278  19.376  0.00  0.00    +0.000 A 
ATOM     15  C   UNL     1      10.109  11.083  18.445  0.00  0.00    +0.000 A 
ATOM     16  C   UNL     1      10.651  12.309  18.818  0.00  0.00    +0.000 A 
ATOM     17  C   UNL     1      10.498  12.754  20.121  0.00  0.00    +0.000 A 
ATOM     18  F   UNL     1      11.047  13.916  20.492  0.00  0.00    +0.000 F 
ATOM     19  C   UNL     1       9.777  12.004  21.045  0.00  0.00    +0.000 A 
ATOM     20  C   UNL     1       9.234  10.771  20.671  0.00  0.00    +0.000 A 
ENDBRANCH   4  14
TORSDOF 2
ENDMDL
MODEL 6
REMARK VINA RESULT:      -6.3      6.259      9.103
REMARK  Name = 
REMARK  3 active torsions:
REMARK  status: ('A' for Active; 'I' for Inactive)
REMARK    1  A    between atoms: C_1  and  N_2
REMARK    2  A    between atoms: N_5  and  N_6
REMARK    3  A    between atoms: N_9  and  C_10
REMARK                            x       y       z     vdW  Elec       q    Type
REMARK                         _______ _______ _______ _____ _____    ______ ____
ROOT
ATOM      1  N   UNL     1       4.972   3.701  17.725  0.00  0.00    +0.000 N 
ATOM      2  C   UNL     1       5.257   4.346  16.525  0.00  0.00    +0.000 C 
ATOM      3  O   UNL     1       4.938   5.513  16.316  0.00  0.00    +0.000 OA
ATOM      4  N   UNL     1       5.966   3.540  15.647  0.00  0.00    +0.000 N 
ATOM      5  H   UNL     1       5.083   2.701  17.808  0.00  0.00    +0.000 HD
ATOM      6  H   UNL     1       5.927   2.547  15.808  0.00  0.00    +0.000 HD
ENDROOT
BRANCH   1  11
ATOM      7  C   UNL     1       0.527   2.259  18.948  0.00  0.00    +0.000 C 
ATOM      8  N   UNL     1       1.589   3.228  19.195  0.00  0.00    +0.000 NA
ATOM      9  C   UNL     1       1.849   4.053  18.003  0.00  0.00    +0.000 C 
ATOM     10  C   UNL     1       3.017   5.041  18.208  0.00  0.00    +0.000 C 
ATOM     11  N   UNL     1       4.248   4.418  18.709  0.00  0.00    +0.000 NA
ATOM     12  C   UNL     1       3.955   3.575  19.887  0.00  0.00    +0.000 C 
ATOM     13  C   UNL     1       2.828   2.557  19.630  0.00  0.00    +0.000 C 
ENDBRANCH   1  11
BRANCH   4  14
ATOM     14  C   UNL     1       6.474   3.973  14.400  0.00  0.00    +0.000 A 
ATOM     15  C   UNL     1       7.477   4.946  14.289  0.00  0.00    +0.000 A 
ATOM     16  C   UNL     1       7.877   5.423  13.044  0.00  0.00    +0.000 A 
ATOM     17  C   UNL     1       7.295   4.907  11.897  0.00  0.00    +0.000 A 
ATOM     18  F   UNL     1       7.651   5.388  10.701  0.00  0.00    +0.000 F 
ATOM     19  C   UNL     1       6.346   3.894  11.980  0.00  0.00    +0.000 A 
ATOM     20  C   UNL     1       5.942   3.416  13.230  0.00  0.00    +0.000 A 
ENDBRANCH   4  14
TORSDOF 2
ENDMDL
MODEL 7
REMARK VINA RESULT:      -6.2      6.325      7.870
REMARK  Name = 
REMARK  3 active torsions:
REMARK  status: ('A' for Active; 'I' for Inactive)
REMARK    1  A    between atoms: C_1  and  N_2
REMARK    2  A    between atoms: N_5  and  N_6
REMARK    3  A    between atoms: N_9  and  C_10
REMARK                            x       y       z     vdW  Elec       q    Type
REMARK                         _______ _______ _______ _____ _____    ______ ____
ROOT
ATOM      1  N   UNL     1       7.184   7.478  17.270  0.00  0.00    +0.000 N 
ATOM      2  C   UNL     1       8.092   8.096  18.126  0.00  0.00    +0.000 C 
ATOM      3  O   UNL     1       8.787   7.460  18.913  0.00  0.00    +0.000 OA
ATOM      4  N   UNL     1       8.140   9.470  17.944  0.00  0.00    +0.000 N 
ATOM      5  H   UNL     1       6.504   8.027  16.763  0.00  0.00    +0.000 HD
ATOM      6  H   UNL     1       7.351   9.896  17.485  0.00  0.00    +0.000 HD
ENDROOT
BRANCH   1  11
ATOM      7  C   UNL     1       2.799   5.564  17.930  0.00  0.00    +0.000 C 
ATOM      8  N   UNL     1       4.219   5.285  17.742  0.00  0.00    +0.000 NA
ATOM      9  C   UNL     1       5.021   5.819  18.857  0.00  0.00    +0.000 C 
ATOM     10  C   UNL     1       6.536   5.604  18.654  0.00  0.00    +0.000 C 
ATOM     11  N   UNL     1       7.040   6.072  17.357  0.00  0.00    +0.000 NA
ATOM     12  C   UNL     1       6.202   5.545  16.260  0.00  0.00    +0.000 C 
ATOM     13  C   UNL     1       4.702   5.831  16.460  0.00  0.00    +0.000 C 
ENDBRANCH   1  11
BRANCH   4  14
ATOM     14  C   UNL     1       9.045  10.331  18.607  0.00  0.00    +0.000 A 
ATOM     15  C   UNL     1       9.076  10.468  20.002  0.00  0.00    +0.000 A 
ATOM     16  C   UNL     1       9.908  11.403  20.612  0.00  0.00    +0.000 A 
ATOM     17  C   UNL     1      10.740  12.187  19.829  0.00  0.00    +0.000 A 
ATOM     18  F   UNL     1      11.515  13.111  20.408  0.00  0.00    +0.000 F 
ATOM     19  C   UNL     1      10.776  12.022  18.449  0.00  0.00    +0.000 A 
ATOM     20  C   UNL     1       9.939  11.085  17.836  0.00  0.00    +0.000 A 
ENDBRANCH   4  14
TORSDOF 2
ENDMDL
MODEL 8
REMARK VINA RESULT:      -6.2      6.324      7.841
REMARK  Name = 
REMARK  3 active torsions:
REMARK  status: ('A' for Active; 'I' for Inactive)
REMARK    1  A    between atoms: C_1  and  N_2
REMARK    2  A    between atoms: N_5  and  N_6
REMARK    3  A    between atoms: N_9  and  C_10
REMARK                            x       y       z     vdW  Elec       q    Type
REMARK                         _______ _______ _______ _____ _____    ______ ____
ROOT
ATOM      1  N   UNL     1       7.075   7.437  17.312  0.00  0.00    +0.000 N 
ATOM      2  C   UNL     1       8.036   8.065  18.099  0.00  0.00    +0.000 C 
ATOM      3  O   UNL     1       8.790   7.438  18.838  0.00  0.00    +0.000 OA
ATOM      4  N   UNL     1       8.062   9.438  17.907  0.00  0.00    +0.000 N 
ATOM      5  H   UNL     1       6.357   7.978  16.852  0.00  0.00    +0.000 HD
ATOM      6  H   UNL     1       7.241   9.857  17.502  0.00  0.00    +0.000 HD
ENDROOT
BRANCH   1  11
ATOM      7  C   UNL     1       2.708   5.479  17.970  0.00  0.00    +0.000 C 
ATOM      8  N   UNL     1       4.133   5.215  17.794  0.00  0.00    +0.000 NA
ATOM      9  C   UNL     1       4.921   5.772  18.907  0.00  0.00    +0.000 C 
ATOM     10  C   UNL     1       6.440   5.573  18.716  0.00  0.00    +0.000 C 
ATOM     11  N   UNL     1       6.946   6.030  17.416  0.00  0.00    +0.000 NA
ATOM     12  C   UNL     1       6.121   5.479  16.321  0.00  0.00    +0.000 C 
ATOM     13  C   UNL     1       4.617   5.750  16.509  0.00  0.00    +0.000 C 
ENDBRANCH   1  11
BRANCH   4  14
ATOM     14  C   UNL     1       9.006  10.308  18.500  0.00  0.00    +0.000 A 
ATOM     15  C   UNL     1       9.959  11.014  17.752  0.00  0.00    +0.000 A 
ATOM     16  C   UNL     1      10.939  11.778  18.379  0.00  0.00    +0.000 A 
ATOM     17  C   UNL     1      10.954  11.866  19.762  0.00  0.00    +0.000 A 
ATOM     18  F   UNL     1      11.915  12.571  20.369  0.00  0.00    +0.000 F 
ATOM     19  C   UNL     1       9.979  11.229  20.522  0.00  0.00    +0.000 A 
ATOM     20  C   UNL     1       8.996  10.459  19.893  0.00  0.00    +0.000 A 
ENDBRANCH   4  14
TORSDOF 2
ENDMDL
MODEL 9
REMARK VINA RESULT:      -6.1      2.673      3.116
REMARK  Name = 
REMARK  3 active torsions:
REMARK  status: ('A' for Active; 'I' for Inactive)
REMARK    1  A    between atoms: C_1  and  N_2
REMARK    2  A    between atoms: N_5  and  N_6
REMARK    3  A    between atoms: N_9  and  C_10
REMARK                            x       y       z     vdW  Elec       q    Type
REMARK                         _______ _______ _______ _____ _____    ______ ____
ROOT
ATOM      1  N   UNL     1       2.539   6.921  18.861  0.00  0.00    +0.000 N 
ATOM      2  C   UNL     1       1.870   8.063  19.291  0.00  0.00    +0.000 C 
ATOM      3  O   UNL     1       1.657   8.290  20.479  0.00  0.00    +0.000 OA
ATOM      4  N   UNL     1       1.532   8.904  18.243  0.00  0.00    +0.000 N 
ATOM      5  H   UNL     1       2.547   6.670  17.883  0.00  0.00    +0.000 HD
ATOM      6  H   UNL     1       1.508   8.498  17.322  0.00  0.00    +0.000 HD
ENDROOT
BRANCH   1  11
ATOM      7  C   UNL     1       2.656   2.224  17.740  0.00  0.00    +0.000 C 
ATOM      8  N   UNL     1       2.901   3.221  18.777  0.00  0.00    +0.000 NA
ATOM      9  C   UNL     1       1.656   3.907  19.163  0.00  0.00    +0.000 C 
ATOM     10  C   UNL     1       1.890   5.020  20.207  0.00  0.00    +0.000 C 
ATOM     11  N   UNL     1       2.940   5.977  19.839  0.00  0.00    +0.000 NA
ATOM     12  C   UNL     1       4.166   5.262  19.430  0.00  0.00    +0.000 C 
ATOM     13  C   UNL     1       3.910   4.203  18.341  0.00  0.00    +0.000 C 
ENDBRANCH   1  11
BRANCH   4  14
ATOM     14  C   UNL     1       0.939  10.179  18.402  0.00  0.00    +0.000 A 
ATOM     15  C   UNL     1      -0.449  10.376  18.381  0.00  0.00    +0.000 A 
ATOM     16  C   UNL     1      -0.992  11.656  18.435  0.00  0.00    +0.000 A 
ATOM     17  C   UNL     1      -0.148  12.750  18.542  0.00  0.00    +0.000 A 
ATOM     18  F   UNL     1      -0.663  13.984  18.559  0.00  0.00    +0.000 F 
ATOM     19  C   UNL     1       1.229  12.575  18.633  0.00  0.00    +0.000 A 
ATOM     20  C   UNL     1       1.775  11.290  18.576  0.00  0.00    +0.000 A 
ENDBRANCH   4  14
TORSDOF 2
ENDMDL
