MODEL 1
REMARK VINA RESULT:      -6.9      0.000      0.000
REMARK  Name = 
REMARK  7 active torsions:
REMARK  status: ('A' for Active; 'I' for Inactive)
REMARK    1  A    between atoms: C_1  and  O_2
REMARK    2  A    between atoms: O_2  and  C_3
REMARK    3  A    between atoms: C_7  and  N_8
REMARK    4  A    between atoms: N_8  and  C_9
REMARK    5  A    between atoms: C_9  and  C_10
REMARK    6  A    between atoms: N_12  and  N_13
REMARK    7  A    between atoms: C_14  and  C_15
REMARK                            x       y       z     vdW  Elec       q    Type
REMARK                         _______ _______ _______ _____ _____    ______ ____
ROOT
ATOM      1  C   UNL     1       1.713   4.406  20.734  0.00  0.00    +0.000 C 
ATOM      2  O   UNL     1       0.642   4.108  20.206  0.00  0.00    +0.000 OA
ATOM      3  N   UNL     1       2.137   5.701  21.013  0.00  0.00    +0.000 N 
ATOM      4  H   UNL     1       2.946   5.859  21.605  0.00  0.00    +0.000 HD
ENDROOT
BRANCH   3   5
ATOM      5  N   UNL     1       1.328   6.735  20.661  0.00  0.00    +0.000 NA
ATOM      6  C   UNL     1       1.770   7.935  20.850  0.00  0.00    +0.000 C 
BRANCH   6   7
ATOM      7  C   UNL     1       0.932   9.105  20.502  0.00  0.00    +0.000 A 
ATOM      8  C   UNL     1       0.121   9.744  21.453  0.00  0.00    +0.000 A 
ATOM      9 CL   UNL     1       0.119   9.393  23.141  0.00  0.00    +0.000 Cl
ATOM     10  C   UNL     1      -0.687  10.790  21.024  0.00  0.00    +0.000 A 
ATOM     11  N   UNL     1      -0.731  11.246  19.751  0.00  0.00    +0.000 NA
ATOM     12  C   UNL     1       0.078  10.630  18.862  0.00  0.00    +0.000 A 
ATOM     13  C   UNL     1       0.921   9.571  19.182  0.00  0.00    +0.000 A 
ATOM     14 CL   UNL     1       1.878   8.887  17.919  0.00  0.00    +0.000 Cl
ENDBRANCH   6   7
ENDBRANCH   3   5
BRANCH   1  15
ATOM     15  C   UNL     1       2.701   3.331  21.177  0.00  0.00    +0.000 C 
BRANCH  15  16
ATOM     16  N   UNL     1       3.281   2.657  20.011  0.00  0.00    +0.000 N 
ATOM     17  H   UNL     1       2.621   2.006  19.580  0.00  0.00    +0.000 HD
BRANCH  16  22
ATOM     18  C   UNL     1       5.757   4.877  18.288  0.00  0.00    +0.000 A 
ATOM     19  C   UNL     1       5.354   4.703  16.965  0.00  0.00    +0.000 A 
ATOM     20  C   UNL     1       4.264   3.890  16.667  0.00  0.00    +0.000 A 
ATOM     21  C   UNL     1       3.572   3.249  17.697  0.00  0.00    +0.000 A 
ATOM     22  C   UNL     1       3.948   3.414  19.038  0.00  0.00    +0.000 A 
ATOM     23  C   UNL     1       5.062   4.221  19.311  0.00  0.00    +0.000 A 
BRANCH  18  25
ATOM     24  C   UNL     1       7.291   6.408  17.309  0.00  0.00    +0.000 C 
ATOM     25  O   UNL     1       6.841   5.697  18.456  0.00  0.00    +0.000 OA
ENDBRANCH  18  25
ENDBRANCH  16  22
ENDBRANCH  15  16
ENDBRANCH   1  15
TORSDOF 6
ENDMDL
MODEL 2
REMARK VINA RESULT:      -6.9      1.486      2.794
REMARK  Name = 
REMARK  7 active torsions:
REMARK  status: ('A' for Active; 'I' for Inactive)
REMARK    1  A    between atoms: C_1  and  O_2
REMARK    2  A    between atoms: O_2  and  C_3
REMARK    3  A    between atoms: C_7  and  N_8
REMARK    4  A    between atoms: N_8  and  C_9
REMARK    5  A    between atoms: C_9  and  C_10
REMARK    6  A    between atoms: N_12  and  N_13
REMARK    7  A    between atoms: C_14  and  C_15
REMARK                            x       y       z     vdW  Elec       q    Type
REMARK                         _______ _______ _______ _____ _____    ______ ____
ROOT
ATOM      1  C   UNL     1       2.617   5.432  19.223  0.00  0.00    +0.000 C 
ATOM      2  O   UNL     1       2.079   5.585  18.126  0.00  0.00    +0.000 OA
ATOM      3  N   UNL     1       2.689   6.396  20.223  0.00  0.00    +0.000 N 
ATOM      4  H   UNL     1       2.989   6.143  21.159  0.00  0.00    +0.000 HD
ENDROOT
BRANCH   3   5
ATOM      5  N   UNL     1       2.149   7.619  19.981  0.00  0.00    +0.000 NA
ATOM      6  C   UNL     1       1.297   8.081  20.836  0.00  0.00    +0.000 C 
BRANCH   6   7
ATOM      7  C   UNL     1       0.660   9.401  20.622  0.00  0.00    +0.000 A 
ATOM      8  C   UNL     1       0.627  10.010  19.359  0.00  0.00    +0.000 A 
ATOM      9 CL   UNL     1       1.138   9.265  17.891  0.00  0.00    +0.000 Cl
ATOM     10  C   UNL     1       0.072  11.281  19.262  0.00  0.00    +0.000 A 
ATOM     11  N   UNL     1      -0.456  11.963  20.305  0.00  0.00    +0.000 NA
ATOM     12  C   UNL     1      -0.434  11.342  21.504  0.00  0.00    +0.000 A 
ATOM     13  C   UNL     1       0.101  10.076  21.714  0.00  0.00    +0.000 A 
ATOM     14 CL   UNL     1       0.063   9.435  23.316  0.00  0.00    +0.000 Cl
ENDBRANCH   6   7
ENDBRANCH   3   5
BRANCH   1  15
ATOM     15  C   UNL     1       3.253   4.100  19.611  0.00  0.00    +0.000 C 
BRANCH  15  16
ATOM     16  N   UNL     1       4.121   3.615  18.535  0.00  0.00    +0.000 N 
ATOM     17  H   UNL     1       3.592   3.397  17.687  0.00  0.00    +0.000 HD
BRANCH  16  22
ATOM     18  C   UNL     1       6.867   5.335  16.654  0.00  0.00    +0.000 A 
ATOM     19  C   UNL     1       7.541   5.938  17.715  0.00  0.00    +0.000 A 
ATOM     20  C   UNL     1       7.103   5.745  19.023  0.00  0.00    +0.000 A 
ATOM     21  C   UNL     1       5.987   4.944  19.271  0.00  0.00    +0.000 A 
ATOM     22  C   UNL     1       5.295   4.316  18.226  0.00  0.00    +0.000 A 
ATOM     23  C   UNL     1       5.743   4.542  16.916  0.00  0.00    +0.000 A 
BRANCH  18  25
ATOM     24  C   UNL     1       6.898   4.816  14.335  0.00  0.00    +0.000 C 
ATOM     25  O   UNL     1       7.389   5.599  15.416  0.00  0.00    +0.000 OA
ENDBRANCH  18  25
ENDBRANCH  16  22
ENDBRANCH  15  16
ENDBRANCH   1  15
TORSDOF 6
ENDMDL
MODEL 3
REMARK VINA RESULT:      -6.9      1.784      2.736
REMARK  Name = 
REMARK  7 active torsions:
REMARK  status: ('A' for Active; 'I' for Inactive)
REMARK    1  A    between atoms: C_1  and  O_2
REMARK    2  A    between atoms: O_2  and  C_3
REMARK    3  A    between atoms: C_7  and  N_8
REMARK    4  A    between atoms: N_8  and  C_9
REMARK    5  A    between atoms: C_9  and  C_10
REMARK    6  A    between atoms: N_12  and  N_13
REMARK    7  A    between atoms: C_14  and  C_15
REMARK                            x       y       z     vdW  Elec       q    Type
REMARK                         _______ _______ _______ _____ _____    ______ ____
ROOT
ATOM      1  C   UNL     1       2.626   6.456  19.537  0.00  0.00    +0.000 C 
ATOM      2  O   UNL     1       2.316   6.988  18.471  0.00  0.00    +0.000 OA
ATOM      3  N   UNL     1       2.013   6.694  20.762  0.00  0.00    +0.000 N 
ATOM      4  H   UNL     1       2.202   6.093  21.557  0.00  0.00    +0.000 HD
ENDROOT
BRANCH   3   5
ATOM      5  N   UNL     1       1.002   7.602  20.811  0.00  0.00    +0.000 NA
ATOM      6  C   UNL     1       1.316   8.843  20.996  0.00  0.00    +0.000 C 
BRANCH   6   7
ATOM      7  C   UNL     1       0.260   9.878  21.076  0.00  0.00    +0.000 A 
ATOM      8  C   UNL     1      -0.205  10.550  19.935  0.00  0.00    +0.000 A 
ATOM      9 CL   UNL     1       0.231  10.159  18.314  0.00  0.00    +0.000 Cl
ATOM     10  C   UNL     1      -1.147  11.557  20.111  0.00  0.00    +0.000 A 
ATOM     11  N   UNL     1      -1.659  11.921  21.309  0.00  0.00    +0.000 NA
ATOM     12  C   UNL     1      -1.212  11.240  22.387  0.00  0.00    +0.000 A 
ATOM     13  C   UNL     1      -0.269  10.220  22.326  0.00  0.00    +0.000 A 
ATOM     14 CL   UNL     1       0.205   9.464  23.804  0.00  0.00    +0.000 Cl
ENDBRANCH   6   7
ENDBRANCH   3   5
BRANCH   1  15
ATOM     15  C   UNL     1       3.743   5.417  19.605  0.00  0.00    +0.000 C 
BRANCH  15  16
ATOM     16  N   UNL     1       3.750   4.594  18.392  0.00  0.00    +0.000 N 
ATOM     17  H   UNL     1       2.828   4.559  17.950  0.00  0.00    +0.000 HD
BRANCH  16  22
ATOM     18  C   UNL     1       6.760   5.894  16.581  0.00  0.00    +0.000 A 
ATOM     19  C   UNL     1       6.881   4.921  15.590  0.00  0.00    +0.000 A 
ATOM     20  C   UNL     1       5.960   3.880  15.516  0.00  0.00    +0.000 A 
ATOM     21  C   UNL     1       4.911   3.812  16.435  0.00  0.00    +0.000 A 
ATOM     22  C   UNL     1       4.758   4.782  17.437  0.00  0.00    +0.000 A 
ATOM     23  C   UNL     1       5.711   5.809  17.504  0.00  0.00    +0.000 A 
BRANCH  18  25
ATOM     24  C   UNL     1       7.694   7.827  17.603  0.00  0.00    +0.000 C 
ATOM     25  O   UNL     1       7.725   6.866  16.555  0.00  0.00    +0.000 OA
ENDBRANCH  18  25
ENDBRANCH  16  22
ENDBRANCH  15  16
ENDBRANCH   1  15
TORSDOF 6
ENDMDL
MODEL 4
REMARK VINA RESULT:      -6.7      1.289      2.414
REMARK  Name = 
REMARK  7 active torsions:
REMARK  status: ('A' for Active; 'I' for Inactive)
REMARK    1  A    between atoms: C_1  and  O_2
REMARK    2  A    between atoms: O_2  and  C_3
REMARK    3  A    between atoms: C_7  and  N_8
REMARK    4  A    between atoms: N_8  and  C_9
REMARK    5  A    between atoms: C_9  and  C_10
REMARK    6  A    between atoms: N_12  and  N_13
REMARK    7  A    between atoms: C_14  and  C_15
REMARK                            x       y       z     vdW  Elec       q    Type
REMARK                         _______ _______ _______ _____ _____    ______ ____
ROOT
ATOM      1  C   UNL     1       2.696   5.134  19.145  0.00  0.00    +0.000 C 
ATOM      2  O   UNL     1       2.171   5.260  18.039  0.00  0.00    +0.000 OA
ATOM      3  N   UNL     1       2.775   6.128  20.114  0.00  0.00    +0.000 N 
ATOM      4  H   UNL     1       3.063   5.900  21.061  0.00  0.00    +0.000 HD
ENDROOT
BRANCH   3   5
ATOM      5  N   UNL     1       2.257   7.351  19.828  0.00  0.00    +0.000 NA
ATOM      6  C   UNL     1       1.484   7.898  20.708  0.00  0.00    +0.000 C 
BRANCH   6   7
ATOM      7  C   UNL     1       0.874   9.222  20.450  0.00  0.00    +0.000 A 
ATOM      8  C   UNL     1       0.898   9.813  19.177  0.00  0.00    +0.000 A 
ATOM      9 CL   UNL     1       1.454   9.038  17.741  0.00  0.00    +0.000 Cl
ATOM     10  C   UNL     1       0.364  11.089  19.041  0.00  0.00    +0.000 A 
ATOM     11  N   UNL     1      -0.193  11.794  20.052  0.00  0.00    +0.000 NA
ATOM     12  C   UNL     1      -0.226  11.191  21.260  0.00  0.00    +0.000 A 
ATOM     13  C   UNL     1       0.284   9.922  21.510  0.00  0.00    +0.000 A 
ATOM     14 CL   UNL     1       0.176   9.306  23.119  0.00  0.00    +0.000 Cl
ENDBRANCH   6   7
ENDBRANCH   3   5
BRANCH   1  15
ATOM     15  C   UNL     1       3.308   3.805  19.581  0.00  0.00    +0.000 C 
BRANCH  15  16
ATOM     16  N   UNL     1       4.751   3.799  19.327  0.00  0.00    +0.000 N 
ATOM     17  H   UNL     1       5.174   2.895  19.553  0.00  0.00    +0.000 HD
BRANCH  16  22
ATOM     18  C   UNL     1       6.702   5.729  16.778  0.00  0.00    +0.000 A 
ATOM     19  C   UNL     1       6.334   5.040  15.623  0.00  0.00    +0.000 A 
ATOM     20  C   UNL     1       5.434   3.980  15.698  0.00  0.00    +0.000 A 
ATOM     21  C   UNL     1       4.897   3.609  16.933  0.00  0.00    +0.000 A 
ATOM     22  C   UNL     1       5.240   4.291  18.109  0.00  0.00    +0.000 A 
ATOM     23  C   UNL     1       6.165   5.341  18.011  0.00  0.00    +0.000 A 
BRANCH  18  25
ATOM     24  C   UNL     1       7.643   7.760  17.579  0.00  0.00    +0.000 C 
ATOM     25  O   UNL     1       7.594   6.750  16.579  0.00  0.00    +0.000 OA
ENDBRANCH  18  25
ENDBRANCH  16  22
ENDBRANCH  15  16
ENDBRANCH   1  15
TORSDOF 6
ENDMDL
MODEL 5
REMARK VINA RESULT:      -6.7      3.841      8.692
REMARK  Name = 
REMARK  7 active torsions:
REMARK  status: ('A' for Active; 'I' for Inactive)
REMARK    1  A    between atoms: C_1  and  O_2
REMARK    2  A    between atoms: O_2  and  C_3
REMARK    3  A    between atoms: C_7  and  N_8
REMARK    4  A    between atoms: N_8  and  C_9
REMARK    5  A    between atoms: C_9  and  C_10
REMARK    6  A    between atoms: N_12  and  N_13
REMARK    7  A    between atoms: C_14  and  C_15
REMARK                            x       y       z     vdW  Elec       q    Type
REMARK                         _______ _______ _______ _____ _____    ______ ____
ROOT
ATOM      1  C   UNL     1       0.989   9.542  19.128  0.00  0.00    +0.000 C 
ATOM      2  O   UNL     1       1.029   9.277  20.330  0.00  0.00    +0.000 OA
ATOM      3  N   UNL     1       1.767   8.936  18.147  0.00  0.00    +0.000 N 
ATOM      4  H   UNL     1       1.555   9.078  17.164  0.00  0.00    +0.000 HD
ENDROOT
BRANCH   3   5
ATOM      5  N   UNL     1       2.665   7.990  18.528  0.00  0.00    +0.000 NA
ATOM      6  C   UNL     1       2.518   6.796  18.055  0.00  0.00    +0.000 C 
BRANCH   6   7
ATOM      7  C   UNL     1       3.454   5.716  18.444  0.00  0.00    +0.000 A 
ATOM      8  C   UNL     1       4.676   5.522  17.783  0.00  0.00    +0.000 A 
ATOM      9 CL   UNL     1       5.330   6.580  16.590  0.00  0.00    +0.000 Cl
ATOM     10  C   UNL     1       5.460   4.441  18.167  0.00  0.00    +0.000 A 
ATOM     11  N   UNL     1       5.131   3.572  19.150  0.00  0.00    +0.000 NA
ATOM     12  C   UNL     1       3.961   3.797  19.787  0.00  0.00    +0.000 A 
ATOM     13  C   UNL     1       3.098   4.843  19.480  0.00  0.00    +0.000 A 
ATOM     14 CL   UNL     1       1.633   4.977  20.383  0.00  0.00    +0.000 Cl
ENDBRANCH   6   7
ENDBRANCH   3   5
BRANCH   1  15
ATOM     15  C   UNL     1       0.017  10.583  18.580  0.00  0.00    +0.000 C 
BRANCH  15  16
ATOM     16  N   UNL     1      -0.740  10.032  17.452  0.00  0.00    +0.000 N 
ATOM     17  H   UNL     1      -0.651   9.015  17.393  0.00  0.00    +0.000 HD
BRANCH  16  22
ATOM     18  C   UNL     1      -4.157  11.475  17.981  0.00  0.00    +0.000 A 
ATOM     19  C   UNL     1      -4.646  11.413  16.676  0.00  0.00    +0.000 A 
ATOM     20  C   UNL     1      -3.862  10.874  15.660  0.00  0.00    +0.000 A 
ATOM     21  C   UNL     1      -2.584  10.393  15.948  0.00  0.00    +0.000 A 
ATOM     22  C   UNL     1      -2.069  10.431  17.252  0.00  0.00    +0.000 A 
ATOM     23  C   UNL     1      -2.870  10.998  18.255  0.00  0.00    +0.000 A 
BRANCH  18  25
ATOM     24  C   UNL     1      -4.431  12.655  20.026  0.00  0.00    +0.000 C 
ATOM     25  O   UNL     1      -5.017  12.026  18.893  0.00  0.00    +0.000 OA
ENDBRANCH  18  25
ENDBRANCH  16  22
ENDBRANCH  15  16
ENDBRANCH   1  15
TORSDOF 6
ENDMDL
MODEL 6
REMARK VINA RESULT:      -6.7      1.026      1.491
REMARK  Name = 
REMARK  7 active torsions:
REMARK  status: ('A' for Active; 'I' for Inactive)
REMARK    1  A    between atoms: C_1  and  O_2
REMARK    2  A    between atoms: O_2  and  C_3
REMARK    3  A    between atoms: C_7  and  N_8
REMARK    4  A    between atoms: N_8  and  C_9
REMARK    5  A    between atoms: C_9  and  C_10
REMARK    6  A    between atoms: N_12  and  N_13
REMARK    7  A    between atoms: C_14  and  C_15
REMARK                            x       y       z     vdW  Elec       q    Type
REMARK                         _______ _______ _______ _____ _____    ______ ____
ROOT
ATOM      1  C   UNL     1       1.705   4.531  20.629  0.00  0.00    +0.000 C 
ATOM      2  O   UNL     1       0.578   4.244  20.225  0.00  0.00    +0.000 OA
ATOM      3  N   UNL     1       2.146   5.814  20.934  0.00  0.00    +0.000 N 
ATOM      4  H   UNL     1       3.023   5.952  21.427  0.00  0.00    +0.000 HD
ENDROOT
BRANCH   3   5
ATOM      5  N   UNL     1       1.286   6.851  20.756  0.00  0.00    +0.000 NA
ATOM      6  C   UNL     1       1.791   8.031  20.591  0.00  0.00    +0.000 C 
BRANCH   6   7
ATOM      7  C   UNL     1       0.908   9.204  20.409  0.00  0.00    +0.000 A 
ATOM      8  C   UNL     1       0.204   9.776  21.480  0.00  0.00    +0.000 A 
ATOM      9 CL   UNL     1       0.396   9.330  23.134  0.00  0.00    +0.000 Cl
ATOM     10  C   UNL     1      -0.657  10.831  21.205  0.00  0.00    +0.000 A 
ATOM     11  N   UNL     1      -0.849  11.358  19.974  0.00  0.00    +0.000 NA
ATOM     12  C   UNL     1      -0.139  10.806  18.965  0.00  0.00    +0.000 A 
ATOM     13  C   UNL     1       0.744   9.744  19.127  0.00  0.00    +0.000 A 
ATOM     14 CL   UNL     1       1.559   9.147  17.727  0.00  0.00    +0.000 Cl
ENDBRANCH   6   7
ENDBRANCH   3   5
BRANCH   1  15
ATOM     15  C   UNL     1       2.756   3.451  20.873  0.00  0.00    +0.000 C 
BRANCH  15  16
ATOM     16  N   UNL     1       3.141   2.819  19.608  0.00  0.00    +0.000 N 
ATOM     17  H   UNL     1       2.326   2.553  19.050  0.00  0.00    +0.000 HD
BRANCH  16  22
ATOM     18  C   UNL     1       5.050   4.094  16.647  0.00  0.00    +0.000 A 
ATOM     19  C   UNL     1       6.016   4.861  17.298  0.00  0.00    +0.000 A 
ATOM     20  C   UNL     1       6.041   4.919  18.689  0.00  0.00    +0.000 A 
ATOM     21  C   UNL     1       5.099   4.207  19.433  0.00  0.00    +0.000 A 
ATOM     22  C   UNL     1       4.123   3.419  18.807  0.00  0.00    +0.000 A 
ATOM     23  C   UNL     1       4.104   3.392  17.404  0.00  0.00    +0.000 A 
BRANCH  18  25
ATOM     24  C   UNL     1       6.111   4.960  14.705  0.00  0.00    +0.000 C 
ATOM     25  O   UNL     1       5.124   4.114  15.280  0.00  0.00    +0.000 OA
ENDBRANCH  18  25
ENDBRANCH  16  22
ENDBRANCH  15  16
ENDBRANCH   1  15
TORSDOF 6
ENDMDL
MODEL 7
REMARK VINA RESULT:      -6.7      3.817      8.483
REMARK  Name = 
REMARK  7 active torsions:
REMARK  status: ('A' for Active; 'I' for Inactive)
REMARK    1  A    between atoms: C_1  and  O_2
REMARK    2  A    between atoms: O_2  and  C_3
REMARK    3  A    between atoms: C_7  and  N_8
REMARK    4  A    between atoms: N_8  and  C_9
REMARK    5  A    between atoms: C_9  and  C_10
REMARK    6  A    between atoms: N_12  and  N_13
REMARK    7  A    between atoms: C_14  and  C_15
REMARK                            x       y       z     vdW  Elec       q    Type
REMARK                         _______ _______ _______ _____ _____    ______ ____
ROOT
ATOM      1  C   UNL     1       0.967   9.504  19.317  0.00  0.00    +0.000 C 
ATOM      2  O   UNL     1       0.995   9.191  20.507  0.00  0.00    +0.000 OA
ATOM      3  N   UNL     1       1.717   8.905  18.311  0.00  0.00    +0.000 N 
ATOM      4  H   UNL     1       1.512   9.095  17.335  0.00  0.00    +0.000 HD
ENDROOT
BRANCH   3   5
ATOM      5  N   UNL     1       2.574   7.907  18.653  0.00  0.00    +0.000 NA
ATOM      6  C   UNL     1       2.370   6.737  18.142  0.00  0.00    +0.000 C 
BRANCH   6   7
ATOM      7  C   UNL     1       3.258   5.604  18.486  0.00  0.00    +0.000 A 
ATOM      8  C   UNL     1       2.965   4.729  19.544  0.00  0.00    +0.000 A 
ATOM      9 CL   UNL     1       1.497   4.730  20.447  0.00  0.00    +0.000 Cl
ATOM     10  C   UNL     1       3.890   3.735  19.842  0.00  0.00    +0.000 A 
ATOM     11  N   UNL     1       5.047   3.543  19.168  0.00  0.00    +0.000 NA
ATOM     12  C   UNL     1       5.291   4.384  18.139  0.00  0.00    +0.000 A 
ATOM     13  C   UNL     1       4.439   5.415  17.758  0.00  0.00    +0.000 A 
ATOM     14 CL   UNL     1       4.911   6.408  16.428  0.00  0.00    +0.000 Cl
ENDBRANCH   6   7
ENDBRANCH   3   5
BRANCH   1  15
ATOM     15  C   UNL     1       0.040  10.607  18.813  0.00  0.00    +0.000 C 
BRANCH  15  16
ATOM     16  N   UNL     1      -0.622  10.192  17.573  0.00  0.00    +0.000 N 
ATOM     17  H   UNL     1      -0.461   9.203  17.368  0.00  0.00    +0.000 HD
BRANCH  16  22
ATOM     18  C   UNL     1      -4.037  11.680  17.967  0.00  0.00    +0.000 A 
ATOM     19  C   UNL     1      -4.574  11.379  16.716  0.00  0.00    +0.000 A 
ATOM     20  C   UNL     1      -3.821  10.670  15.784  0.00  0.00    +0.000 A 
ATOM     21  C   UNL     1      -2.526  10.259  16.104  0.00  0.00    +0.000 A 
ATOM     22  C   UNL     1      -1.963  10.538  17.357  0.00  0.00    +0.000 A 
ATOM     23  C   UNL     1      -2.733  11.271  18.272  0.00  0.00    +0.000 A 
BRANCH  18  25
ATOM     24  C   UNL     1      -4.532  12.397  20.179  0.00  0.00    +0.000 C 
ATOM     25  O   UNL     1      -4.870  12.382  18.798  0.00  0.00    +0.000 OA
ENDBRANCH  18  25
ENDBRANCH  16  22
ENDBRANCH  15  16
ENDBRANCH   1  15
TORSDOF 6
ENDMDL
MODEL 8
REMARK VINA RESULT:      -6.6      5.199      8.093
REMARK  Name = 
REMARK  7 active torsions:
REMARK  status: ('A' for Active; 'I' for Inactive)
REMARK    1  A    between atoms: C_1  and  O_2
REMARK    2  A    between atoms: O_2  and  C_3
REMARK    3  A    between atoms: C_7  and  N_8
REMARK    4  A    between atoms: N_8  and  C_9
REMARK    5  A    between atoms: C_9  and  C_10
REMARK    6  A    between atoms: N_12  and  N_13
REMARK    7  A    between atoms: C_14  and  C_15
REMARK                            x       y       z     vdW  Elec       q    Type
REMARK                         _______ _______ _______ _____ _____    ______ ____
ROOT
ATOM      1  C   UNL     1       7.511   7.510  17.883  0.00  0.00    +0.000 C 
ATOM      2  O   UNL     1       7.896   6.607  18.627  0.00  0.00    +0.000 OA
ATOM      3  N   UNL     1       6.357   7.474  17.109  0.00  0.00    +0.000 N 
ATOM      4  H   UNL     1       6.013   8.318  16.660  0.00  0.00    +0.000 HD
ENDROOT
BRANCH   3   5
ATOM      5  N   UNL     1       5.590   6.353  17.145  0.00  0.00    +0.000 NA
ATOM      6  C   UNL     1       4.437   6.431  17.725  0.00  0.00    +0.000 C 
BRANCH   6   7
ATOM      7  C   UNL     1       3.560   5.241  17.812  0.00  0.00    +0.000 A 
ATOM      8  C   UNL     1       3.730   4.133  16.968  0.00  0.00    +0.000 A 
ATOM      9 CL   UNL     1       5.044   3.920  15.872  0.00  0.00    +0.000 Cl
ATOM     10  C   UNL     1       2.817   3.089  17.071  0.00  0.00    +0.000 A 
ATOM     11  N   UNL     1       1.785   3.063  17.945  0.00  0.00    +0.000 NA
ATOM     12  C   UNL     1       1.661   4.130  18.763  0.00  0.00    +0.000 A 
ATOM     13  C   UNL     1       2.512   5.230  18.741  0.00  0.00    +0.000 A 
ATOM     14 CL   UNL     1       2.201   6.519  19.846  0.00  0.00    +0.000 Cl
ENDBRANCH   6   7
ENDBRANCH   3   5
BRANCH   1  15
ATOM     15  C   UNL     1       8.287   8.819  17.763  0.00  0.00    +0.000 C 
BRANCH  15  16
ATOM     16  N   UNL     1       8.888   9.177  19.051  0.00  0.00    +0.000 N 
ATOM     17  H   UNL     1       9.502   8.439  19.404  0.00  0.00    +0.000 HD
BRANCH  16  22
ATOM     18  C   UNL     1      10.327  12.564  18.352  0.00  0.00    +0.000 A 
ATOM     19  C   UNL     1      10.434  13.051  19.654  0.00  0.00    +0.000 A 
ATOM     20  C   UNL     1      10.064  12.252  20.732  0.00  0.00    +0.000 A 
ATOM     21  C   UNL     1       9.586  10.960  20.509  0.00  0.00    +0.000 A 
ATOM     22  C   UNL     1       9.477  10.439  19.211  0.00  0.00    +0.000 A 
ATOM     23  C   UNL     1       9.836  11.270  18.140  0.00  0.00    +0.000 A 
BRANCH  18  25
ATOM     24  C   UNL     1      10.884  14.798  17.761  0.00  0.00    +0.000 C 
ATOM     25  O   UNL     1      10.719  13.440  17.374  0.00  0.00    +0.000 OA
ENDBRANCH  18  25
ENDBRANCH  16  22
ENDBRANCH  15  16
ENDBRANCH   1  15
TORSDOF 6
ENDMDL
MODEL 9
REMARK VINA RESULT:      -6.6      5.770      8.842
REMARK  Name = 
REMARK  7 active torsions:
REMARK  status: ('A' for Active; 'I' for Inactive)
REMARK    1  A    between atoms: C_1  and  O_2
REMARK    2  A    between atoms: O_2  and  C_3
REMARK    3  A    between atoms: C_7  and  N_8
REMARK    4  A    between atoms: N_8  and  C_9
REMARK    5  A    between atoms: C_9  and  C_10
REMARK    6  A    between atoms: N_12  and  N_13
REMARK    7  A    between atoms: C_14  and  C_15
REMARK                            x       y       z     vdW  Elec       q    Type
REMARK                         _______ _______ _______ _____ _____    ______ ____
ROOT
ATOM      1  C   UNL     1       8.016   8.384  17.977  0.00  0.00    +0.000 C 
ATOM      2  O   UNL     1       8.509   7.652  18.836  0.00  0.00    +0.000 OA
ATOM      3  N   UNL     1       6.881   8.093  17.230  0.00  0.00    +0.000 N 
ATOM      4  H   UNL     1       6.434   8.814  16.671  0.00  0.00    +0.000 HD
ENDROOT
BRANCH   3   5
ATOM      5  N   UNL     1       6.263   6.899  17.431  0.00  0.00    +0.000 NA
ATOM      6  C   UNL     1       5.058   6.761  16.983  0.00  0.00    +0.000 C 
BRANCH   6   7
ATOM      7  C   UNL     1       4.325   5.491  17.184  0.00  0.00    +0.000 A 
ATOM      8  C   UNL     1       4.790   4.276  16.659  0.00  0.00    +0.000 A 
ATOM      9 CL   UNL     1       6.317   4.055  15.888  0.00  0.00    +0.000 Cl
ATOM     10  C   UNL     1       4.002   3.145  16.836  0.00  0.00    +0.000 A 
ATOM     11  N   UNL     1       2.823   3.133  17.498  0.00  0.00    +0.000 NA
ATOM     12  C   UNL     1       2.412   4.311  18.016  0.00  0.00    +0.000 A 
ATOM     13  C   UNL     1       3.117   5.503  17.893  0.00  0.00    +0.000 A 
ATOM     14 CL   UNL     1       2.440   6.924  18.602  0.00  0.00    +0.000 Cl
ENDBRANCH   6   7
ENDBRANCH   3   5
BRANCH   1  15
ATOM     15  C   UNL     1       8.618   9.752  17.666  0.00  0.00    +0.000 C 
BRANCH  15  16
ATOM     16  N   UNL     1       9.212  10.335  18.872  0.00  0.00    +0.000 N 
ATOM     17  H   UNL     1       9.450   9.621  19.564  0.00  0.00    +0.000 HD
BRANCH  16  22
ATOM     18  C   UNL     1      11.333  13.174  17.656  0.00  0.00    +0.000 A 
ATOM     19  C   UNL     1      12.224  13.280  18.723  0.00  0.00    +0.000 A 
ATOM     20  C   UNL     1      12.132  12.404  19.801  0.00  0.00    +0.000 A 
ATOM     21  C   UNL     1      11.147  11.415  19.812  0.00  0.00    +0.000 A 
ATOM     22  C   UNL     1      10.243  11.277  18.748  0.00  0.00    +0.000 A 
ATOM     23  C   UNL     1      10.342  12.185  17.684  0.00  0.00    +0.000 A 
BRANCH  18  25
ATOM     24  C   UNL     1      11.208  15.444  16.963  0.00  0.00    +0.000 C 
ATOM     25  O   UNL     1      11.519  14.091  16.656  0.00  0.00    +0.000 OA
ENDBRANCH  18  25
ENDBRANCH  16  22
ENDBRANCH  15  16
ENDBRANCH   1  15
TORSDOF 6
ENDMDL
