MODEL 1
REMARK VINA RESULT:      -6.9      0.000      0.000
REMARK  Name = 
REMARK  9 active torsions:
REMARK  status: ('A' for Active; 'I' for Inactive)
REMARK    1  A    between atoms: C_1  and  C_2
REMARK    2  A    between atoms: C_2  and  C_3
REMARK    3  A    between atoms: C_2  and  C_4
REMARK    4  A    between atoms: C_8  and  C_9
REMARK    5  A    between atoms: C_13  and  C_14
REMARK    6  A    between atoms: C_14  and  O_15
REMARK    7  A    between atoms: C_16  and  C_17
REMARK    8  A    between atoms: C_17  and  N_18
REMARK    9  A    between atoms: N_21  and  C_22
REMARK                            x       y       z     vdW  Elec       q    Type
REMARK                         _______ _______ _______ _____ _____    ______ ____
ROOT
ATOM      1  C   UNL     1       5.070   4.050  17.797  0.00  0.00    +0.000 C 
ATOM      2  O   UNL     1       5.098   2.831  17.980  0.00  0.00    +0.000 OA
ATOM      3  N   UNL     1       4.151   4.825  18.498  0.00  0.00    +0.000 N 
ATOM      4  C   UNL     1       3.161   4.205  19.358  0.00  0.00    +0.000 C 
ATOM      5  C   UNL     1       1.942   5.091  19.134  0.00  0.00    +0.000 C 
ATOM      6  C   UNL     1       2.600   6.501  19.190  0.00  0.00    +0.000 C 
ATOM      7  C   UNL     1       3.989   6.278  18.545  0.00  0.00    +0.000 C 
ENDROOT
BRANCH   1  12
ATOM      8  C   UNL     1       6.945   5.753  16.983  0.00  0.00    +0.000 A 
ATOM      9  N   UNL     1       7.610   6.004  15.775  0.00  0.00    +0.000 NA
ATOM     10  N   UNL     1       7.164   5.261  14.786  0.00  0.00    +0.000 NA
ATOM     11  S   UNL     1       5.957   4.218  15.255  0.00  0.00    +0.000 S 
ATOM     12  C   UNL     1       6.022   4.700  16.912  0.00  0.00    +0.000 A 
BRANCH   8  14
ATOM     13  C   UNL     1       8.155   6.131  19.185  0.00  0.00    +0.000 C 
ATOM     14  C   UNL     1       7.250   6.729  18.096  0.00  0.00    +0.000 C 
ATOM     15  C   UNL     1       7.947   7.980  17.536  0.00  0.00    +0.000 C 
ENDBRANCH   8  14
ENDBRANCH   1  12
BRANCH   5  16
ATOM     16  C   UNL     1       1.272   4.765  17.787  0.00  0.00    +0.000 C 
BRANCH  16  17
ATOM     17  O   UNL     1       1.153   3.364  17.586  0.00  0.00    +0.000 OA
ATOM     18  H   UNL     1       1.893   3.066  17.034  0.00  0.00    +0.000 HD
ENDBRANCH  16  17
ENDBRANCH   5  16
BRANCH   6  19
ATOM     19  C   UNL     1       1.750   7.606  18.543  0.00  0.00    +0.000 C 
BRANCH  19  20
ATOM     20  N   UNL     1       1.741   8.919  19.205  0.00  0.00    +0.000 NA
ATOM     21  C   UNL     1       0.899   8.970  20.416  0.00  0.00    +0.000 C 
ATOM     22  C   UNL     1       0.828  10.395  21.022  0.00  0.00    +0.000 C 
ATOM     23  N   UNL     1       0.357  11.442  20.096  0.00  0.00    +0.000 NA
ATOM     24  C   UNL     1      -1.081  11.339  19.850  0.00  0.00    +0.000 C 
ATOM     25  C   UNL     1       1.140  11.361  18.849  0.00  0.00    +0.000 C 
ATOM     26  C   UNL     1       1.254   9.943  18.242  0.00  0.00    +0.000 C 
ENDBRANCH  19  20
ENDBRANCH   6  19
TORSDOF 6
ENDMDL
MODEL 2
REMARK VINA RESULT:      -6.4      0.775      1.450
REMARK  Name = 
REMARK  9 active torsions:
REMARK  status: ('A' for Active; 'I' for Inactive)
REMARK    1  A    between atoms: C_1  and  C_2
REMARK    2  A    between atoms: C_2  and  C_3
REMARK    3  A    between atoms: C_2  and  C_4
REMARK    4  A    between atoms: C_8  and  C_9
REMARK    5  A    between atoms: C_13  and  C_14
REMARK    6  A    between atoms: C_14  and  O_15
REMARK    7  A    between atoms: C_16  and  C_17
REMARK    8  A    between atoms: C_17  and  N_18
REMARK    9  A    between atoms: N_21  and  C_22
REMARK                            x       y       z     vdW  Elec       q    Type
REMARK                         _______ _______ _______ _____ _____    ______ ____
ROOT
ATOM      1  C   UNL     1       5.198   4.347  18.226  0.00  0.00    +0.000 C 
ATOM      2  O   UNL     1       5.283   3.257  18.796  0.00  0.00    +0.000 OA
ATOM      3  N   UNL     1       4.319   5.308  18.716  0.00  0.00    +0.000 N 
ATOM      4  C   UNL     1       3.431   5.005  19.823  0.00  0.00    +0.000 C 
ATOM      5  C   UNL     1       2.167   5.764  19.437  0.00  0.00    +0.000 C 
ATOM      6  C   UNL     1       2.779   7.114  18.963  0.00  0.00    +0.000 C 
ATOM      7  C   UNL     1       4.112   6.694  18.298  0.00  0.00    +0.000 C 
ENDROOT
BRANCH   1  12
ATOM      8  C   UNL     1       7.159   5.479  16.829  0.00  0.00    +0.000 A 
ATOM      9  N   UNL     1       7.578   5.451  15.493  0.00  0.00    +0.000 NA
ATOM     10  N   UNL     1       6.779   4.743  14.725  0.00  0.00    +0.000 NA
ATOM     11  S   UNL     1       5.515   4.061  15.563  0.00  0.00    +0.000 S 
ATOM     12  C   UNL     1       6.044   4.669  17.089  0.00  0.00    +0.000 A 
BRANCH   8  14
ATOM     13  C   UNL     1       7.359   7.894  17.597  0.00  0.00    +0.000 C 
ATOM     14  C   UNL     1       7.899   6.458  17.712  0.00  0.00    +0.000 C 
ATOM     15  C   UNL     1       7.798   6.032  19.186  0.00  0.00    +0.000 C 
ENDBRANCH   8  14
ENDBRANCH   1  12
BRANCH   5  16
ATOM     16  C   UNL     1       1.392   5.007  18.343  0.00  0.00    +0.000 C 
BRANCH  16  17
ATOM     17  O   UNL     1       1.348   3.612  18.600  0.00  0.00    +0.000 OA
ATOM     18  H   UNL     1       1.637   3.141  17.803  0.00  0.00    +0.000 HD
ENDBRANCH  16  17
ENDBRANCH   5  16
BRANCH   6  19
ATOM     19  C   UNL     1       1.839   7.940  18.072  0.00  0.00    +0.000 C 
BRANCH  19  20
ATOM     20  N   UNL     1       0.874   8.819  18.749  0.00  0.00    +0.000 NA
ATOM     21  C   UNL     1       0.741  10.150  18.125  0.00  0.00    +0.000 C 
ATOM     22  C   UNL     1      -0.201  11.084  18.928  0.00  0.00    +0.000 C 
ATOM     23  N   UNL     1       0.176  11.280  20.341  0.00  0.00    +0.000 NA
ATOM     24  C   UNL     1       1.349  12.141  20.474  0.00  0.00    +0.000 C 
ATOM     25  C   UNL     1       0.383   9.960  20.965  0.00  0.00    +0.000 C 
ATOM     26  C   UNL     1       1.292   8.997  20.166  0.00  0.00    +0.000 C 
ENDBRANCH  19  20
ENDBRANCH   6  19
TORSDOF 6
ENDMDL
MODEL 3
REMARK VINA RESULT:      -6.4      0.742      1.267
REMARK  Name = 
REMARK  9 active torsions:
REMARK  status: ('A' for Active; 'I' for Inactive)
REMARK    1  A    between atoms: C_1  and  C_2
REMARK    2  A    between atoms: C_2  and  C_3
REMARK    3  A    between atoms: C_2  and  C_4
REMARK    4  A    between atoms: C_8  and  C_9
REMARK    5  A    between atoms: C_13  and  C_14
REMARK    6  A    between atoms: C_14  and  O_15
REMARK    7  A    between atoms: C_16  and  C_17
REMARK    8  A    between atoms: C_17  and  N_18
REMARK    9  A    between atoms: N_21  and  C_22
REMARK                            x       y       z     vdW  Elec       q    Type
REMARK                         _______ _______ _______ _____ _____    ______ ____
ROOT
ATOM      1  C   UNL     1       4.907   4.053  17.599  0.00  0.00    +0.000 C 
ATOM      2  O   UNL     1       4.754   2.831  17.656  0.00  0.00    +0.000 OA
ATOM      3  N   UNL     1       4.112   4.880  18.387  0.00  0.00    +0.000 N 
ATOM      4  C   UNL     1       3.039   4.328  19.193  0.00  0.00    +0.000 C 
ATOM      5  C   UNL     1       1.965   5.402  19.076  0.00  0.00    +0.000 C 
ATOM      6  C   UNL     1       2.825   6.686  19.266  0.00  0.00    +0.000 C 
ATOM      7  C   UNL     1       4.166   6.328  18.583  0.00  0.00    +0.000 C 
ENDROOT
BRANCH   1  12
ATOM      8  C   UNL     1       6.917   5.647  16.892  0.00  0.00    +0.000 A 
ATOM      9  N   UNL     1       7.670   5.849  15.728  0.00  0.00    +0.000 NA
ATOM     10  N   UNL     1       7.248   5.119  14.718  0.00  0.00    +0.000 NA
ATOM     11  S   UNL     1       5.960   4.146  15.117  0.00  0.00    +0.000 S 
ATOM     12  C   UNL     1       5.945   4.643  16.770  0.00  0.00    +0.000 A 
BRANCH   8  14
ATOM     13  C   UNL     1       8.081   6.013  19.122  0.00  0.00    +0.000 C 
ATOM     14  C   UNL     1       7.201   6.618  18.015  0.00  0.00    +0.000 C 
ATOM     15  C   UNL     1       7.915   7.868  17.474  0.00  0.00    +0.000 C 
ENDBRANCH   8  14
ENDBRANCH   1  12
BRANCH   5  16
ATOM     16  C   UNL     1       1.256   5.318  17.712  0.00  0.00    +0.000 C 
BRANCH  16  17
ATOM     17  O   UNL     1       1.114   3.974  17.278  0.00  0.00    +0.000 OA
ATOM     18  H   UNL     1       1.819   3.442  17.681  0.00  0.00    +0.000 HD
ENDBRANCH  16  17
ENDBRANCH   5  16
BRANCH   6  19
ATOM     19  C   UNL     1       2.149   7.965  18.746  0.00  0.00    +0.000 C 
BRANCH  19  20
ATOM     20  N   UNL     1       0.984   8.460  19.494  0.00  0.00    +0.000 NA
ATOM     21  C   UNL     1       0.434   9.725  18.970  0.00  0.00    +0.000 C 
ATOM     22  C   UNL     1      -0.722  10.271  19.848  0.00  0.00    +0.000 C 
ATOM     23  N   UNL     1      -0.380  10.477  21.268  0.00  0.00    +0.000 NA
ATOM     24  C   UNL     1       0.479  11.644  21.453  0.00  0.00    +0.000 C 
ATOM     25  C   UNL     1       0.237   9.245  21.791  0.00  0.00    +0.000 C 
ATOM     26  C   UNL     1       1.372   8.661  20.916  0.00  0.00    +0.000 C 
ENDBRANCH  19  20
ENDBRANCH   6  19
TORSDOF 6
ENDMDL
MODEL 4
REMARK VINA RESULT:      -6.3      1.198      1.244
REMARK  Name = 
REMARK  9 active torsions:
REMARK  status: ('A' for Active; 'I' for Inactive)
REMARK    1  A    between atoms: C_1  and  C_2
REMARK    2  A    between atoms: C_2  and  C_3
REMARK    3  A    between atoms: C_2  and  C_4
REMARK    4  A    between atoms: C_8  and  C_9
REMARK    5  A    between atoms: C_13  and  C_14
REMARK    6  A    between atoms: C_14  and  O_15
REMARK    7  A    between atoms: C_16  and  C_17
REMARK    8  A    between atoms: C_17  and  N_18
REMARK    9  A    between atoms: N_21  and  C_22
REMARK                            x       y       z     vdW  Elec       q    Type
REMARK                         _______ _______ _______ _____ _____    ______ ____
ROOT
ATOM      1  C   UNL     1       4.745   3.827  18.847  0.00  0.00    +0.000 C 
ATOM      2  O   UNL     1       4.992   2.654  19.139  0.00  0.00    +0.000 OA
ATOM      3  N   UNL     1       3.917   4.578  19.676  0.00  0.00    +0.000 N 
ATOM      4  C   UNL     1       3.261   3.969  20.818  0.00  0.00    +0.000 C 
ATOM      5  C   UNL     1       1.908   4.671  20.821  0.00  0.00    +0.000 C 
ATOM      6  C   UNL     1       2.350   6.141  20.566  0.00  0.00    +0.000 C 
ATOM      7  C   UNL     1       3.562   5.996  19.616  0.00  0.00    +0.000 C 
ENDROOT
BRANCH   1  12
ATOM      8  C   UNL     1       6.287   5.474  17.437  0.00  0.00    +0.000 A 
ATOM      9  N   UNL     1       6.499   5.723  16.074  0.00  0.00    +0.000 NA
ATOM     10  N   UNL     1       5.705   5.015  15.300  0.00  0.00    +0.000 NA
ATOM     11  S   UNL     1       4.695   4.010  16.156  0.00  0.00    +0.000 S 
ATOM     12  C   UNL     1       5.354   4.458  17.688  0.00  0.00    +0.000 A 
BRANCH   8  14
ATOM     13  C   UNL     1       8.074   5.716  19.228  0.00  0.00    +0.000 C 
ATOM     14  C   UNL     1       7.000   6.418  18.378  0.00  0.00    +0.000 C 
ATOM     15  C   UNL     1       7.684   7.546  17.589  0.00  0.00    +0.000 C 
ENDBRANCH   8  14
ENDBRANCH   1  12
BRANCH   5  16
ATOM     16  C   UNL     1       0.991   4.092  19.729  0.00  0.00    +0.000 C 
BRANCH  16  17
ATOM     17  O   UNL     1       1.063   2.675  19.681  0.00  0.00    +0.000 OA
ATOM     18  H   UNL     1       1.776   2.421  19.074  0.00  0.00    +0.000 HD
ENDBRANCH  16  17
ENDBRANCH   5  16
BRANCH   6  19
ATOM     19  C   UNL     1       1.220   7.045  20.048  0.00  0.00    +0.000 C 
BRANCH  19  20
ATOM     20  N   UNL     1       1.321   8.482  20.344  0.00  0.00    +0.000 NA
ATOM     21  C   UNL     1       0.287   8.972  21.276  0.00  0.00    +0.000 C 
ATOM     22  C   UNL     1       0.359  10.507  21.478  0.00  0.00    +0.000 C 
ATOM     23  N   UNL     1       0.267  11.302  20.238  0.00  0.00    +0.000 NA
ATOM     24  C   UNL     1      -1.092  11.310  19.700  0.00  0.00    +0.000 C 
ATOM     25  C   UNL     1       1.246  10.781  19.266  0.00  0.00    +0.000 C 
ATOM     26  C   UNL     1       1.217   9.247  19.072  0.00  0.00    +0.000 C 
ENDBRANCH  19  20
ENDBRANCH   6  19
TORSDOF 6
ENDMDL
MODEL 5
REMARK VINA RESULT:      -6.3      0.933      1.244
REMARK  Name = 
REMARK  9 active torsions:
REMARK  status: ('A' for Active; 'I' for Inactive)
REMARK    1  A    between atoms: C_1  and  C_2
REMARK    2  A    between atoms: C_2  and  C_3
REMARK    3  A    between atoms: C_2  and  C_4
REMARK    4  A    between atoms: C_8  and  C_9
REMARK    5  A    between atoms: C_13  and  C_14
REMARK    6  A    between atoms: C_14  and  O_15
REMARK    7  A    between atoms: C_16  and  C_17
REMARK    8  A    between atoms: C_17  and  N_18
REMARK    9  A    between atoms: N_21  and  C_22
REMARK                            x       y       z     vdW  Elec       q    Type
REMARK                         _______ _______ _______ _____ _____    ______ ____
ROOT
ATOM      1  C   UNL     1       5.214   4.616  18.267  0.00  0.00    +0.000 C 
ATOM      2  O   UNL     1       5.372   3.598  18.945  0.00  0.00    +0.000 OA
ATOM      3  N   UNL     1       4.267   5.557  18.656  0.00  0.00    +0.000 N 
ATOM      4  C   UNL     1       3.394   5.307  19.788  0.00  0.00    +0.000 C 
ATOM      5  C   UNL     1       2.083   5.931  19.326  0.00  0.00    +0.000 C 
ATOM      6  C   UNL     1       2.602   7.265  18.717  0.00  0.00    +0.000 C 
ATOM      7  C   UNL     1       3.966   6.875  18.098  0.00  0.00    +0.000 C 
ENDROOT
BRANCH   1  12
ATOM      8  C   UNL     1       7.167   5.660  16.791  0.00  0.00    +0.000 A 
ATOM      9  N   UNL     1       7.560   5.574  15.449  0.00  0.00    +0.000 NA
ATOM     10  N   UNL     1       6.736   4.850  14.724  0.00  0.00    +0.000 NA
ATOM     11  S   UNL     1       5.477   4.222  15.611  0.00  0.00    +0.000 S 
ATOM     12  C   UNL     1       6.044   4.880  17.103  0.00  0.00    +0.000 A 
BRANCH   8  14
ATOM     13  C   UNL     1       7.364   8.084  17.530  0.00  0.00    +0.000 C 
ATOM     14  C   UNL     1       7.938   6.661  17.621  0.00  0.00    +0.000 C 
ATOM     15  C   UNL     1       7.935   6.244  19.102  0.00  0.00    +0.000 C 
ENDBRANCH   8  14
ENDBRANCH   1  12
BRANCH   5  16
ATOM     16  C   UNL     1       1.370   5.014  18.315  0.00  0.00    +0.000 C 
BRANCH  16  17
ATOM     17  O   UNL     1       1.564   3.642  18.623  0.00  0.00    +0.000 OA
ATOM     18  H   UNL     1       2.491   3.510  18.879  0.00  0.00    +0.000 HD
ENDBRANCH  16  17
ENDBRANCH   5  16
BRANCH   6  19
ATOM     19  C   UNL     1       1.612   7.928  17.746  0.00  0.00    +0.000 C 
BRANCH  19  20
ATOM     20  N   UNL     1       1.262   9.334  18.001  0.00  0.00    +0.000 NA
ATOM     21  C   UNL     1       1.703   9.827  19.320  0.00  0.00    +0.000 C 
ATOM     22  C   UNL     1       1.221  11.275  19.596  0.00  0.00    +0.000 C 
ATOM     23  N   UNL     1      -0.237  11.474  19.500  0.00  0.00    +0.000 NA
ATOM     24  C   UNL     1      -0.939  10.890  20.641  0.00  0.00    +0.000 C 
ATOM     25  C   UNL     1      -0.709  10.922  18.216  0.00  0.00    +0.000 C 
ATOM     26  C   UNL     1      -0.214   9.490  17.902  0.00  0.00    +0.000 C 
ENDBRANCH  19  20
ENDBRANCH   6  19
TORSDOF 6
ENDMDL
MODEL 6
REMARK VINA RESULT:      -6.0      1.502      2.107
REMARK  Name = 
REMARK  9 active torsions:
REMARK  status: ('A' for Active; 'I' for Inactive)
REMARK    1  A    between atoms: C_1  and  C_2
REMARK    2  A    between atoms: C_2  and  C_3
REMARK    3  A    between atoms: C_2  and  C_4
REMARK    4  A    between atoms: C_8  and  C_9
REMARK    5  A    between atoms: C_13  and  C_14
REMARK    6  A    between atoms: C_14  and  O_15
REMARK    7  A    between atoms: C_16  and  C_17
REMARK    8  A    between atoms: C_17  and  N_18
REMARK    9  A    between atoms: N_21  and  C_22
REMARK                            x       y       z     vdW  Elec       q    Type
REMARK                         _______ _______ _______ _____ _____    ______ ____
ROOT
ATOM      1  C   UNL     1       5.266   4.352  18.839  0.00  0.00    +0.000 C 
ATOM      2  O   UNL     1       5.488   3.142  18.924  0.00  0.00    +0.000 OA
ATOM      3  N   UNL     1       4.131   4.884  19.444  0.00  0.00    +0.000 N 
ATOM      4  C   UNL     1       3.157   4.018  20.082  0.00  0.00    +0.000 C 
ATOM      5  C   UNL     1       1.842   4.708  19.738  0.00  0.00    +0.000 C 
ATOM      6  C   UNL     1       2.219   6.193  20.012  0.00  0.00    +0.000 C 
ATOM      7  C   UNL     1       3.703   6.275  19.582  0.00  0.00    +0.000 C 
ENDROOT
BRANCH   1  12
ATOM      8  C   UNL     1       6.451   5.687  16.865  0.00  0.00    +0.000 A 
ATOM      9  N   UNL     1       7.546   6.554  16.763  0.00  0.00    +0.000 NA
ATOM     10  N   UNL     1       8.184   6.703  17.904  0.00  0.00    +0.000 NA
ATOM     11  S   UNL     1       7.493   5.842  19.147  0.00  0.00    +0.000 S 
ATOM     12  C   UNL     1       6.201   5.243  18.172  0.00  0.00    +0.000 A 
BRANCH   8  14
ATOM     13  C   UNL     1       6.851   4.837  14.504  0.00  0.00    +0.000 C 
ATOM     14  C   UNL     1       5.819   5.294  15.549  0.00  0.00    +0.000 C 
ATOM     15  C   UNL     1       4.816   4.148  15.757  0.00  0.00    +0.000 C 
ENDBRANCH   8  14
ENDBRANCH   1  12
BRANCH   5  16
ATOM     16  C   UNL     1       1.443   4.422  18.279  0.00  0.00    +0.000 C 
BRANCH  16  17
ATOM     17  O   UNL     1       1.043   3.071  18.100  0.00  0.00    +0.000 OA
ATOM     18  H   UNL     1       1.822   2.502  18.200  0.00  0.00    +0.000 HD
ENDBRANCH  16  17
ENDBRANCH   5  16
BRANCH   6  19
ATOM     19  C   UNL     1       1.286   7.205  19.329  0.00  0.00    +0.000 C 
BRANCH  19  20
ATOM     20  N   UNL     1       1.534   8.630  19.592  0.00  0.00    +0.000 NA
ATOM     21  C   UNL     1       0.617   9.221  20.587  0.00  0.00    +0.000 C 
ATOM     22  C   UNL     1       0.839  10.746  20.755  0.00  0.00    +0.000 C 
ATOM     23  N   UNL     1       0.728  11.532  19.512  0.00  0.00    +0.000 NA
ATOM     24  C   UNL     1      -0.661  11.655  19.072  0.00  0.00    +0.000 C 
ATOM     25  C   UNL     1       1.584  10.914  18.482  0.00  0.00    +0.000 C 
ATOM     26  C   UNL     1       1.406   9.387  18.317  0.00  0.00    +0.000 C 
ENDBRANCH  19  20
ENDBRANCH   6  19
TORSDOF 6
ENDMDL
MODEL 7
REMARK VINA RESULT:      -5.8      7.229      9.225
REMARK  Name = 
REMARK  9 active torsions:
REMARK  status: ('A' for Active; 'I' for Inactive)
REMARK    1  A    between atoms: C_1  and  C_2
REMARK    2  A    between atoms: C_2  and  C_3
REMARK    3  A    between atoms: C_2  and  C_4
REMARK    4  A    between atoms: C_8  and  C_9
REMARK    5  A    between atoms: C_13  and  C_14
REMARK    6  A    between atoms: C_14  and  O_15
REMARK    7  A    between atoms: C_16  and  C_17
REMARK    8  A    between atoms: C_17  and  N_18
REMARK    9  A    between atoms: N_21  and  C_22
REMARK                            x       y       z     vdW  Elec       q    Type
REMARK                         _______ _______ _______ _____ _____    ______ ____
ROOT
ATOM      1  C   UNL     1      -0.479  10.838  18.541  0.00  0.00    +0.000 C 
ATOM      2  O   UNL     1       0.376  10.074  18.087  0.00  0.00    +0.000 OA
ATOM      3  N   UNL     1      -1.822  10.606  18.260  0.00  0.00    +0.000 N 
ATOM      4  C   UNL     1      -2.217   9.541  17.358  0.00  0.00    +0.000 C 
ATOM      5  C   UNL     1      -3.401  10.163  16.627  0.00  0.00    +0.000 C 
ATOM      6  C   UNL     1      -4.156  10.821  17.818  0.00  0.00    +0.000 C 
ATOM      7  C   UNL     1      -3.018  11.285  18.757  0.00  0.00    +0.000 C 
ENDROOT
BRANCH   1  12
ATOM      8  C   UNL     1      -0.258  12.273  20.771  0.00  0.00    +0.000 A 
ATOM      9  N   UNL     1       0.266  13.529  21.102  0.00  0.00    +0.000 NA
ATOM     10  N   UNL     1       0.705  14.189  20.052  0.00  0.00    +0.000 NA
ATOM     11  S   UNL     1       0.536  13.336  18.636  0.00  0.00    +0.000 S 
ATOM     12  C   UNL     1      -0.114  11.940  19.416  0.00  0.00    +0.000 A 
BRANCH   8  14
ATOM     13  C   UNL     1      -0.158  10.430  22.517  0.00  0.00    +0.000 C 
ATOM     14  C   UNL     1      -0.984  11.566  21.892  0.00  0.00    +0.000 C 
ATOM     15  C   UNL     1      -1.342  12.560  23.009  0.00  0.00    +0.000 C 
ENDBRANCH   8  14
ENDBRANCH   1  12
BRANCH   5  16
ATOM     16  C   UNL     1      -2.918  11.162  15.560  0.00  0.00    +0.000 C 
BRANCH  16  17
ATOM     17  O   UNL     1      -2.879  10.573  14.270  0.00  0.00    +0.000 OA
ATOM     18  H   UNL     1      -2.184  11.009  13.751  0.00  0.00    +0.000 HD
ENDBRANCH  16  17
ENDBRANCH   5  16
BRANCH   6  19
ATOM     19  C   UNL     1      -5.140  11.923  17.393  0.00  0.00    +0.000 C 
BRANCH  19  20
ATOM     20  N   UNL     1      -6.333  12.118  18.231  0.00  0.00    +0.000 NA
ATOM     21  C   UNL     1      -6.347  13.402  18.958  0.00  0.00    +0.000 C 
ATOM     22  C   UNL     1      -7.563  13.523  19.912  0.00  0.00    +0.000 C 
ATOM     23  N   UNL     1      -7.685  12.438  20.904  0.00  0.00    +0.000 NA
ATOM     24  C   UNL     1      -6.684  12.557  21.962  0.00  0.00    +0.000 C 
ATOM     25  C   UNL     1      -7.602  11.143  20.204  0.00  0.00    +0.000 C 
ATOM     26  C   UNL     1      -6.415  11.009  19.220  0.00  0.00    +0.000 C 
ENDBRANCH  19  20
ENDBRANCH   6  19
TORSDOF 6
ENDMDL
MODEL 8
REMARK VINA RESULT:      -5.8      8.331     10.166
REMARK  Name = 
REMARK  9 active torsions:
REMARK  status: ('A' for Active; 'I' for Inactive)
REMARK    1  A    between atoms: C_1  and  C_2
REMARK    2  A    between atoms: C_2  and  C_3
REMARK    3  A    between atoms: C_2  and  C_4
REMARK    4  A    between atoms: C_8  and  C_9
REMARK    5  A    between atoms: C_13  and  C_14
REMARK    6  A    between atoms: C_14  and  O_15
REMARK    7  A    between atoms: C_16  and  C_17
REMARK    8  A    between atoms: C_17  and  N_18
REMARK    9  A    between atoms: N_21  and  C_22
REMARK                            x       y       z     vdW  Elec       q    Type
REMARK                         _______ _______ _______ _____ _____    ______ ____
ROOT
ATOM      1  C   UNL     1      10.844  14.030  17.932  0.00  0.00    +0.000 C 
ATOM      2  O   UNL     1      11.489  13.617  16.965  0.00  0.00    +0.000 OA
ATOM      3  N   UNL     1      10.815  13.281  19.105  0.00  0.00    +0.000 N 
ATOM      4  C   UNL     1      11.445  11.975  19.167  0.00  0.00    +0.000 C 
ATOM      5  C   UNL     1      10.480  11.196  20.052  0.00  0.00    +0.000 C 
ATOM      6  C   UNL     1      10.203  12.247  21.166  0.00  0.00    +0.000 C 
ATOM      7  C   UNL     1      10.227  13.595  20.406  0.00  0.00    +0.000 C 
ENDROOT
BRANCH   1  12
ATOM      8  C   UNL     1       8.849  15.790  17.951  0.00  0.00    +0.000 A 
ATOM      9  N   UNL     1       8.743  17.181  17.821  0.00  0.00    +0.000 NA
ATOM     10  N   UNL     1       9.899  17.757  17.571  0.00  0.00    +0.000 NA
ATOM     11  S   UNL     1      11.159  16.675  17.506  0.00  0.00    +0.000 S 
ATOM     12  C   UNL     1      10.167  15.315  17.891  0.00  0.00    +0.000 A 
BRANCH   8  14
ATOM     13  C   UNL     1       7.625  13.619  17.451  0.00  0.00    +0.000 C 
ATOM     14  C   UNL     1       7.532  15.050  18.008  0.00  0.00    +0.000 C 
ATOM     15  C   UNL     1       7.030  14.961  19.459  0.00  0.00    +0.000 C 
ENDBRANCH   8  14
ENDBRANCH   1  12
BRANCH   5  16
ATOM     16  C   UNL     1       9.228  10.779  19.258  0.00  0.00    +0.000 C 
BRANCH  16  17
ATOM     17  O   UNL     1       9.067   9.369  19.237  0.00  0.00    +0.000 OA
ATOM     18  H   UNL     1       9.199   9.056  18.328  0.00  0.00    +0.000 HD
ENDBRANCH  16  17
ENDBRANCH   5  16
BRANCH   6  19
ATOM     19  C   UNL     1       8.922  11.974  21.969  0.00  0.00    +0.000 C 
BRANCH  19  20
ATOM     20  N   UNL     1       8.727  12.748  23.204  0.00  0.00    +0.000 NA
ATOM     21  C   UNL     1       8.392  11.920  24.379  0.00  0.00    +0.000 C 
ATOM     22  C   UNL     1       8.087  12.779  25.634  0.00  0.00    +0.000 C 
ATOM     23  N   UNL     1       7.014  13.775  25.460  0.00  0.00    +0.000 NA
ATOM     24  C   UNL     1       5.695  13.147  25.414  0.00  0.00    +0.000 C 
ATOM     25  C   UNL     1       7.293  14.567  24.248  0.00  0.00    +0.000 C 
ATOM     26  C   UNL     1       7.634  13.735  22.990  0.00  0.00    +0.000 C 
ENDBRANCH  19  20
ENDBRANCH   6  19
TORSDOF 6
ENDMDL
MODEL 9
REMARK VINA RESULT:      -5.8      4.791      9.375
REMARK  Name = 
REMARK  9 active torsions:
REMARK  status: ('A' for Active; 'I' for Inactive)
REMARK    1  A    between atoms: C_1  and  C_2
REMARK    2  A    between atoms: C_2  and  C_3
REMARK    3  A    between atoms: C_2  and  C_4
REMARK    4  A    between atoms: C_8  and  C_9
REMARK    5  A    between atoms: C_13  and  C_14
REMARK    6  A    between atoms: C_14  and  O_15
REMARK    7  A    between atoms: C_16  and  C_17
REMARK    8  A    between atoms: C_17  and  N_18
REMARK    9  A    between atoms: N_21  and  C_22
REMARK                            x       y       z     vdW  Elec       q    Type
REMARK                         _______ _______ _______ _____ _____    ______ ____
ROOT
ATOM      1  C   UNL     1       0.018  13.597  20.227  0.00  0.00    +0.000 C 
ATOM      2  O   UNL     1      -0.255  14.432  19.361  0.00  0.00    +0.000 OA
ATOM      3  N   UNL     1       0.676  12.426  19.864  0.00  0.00    +0.000 N 
ATOM      4  C   UNL     1       0.950  12.132  18.470  0.00  0.00    +0.000 C 
ATOM      5  C   UNL     1       0.743  10.623  18.415  0.00  0.00    +0.000 C 
ATOM      6  C   UNL     1       1.483  10.186  19.712  0.00  0.00    +0.000 C 
ATOM      7  C   UNL     1       1.202  11.346  20.697  0.00  0.00    +0.000 C 
ENDROOT
BRANCH   1  12
ATOM      8  C   UNL     1      -1.000  13.216  22.656  0.00  0.00    +0.000 A 
ATOM      9  N   UNL     1      -0.993  13.926  23.864  0.00  0.00    +0.000 NA
ATOM     10  N   UNL     1      -0.390  15.090  23.765  0.00  0.00    +0.000 NA
ATOM     11  S   UNL     1       0.216  15.377  22.244  0.00  0.00    +0.000 S 
ATOM     12  C   UNL     1      -0.279  13.842  21.628  0.00  0.00    +0.000 A 
BRANCH   8  14
ATOM     13  C   UNL     1      -1.144  10.728  23.152  0.00  0.00    +0.000 C 
ATOM     14  C   UNL     1      -1.873  11.982  22.642  0.00  0.00    +0.000 C 
ATOM     15  C   UNL     1      -3.117  12.196  23.521  0.00  0.00    +0.000 C 
ENDBRANCH   8  14
ENDBRANCH   1  12
BRANCH   5  16
ATOM     16  C   UNL     1      -0.758  10.280  18.402  0.00  0.00    +0.000 C 
BRANCH  16  17
ATOM     17  O   UNL     1      -1.470  11.074  17.465  0.00  0.00    +0.000 OA
ATOM     18  H   UNL     1      -2.418  10.889  17.559  0.00  0.00    +0.000 HD
ENDBRANCH  16  17
ENDBRANCH   5  16
BRANCH   6  19
ATOM     19  C   UNL     1       1.078   8.791  20.215  0.00  0.00    +0.000 C 
BRANCH  19  20
ATOM     20  N   UNL     1       2.048   7.702  20.024  0.00  0.00    +0.000 NA
ATOM     21  C   UNL     1       2.394   7.454  18.611  0.00  0.00    +0.000 C 
ATOM     22  C   UNL     1       3.331   6.231  18.443  0.00  0.00    +0.000 C 
ATOM     23  N   UNL     1       2.818   4.971  19.013  0.00  0.00    +0.000 NA
ATOM     24  C   UNL     1       1.737   4.412  18.204  0.00  0.00    +0.000 C 
ATOM     25  C   UNL     1       2.400   5.216  20.406  0.00  0.00    +0.000 C 
ATOM     26  C   UNL     1       1.491   6.451  20.606  0.00  0.00    +0.000 C 
ENDBRANCH  19  20
ENDBRANCH   6  19
TORSDOF 6
ENDMDL
