MODEL 1
REMARK VINA RESULT:      -7.4      0.000      0.000
REMARK  Name = 
REMARK  9 active torsions:
REMARK  status: ('A' for Active; 'I' for Inactive)
REMARK    1  A    between atoms: C_1  and  O_2
REMARK    2  A    between atoms: O_2  and  C_3
REMARK    3  A    between atoms: C_3  and  C_4
REMARK    4  A    between atoms: N_8  and  C_9
REMARK    5  A    between atoms: C_9  and  C_10
REMARK    6  A    between atoms: C_18  and  C_20
REMARK    7  A    between atoms: N_23  and  C_24
REMARK    8  A    between atoms: C_24  and  C_25
REMARK    9  A    between atoms: C_24  and  C_26
REMARK                            x       y       z     vdW  Elec       q    Type
REMARK                         _______ _______ _______ _____ _____    ______ ____
ROOT
ATOM      1  C   UNL     1       2.326   7.839  18.685  0.00  0.00    +0.000 A 
ATOM      2  C   UNL     1       2.134   7.446  20.015  0.00  0.00    +0.000 A 
ATOM      3  C   UNL     1       1.251   8.152  20.829  0.00  0.00    +0.000 A 
ATOM      4  C   UNL     1       0.626   9.304  20.344  0.00  0.00    +0.000 A 
ATOM      5  C   UNL     1       0.810   9.730  19.025  0.00  0.00    +0.000 A 
ATOM      6  C   UNL     1       1.600   8.935  18.187  0.00  0.00    +0.000 A 
ATOM      7  C   UNL     1       0.241  11.021  18.491  0.00  0.00    +0.000 C 
ATOM      8  N   UNL     1       0.642  12.197  19.273  0.00  0.00    +0.000 N 
ATOM      9  C   UNL     1       1.838  12.838  18.913  0.00  0.00    +0.000 C 
ATOM     10  O   UNL     1       2.534  12.425  17.981  0.00  0.00    +0.000 OA
ATOM     11  C   UNL     1      -0.033  12.324  20.568  0.00  0.00    +0.000 C 
ATOM     12  C   UNL     1       0.377  11.241  21.564  0.00  0.00    +0.000 C 
ATOM     13  O   UNL     1      -0.191   9.975  21.212  0.00  0.00    +0.000 OA
ENDROOT
BRANCH   9  14
ATOM     14  C   UNL     1       2.266  14.034  19.642  0.00  0.00    +0.000 A 
ATOM     15  C   UNL     1       1.882  15.389  19.516  0.00  0.00    +0.000 A 
ATOM     16  N   UNL     1       2.503  16.199  20.374  0.00  0.00    +0.000 NA
ATOM     17  N   UNL     1       3.385  15.392  20.992  0.00  0.00    +0.000 N 
ATOM     18  C   UNL     1       3.290  14.092  20.578  0.00  0.00    +0.000 A 
BRANCH  17  19
ATOM     19  C   UNL     1       4.329  15.951  21.957  0.00  0.00    +0.000 C 
ATOM     20  C   UNL     1       4.708  14.921  23.023  0.00  0.00    +0.000 C 
ATOM     21  C   UNL     1       5.577  16.504  21.268  0.00  0.00    +0.000 C 
ENDBRANCH  17  19
ENDBRANCH   9  14
BRANCH   1  22
ATOM     22  C   UNL     1       3.388   7.196  17.820  0.00  0.00    +0.000 C 
BRANCH  22  27
ATOM     23  C   UNL     1       2.127   3.633  18.227  0.00  0.00    +0.000 C 
ATOM     24  C   UNL     1       3.016   2.943  17.185  0.00  0.00    +0.000 C 
ATOM     25  C   UNL     1       4.403   3.563  17.151  0.00  0.00    +0.000 C 
ATOM     26  C   UNL     1       4.335   5.081  17.000  0.00  0.00    +0.000 C 
ATOM     27  N   UNL     1       3.469   5.729  18.003  0.00  0.00    +0.000 NA
ATOM     28  C   UNL     1       2.114   5.152  17.971  0.00  0.00    +0.000 C 
BRANCH  23  29
ATOM     29  C   UNL     1       2.583   3.304  19.657  0.00  0.00    +0.000 C 
BRANCH  29  31
ATOM     30  C   UNL     1       1.415   2.670  21.596  0.00  0.00    +0.000 C 
ATOM     31  O   UNL     1       1.686   2.354  20.237  0.00  0.00    +0.000 OA
ENDBRANCH  29  31
ENDBRANCH  23  29
ENDBRANCH  22  27
ENDBRANCH   1  22
TORSDOF 6
ENDMDL
MODEL 2
REMARK VINA RESULT:      -7.4      1.169      1.749
REMARK  Name = 
REMARK  9 active torsions:
REMARK  status: ('A' for Active; 'I' for Inactive)
REMARK    1  A    between atoms: C_1  and  O_2
REMARK    2  A    between atoms: O_2  and  C_3
REMARK    3  A    between atoms: C_3  and  C_4
REMARK    4  A    between atoms: N_8  and  C_9
REMARK    5  A    between atoms: C_9  and  C_10
REMARK    6  A    between atoms: C_18  and  C_20
REMARK    7  A    between atoms: N_23  and  C_24
REMARK    8  A    between atoms: C_24  and  C_25
REMARK    9  A    between atoms: C_24  and  C_26
REMARK                            x       y       z     vdW  Elec       q    Type
REMARK                         _______ _______ _______ _____ _____    ______ ____
ROOT
ATOM      1  C   UNL     1       2.023   7.818  19.258  0.00  0.00    +0.000 A 
ATOM      2  C   UNL     1       1.688   7.629  20.604  0.00  0.00    +0.000 A 
ATOM      3  C   UNL     1       0.801   8.503  21.231  0.00  0.00    +0.000 A 
ATOM      4  C   UNL     1       0.317   9.617  20.540  0.00  0.00    +0.000 A 
ATOM      5  C   UNL     1       0.646   9.841  19.199  0.00  0.00    +0.000 A 
ATOM      6  C   UNL     1       1.435   8.882  18.552  0.00  0.00    +0.000 A 
ATOM      7  C   UNL     1       0.233  11.081  18.447  0.00  0.00    +0.000 C 
ATOM      8  N   UNL     1       0.663  12.324  19.100  0.00  0.00    +0.000 N 
ATOM      9  C   UNL     1       1.934  12.822  18.773  0.00  0.00    +0.000 C 
ATOM     10  O   UNL     1       2.669  12.234  17.973  0.00  0.00    +0.000 OA
ATOM     11  C   UNL     1      -0.105  12.678  20.298  0.00  0.00    +0.000 C 
ATOM     12  C   UNL     1       0.129  11.719  21.463  0.00  0.00    +0.000 C 
ATOM     13  O   UNL     1      -0.511  10.459  21.230  0.00  0.00    +0.000 OA
ENDROOT
BRANCH   9  14
ATOM     14  C   UNL     1       2.398  14.074  19.373  0.00  0.00    +0.000 A 
ATOM     15  C   UNL     1       3.346  14.325  20.391  0.00  0.00    +0.000 A 
ATOM     16  N   UNL     1       3.500  15.620  20.668  0.00  0.00    +0.000 NA
ATOM     17  N   UNL     1       2.566  16.221  19.907  0.00  0.00    +0.000 N 
ATOM     18  C   UNL     1       1.874  15.336  19.126  0.00  0.00    +0.000 A 
BRANCH  17  19
ATOM     19  C   UNL     1       2.364  17.664  20.008  0.00  0.00    +0.000 C 
ATOM     20  C   UNL     1       1.292  18.144  19.029  0.00  0.00    +0.000 C 
ATOM     21  C   UNL     1       2.022  18.085  21.438  0.00  0.00    +0.000 C 
ENDBRANCH  17  19
ENDBRANCH   9  14
BRANCH   1  22
ATOM     22  C   UNL     1       3.096   6.987  18.590  0.00  0.00    +0.000 C 
BRANCH  22  27
ATOM     23  C   UNL     1       1.935   3.393  18.161  0.00  0.00    +0.000 C 
ATOM     24  C   UNL     1       3.291   2.686  18.275  0.00  0.00    +0.000 C 
ATOM     25  C   UNL     1       4.187   3.381  19.287  0.00  0.00    +0.000 C 
ATOM     26  C   UNL     1       4.290   4.879  19.009  0.00  0.00    +0.000 C 
ATOM     27  N   UNL     1       2.977   5.542  18.892  0.00  0.00    +0.000 NA
ATOM     28  C   UNL     1       2.153   4.888  17.862  0.00  0.00    +0.000 C 
BRANCH  23  29
ATOM     29  C   UNL     1       1.089   3.187  19.427  0.00  0.00    +0.000 C 
BRANCH  29  31
ATOM     30  C   UNL     1       1.590   2.553  21.635  0.00  0.00    +0.000 C 
ATOM     31  O   UNL     1       1.709   2.206  20.262  0.00  0.00    +0.000 OA
ENDBRANCH  29  31
ENDBRANCH  23  29
ENDBRANCH  22  27
ENDBRANCH   1  22
TORSDOF 6
ENDMDL
MODEL 3
REMARK VINA RESULT:      -7.2      1.257      1.727
REMARK  Name = 
REMARK  9 active torsions:
REMARK  status: ('A' for Active; 'I' for Inactive)
REMARK    1  A    between atoms: C_1  and  O_2
REMARK    2  A    between atoms: O_2  and  C_3
REMARK    3  A    between atoms: C_3  and  C_4
REMARK    4  A    between atoms: N_8  and  C_9
REMARK    5  A    between atoms: C_9  and  C_10
REMARK    6  A    between atoms: C_18  and  C_20
REMARK    7  A    between atoms: N_23  and  C_24
REMARK    8  A    between atoms: C_24  and  C_25
REMARK    9  A    between atoms: C_24  and  C_26
REMARK                            x       y       z     vdW  Elec       q    Type
REMARK                         _______ _______ _______ _____ _____    ______ ____
ROOT
ATOM      1  C   UNL     1       2.648   7.909  18.078  0.00  0.00    +0.000 A 
ATOM      2  C   UNL     1       2.597   7.289  19.331  0.00  0.00    +0.000 A 
ATOM      3  C   UNL     1       1.726   7.765  20.309  0.00  0.00    +0.000 A 
ATOM      4  C   UNL     1       0.969   8.914  20.066  0.00  0.00    +0.000 A 
ATOM      5  C   UNL     1       1.010   9.565  18.829  0.00  0.00    +0.000 A 
ATOM      6  C   UNL     1       1.795   8.995  17.819  0.00  0.00    +0.000 A 
ATOM      7  C   UNL     1       0.293  10.863  18.559  0.00  0.00    +0.000 C 
ATOM      8  N   UNL     1       0.655  11.930  19.500  0.00  0.00    +0.000 N 
ATOM      9  C   UNL     1       1.759  12.734  19.176  0.00  0.00    +0.000 C 
ATOM     10  O   UNL     1       2.410  12.547  18.144  0.00  0.00    +0.000 OA
ATOM     11  C   UNL     1       0.077  11.780  20.839  0.00  0.00    +0.000 C 
ATOM     12  C   UNL     1       0.656  10.595  21.609  0.00  0.00    +0.000 C 
ATOM     13  O   UNL     1       0.170   9.354  21.086  0.00  0.00    +0.000 OA
ENDROOT
BRANCH   9  14
ATOM     14  C   UNL     1       2.141  13.832  20.066  0.00  0.00    +0.000 A 
ATOM     15  C   UNL     1       1.748  15.190  20.093  0.00  0.00    +0.000 A 
ATOM     16  N   UNL     1       2.322  15.891  21.072  0.00  0.00    +0.000 NA
ATOM     17  N   UNL     1       3.185  15.017  21.624  0.00  0.00    +0.000 N 
ATOM     18  C   UNL     1       3.122  13.778  21.048  0.00  0.00    +0.000 A 
BRANCH  17  19
ATOM     19  C   UNL     1       4.079  15.456  22.692  0.00  0.00    +0.000 C 
ATOM     20  C   UNL     1       5.163  14.413  22.972  0.00  0.00    +0.000 C 
ATOM     21  C   UNL     1       4.702  16.817  22.381  0.00  0.00    +0.000 C 
ENDBRANCH  17  19
ENDBRANCH   9  14
BRANCH   1  22
ATOM     22  C   UNL     1       3.688   7.520  17.049  0.00  0.00    +0.000 C 
BRANCH  22  27
ATOM     23  C   UNL     1       5.481   4.202  17.522  0.00  0.00    +0.000 C 
ATOM     24  C   UNL     1       6.924   4.676  17.313  0.00  0.00    +0.000 C 
ATOM     25  C   UNL     1       7.132   6.067  17.888  0.00  0.00    +0.000 C 
ATOM     26  C   UNL     1       6.077   7.048  17.380  0.00  0.00    +0.000 C 
ATOM     27  N   UNL     1       4.695   6.573  17.578  0.00  0.00    +0.000 NA
ATOM     28  C   UNL     1       4.505   5.251  16.958  0.00  0.00    +0.000 C 
BRANCH  23  29
ATOM     29  C   UNL     1       5.198   3.905  19.003  0.00  0.00    +0.000 C 
BRANCH  29  31
ATOM     30  C   UNL     1       3.119   3.605  20.057  0.00  0.00    +0.000 C 
ATOM     31  O   UNL     1       4.038   3.077  19.111  0.00  0.00    +0.000 OA
ENDBRANCH  29  31
ENDBRANCH  23  29
ENDBRANCH  22  27
ENDBRANCH   1  22
TORSDOF 6
ENDMDL
MODEL 4
REMARK VINA RESULT:      -7.2      1.478      2.107
REMARK  Name = 
REMARK  9 active torsions:
REMARK  status: ('A' for Active; 'I' for Inactive)
REMARK    1  A    between atoms: C_1  and  O_2
REMARK    2  A    between atoms: O_2  and  C_3
REMARK    3  A    between atoms: C_3  and  C_4
REMARK    4  A    between atoms: N_8  and  C_9
REMARK    5  A    between atoms: C_9  and  C_10
REMARK    6  A    between atoms: C_18  and  C_20
REMARK    7  A    between atoms: N_23  and  C_24
REMARK    8  A    between atoms: C_24  and  C_25
REMARK    9  A    between atoms: C_24  and  C_26
REMARK                            x       y       z     vdW  Elec       q    Type
REMARK                         _______ _______ _______ _____ _____    ______ ____
ROOT
ATOM      1  C   UNL     1       2.654   7.869  18.107  0.00  0.00    +0.000 A 
ATOM      2  C   UNL     1       2.591   7.272  19.372  0.00  0.00    +0.000 A 
ATOM      3  C   UNL     1       1.734   7.787  20.343  0.00  0.00    +0.000 A 
ATOM      4  C   UNL     1       1.006   8.951  20.082  0.00  0.00    +0.000 A 
ATOM      5  C   UNL     1       1.061   9.579  18.833  0.00  0.00    +0.000 A 
ATOM      6  C   UNL     1       1.828   8.972  17.832  0.00  0.00    +0.000 A 
ATOM      7  C   UNL     1       0.376  10.891  18.542  0.00  0.00    +0.000 C 
ATOM      8  N   UNL     1       0.767  11.964  19.464  0.00  0.00    +0.000 N 
ATOM      9  C   UNL     1       1.891  12.733  19.124  0.00  0.00    +0.000 C 
ATOM     10  O   UNL     1       2.535  12.512  18.094  0.00  0.00    +0.000 OA
ATOM     11  C   UNL     1       0.190  11.852  20.807  0.00  0.00    +0.000 C 
ATOM     12  C   UNL     1       0.740  10.666  21.596  0.00  0.00    +0.000 C 
ATOM     13  O   UNL     1       0.221   9.429  21.096  0.00  0.00    +0.000 OA
ENDROOT
BRANCH   9  14
ATOM     14  C   UNL     1       2.304  13.836  19.994  0.00  0.00    +0.000 A 
ATOM     15  C   UNL     1       3.216  13.881  21.074  0.00  0.00    +0.000 A 
ATOM     16  N   UNL     1       3.327  15.089  21.627  0.00  0.00    +0.000 NA
ATOM     17  N   UNL     1       2.400  15.821  20.982  0.00  0.00    +0.000 N 
ATOM     18  C   UNL     1       1.754  15.111  20.007  0.00  0.00    +0.000 A 
BRANCH  17  19
ATOM     19  C   UNL     1       2.156  17.203  21.384  0.00  0.00    +0.000 C 
ATOM     20  C   UNL     1       3.315  17.751  22.220  0.00  0.00    +0.000 C 
ATOM     21  C   UNL     1       1.886  18.102  20.176  0.00  0.00    +0.000 C 
ENDBRANCH  17  19
ENDBRANCH   9  14
BRANCH   1  22
ATOM     22  C   UNL     1       3.681   7.436  17.083  0.00  0.00    +0.000 C 
BRANCH  22  27
ATOM     23  C   UNL     1       5.399   4.081  17.577  0.00  0.00    +0.000 C 
ATOM     24  C   UNL     1       6.854   4.526  17.388  0.00  0.00    +0.000 C 
ATOM     25  C   UNL     1       7.083   5.912  17.967  0.00  0.00    +0.000 C 
ATOM     26  C   UNL     1       6.056   6.915  17.445  0.00  0.00    +0.000 C 
ATOM     27  N   UNL     1       4.662   6.468  17.625  0.00  0.00    +0.000 NA
ATOM     28  C   UNL     1       4.452   5.151  17.001  0.00  0.00    +0.000 C 
BRANCH  23  29
ATOM     29  C   UNL     1       5.091   3.790  19.054  0.00  0.00    +0.000 C 
BRANCH  29  31
ATOM     30  C   UNL     1       3.640   1.959  18.792  0.00  0.00    +0.000 C 
ATOM     31  O   UNL     1       3.745   3.322  19.178  0.00  0.00    +0.000 OA
ENDBRANCH  29  31
ENDBRANCH  23  29
ENDBRANCH  22  27
ENDBRANCH   1  22
TORSDOF 6
ENDMDL
MODEL 5
REMARK VINA RESULT:      -7.1      0.906      1.208
REMARK  Name = 
REMARK  9 active torsions:
REMARK  status: ('A' for Active; 'I' for Inactive)
REMARK    1  A    between atoms: C_1  and  O_2
REMARK    2  A    between atoms: O_2  and  C_3
REMARK    3  A    between atoms: C_3  and  C_4
REMARK    4  A    between atoms: N_8  and  C_9
REMARK    5  A    between atoms: C_9  and  C_10
REMARK    6  A    between atoms: C_18  and  C_20
REMARK    7  A    between atoms: N_23  and  C_24
REMARK    8  A    between atoms: C_24  and  C_25
REMARK    9  A    between atoms: C_24  and  C_26
REMARK                            x       y       z     vdW  Elec       q    Type
REMARK                         _______ _______ _______ _____ _____    ______ ____
ROOT
ATOM      1  C   UNL     1       2.030   8.222  18.815  0.00  0.00    +0.000 A 
ATOM      2  C   UNL     1       1.842   7.903  20.165  0.00  0.00    +0.000 A 
ATOM      3  C   UNL     1       0.964   8.655  20.943  0.00  0.00    +0.000 A 
ATOM      4  C   UNL     1       0.341   9.780  20.398  0.00  0.00    +0.000 A 
ATOM      5  C   UNL     1       0.520  10.134  19.057  0.00  0.00    +0.000 A 
ATOM      6  C   UNL     1       1.305   9.291  18.260  0.00  0.00    +0.000 A 
ATOM      7  C   UNL     1      -0.048  11.395  18.456  0.00  0.00    +0.000 C 
ATOM      8  N   UNL     1       0.360  12.610  19.171  0.00  0.00    +0.000 N 
ATOM      9  C   UNL     1       1.555  13.227  18.772  0.00  0.00    +0.000 C 
ATOM     10  O   UNL     1       2.247  12.762  17.860  0.00  0.00    +0.000 OA
ATOM     11  C   UNL     1      -0.310  12.810  20.460  0.00  0.00    +0.000 C 
ATOM     12  C   UNL     1       0.102  11.782  21.512  0.00  0.00    +0.000 C 
ATOM     13  O   UNL     1      -0.471  10.500  21.231  0.00  0.00    +0.000 OA
ENDROOT
BRANCH   9  14
ATOM     14  C   UNL     1       1.990  14.460  19.432  0.00  0.00    +0.000 A 
ATOM     15  C   UNL     1       1.612  15.808  19.231  0.00  0.00    +0.000 A 
ATOM     16  N   UNL     1       2.238  16.662  20.042  0.00  0.00    +0.000 NA
ATOM     17  N   UNL     1       3.116  15.887  20.704  0.00  0.00    +0.000 N 
ATOM     18  C   UNL     1       3.014  14.566  20.363  0.00  0.00    +0.000 A 
BRANCH  17  19
ATOM     19  C   UNL     1       4.063  16.494  21.635  0.00  0.00    +0.000 C 
ATOM     20  C   UNL     1       4.474  17.894  21.175  0.00  0.00    +0.000 C 
ATOM     21  C   UNL     1       3.507  16.532  23.059  0.00  0.00    +0.000 C 
ENDBRANCH  17  19
ENDBRANCH   9  14
BRANCH   1  22
ATOM     22  C   UNL     1       3.086   7.530  17.982  0.00  0.00    +0.000 C 
BRANCH  22  27
ATOM     23  C   UNL     1       2.757   3.760  18.341  0.00  0.00    +0.000 C 
ATOM     24  C   UNL     1       4.224   3.368  18.123  0.00  0.00    +0.000 C 
ATOM     25  C   UNL     1       5.161   4.398  18.732  0.00  0.00    +0.000 C 
ATOM     26  C   UNL     1       4.821   5.812  18.265  0.00  0.00    +0.000 C 
ATOM     27  N   UNL     1       3.405   6.169  18.471  0.00  0.00    +0.000 NA
ATOM     28  C   UNL     1       2.520   5.189  17.819  0.00  0.00    +0.000 C 
BRANCH  23  29
ATOM     29  C   UNL     1       2.355   3.623  19.817  0.00  0.00    +0.000 C 
BRANCH  29  31
ATOM     30  C   UNL     1       0.712   2.243  18.856  0.00  0.00    +0.000 C 
ATOM     31  O   UNL     1       1.006   3.157  19.903  0.00  0.00    +0.000 OA
ENDBRANCH  29  31
ENDBRANCH  23  29
ENDBRANCH  22  27
ENDBRANCH   1  22
TORSDOF 6
ENDMDL
MODEL 6
REMARK VINA RESULT:      -7.1      3.439      9.967
REMARK  Name = 
REMARK  9 active torsions:
REMARK  status: ('A' for Active; 'I' for Inactive)
REMARK    1  A    between atoms: C_1  and  O_2
REMARK    2  A    between atoms: O_2  and  C_3
REMARK    3  A    between atoms: C_3  and  C_4
REMARK    4  A    between atoms: N_8  and  C_9
REMARK    5  A    between atoms: C_9  and  C_10
REMARK    6  A    between atoms: C_18  and  C_20
REMARK    7  A    between atoms: N_23  and  C_24
REMARK    8  A    between atoms: C_24  and  C_25
REMARK    9  A    between atoms: C_24  and  C_26
REMARK                            x       y       z     vdW  Elec       q    Type
REMARK                         _______ _______ _______ _____ _____    ______ ____
ROOT
ATOM      1  C   UNL     1       2.346   7.961  17.994  0.00  0.00    +0.000 A 
ATOM      2  C   UNL     1       1.451   6.919  18.261  0.00  0.00    +0.000 A 
ATOM      3  C   UNL     1       1.928   5.623  18.454  0.00  0.00    +0.000 A 
ATOM      4  C   UNL     1       3.289   5.352  18.292  0.00  0.00    +0.000 A 
ATOM      5  C   UNL     1       4.206   6.370  18.011  0.00  0.00    +0.000 A 
ATOM      6  C   UNL     1       3.723   7.682  17.948  0.00  0.00    +0.000 A 
ATOM      7  C   UNL     1       5.664   6.108  17.726  0.00  0.00    +0.000 C 
ATOM      8  N   UNL     1       5.876   5.163  16.623  0.00  0.00    +0.000 N 
ATOM      9  C   UNL     1       5.950   5.689  15.324  0.00  0.00    +0.000 C 
ATOM     10  O   UNL     1       5.830   6.900  15.111  0.00  0.00    +0.000 OA
ATOM     11  C   UNL     1       5.592   3.764  16.958  0.00  0.00    +0.000 C 
ATOM     12  C   UNL     1       4.108   3.497  17.199  0.00  0.00    +0.000 C 
ATOM     13  O   UNL     1       3.682   4.051  18.449  0.00  0.00    +0.000 OA
ENDROOT
BRANCH   9  14
ATOM     14  C   UNL     1       6.192   4.792  14.192  0.00  0.00    +0.000 A 
ATOM     15  C   UNL     1       7.288   4.688  13.304  0.00  0.00    +0.000 A 
ATOM     16  N   UNL     1       7.140   3.731  12.387  0.00  0.00    +0.000 NA
ATOM     17  N   UNL     1       5.891   3.276  12.600  0.00  0.00    +0.000 N 
ATOM     18  C   UNL     1       5.281   3.890  13.660  0.00  0.00    +0.000 A 
BRANCH  17  19
ATOM     19  C   UNL     1       5.325   2.264  11.713  0.00  0.00    +0.000 C 
ATOM     20  C   UNL     1       4.226   2.855  10.827  0.00  0.00    +0.000 C 
ATOM     21  C   UNL     1       6.404   1.592  10.863  0.00  0.00    +0.000 C 
ENDBRANCH  17  19
ENDBRANCH   9  14
BRANCH   1  22
ATOM     22  C   UNL     1       1.856   9.345  17.627  0.00  0.00    +0.000 C 
BRANCH  22  27
ATOM     23  C   UNL     1       0.478  11.824  20.158  0.00  0.00    +0.000 C 
ATOM     24  C   UNL     1      -0.957  11.936  19.628  0.00  0.00    +0.000 C 
ATOM     25  C   UNL     1      -1.451  10.600  19.098  0.00  0.00    +0.000 C 
ATOM     26  C   UNL     1      -0.467   9.994  18.100  0.00  0.00    +0.000 C 
ATOM     27  N   UNL     1       0.910   9.903  18.620  0.00  0.00    +0.000 NA
ATOM     28  C   UNL     1       1.386  11.222  19.069  0.00  0.00    +0.000 C 
BRANCH  23  29
ATOM     29  C   UNL     1       0.532  11.004  21.456  0.00  0.00    +0.000 C 
BRANCH  29  31
ATOM     30  C   UNL     1      -1.108  10.684  23.110  0.00  0.00    +0.000 C 
ATOM     31  O   UNL     1      -0.279  11.632  22.452  0.00  0.00    +0.000 OA
ENDBRANCH  29  31
ENDBRANCH  23  29
ENDBRANCH  22  27
ENDBRANCH   1  22
TORSDOF 6
ENDMDL
MODEL 7
REMARK VINA RESULT:      -6.8      3.534     10.096
REMARK  Name = 
REMARK  9 active torsions:
REMARK  status: ('A' for Active; 'I' for Inactive)
REMARK    1  A    between atoms: C_1  and  O_2
REMARK    2  A    between atoms: O_2  and  C_3
REMARK    3  A    between atoms: C_3  and  C_4
REMARK    4  A    between atoms: N_8  and  C_9
REMARK    5  A    between atoms: C_9  and  C_10
REMARK    6  A    between atoms: C_18  and  C_20
REMARK    7  A    between atoms: N_23  and  C_24
REMARK    8  A    between atoms: C_24  and  C_25
REMARK    9  A    between atoms: C_24  and  C_26
REMARK                            x       y       z     vdW  Elec       q    Type
REMARK                         _______ _______ _______ _____ _____    ______ ____
ROOT
ATOM      1  C   UNL     1       2.476   7.342  18.609  0.00  0.00    +0.000 A 
ATOM      2  C   UNL     1       2.204   6.139  19.271  0.00  0.00    +0.000 A 
ATOM      3  C   UNL     1       3.213   5.193  19.439  0.00  0.00    +0.000 A 
ATOM      4  C   UNL     1       4.470   5.408  18.868  0.00  0.00    +0.000 A 
ATOM      5  C   UNL     1       4.768   6.593  18.188  0.00  0.00    +0.000 A 
ATOM      6  C   UNL     1       3.780   7.584  18.142  0.00  0.00    +0.000 A 
ATOM      7  C   UNL     1       6.073   6.823  17.469  0.00  0.00    +0.000 C 
ATOM      8  N   UNL     1       6.373   5.790  16.470  0.00  0.00    +0.000 N 
ATOM      9  C   UNL     1       5.882   5.984  15.170  0.00  0.00    +0.000 C 
ATOM     10  O   UNL     1       5.214   6.980  14.875  0.00  0.00    +0.000 OA
ATOM     11  C   UNL     1       6.800   4.506  17.034  0.00  0.00    +0.000 C 
ATOM     12  C   UNL     1       5.683   3.780  17.780  0.00  0.00    +0.000 C 
ATOM     13  O   UNL     1       5.400   4.417  19.031  0.00  0.00    +0.000 OA
ENDROOT
BRANCH   9  14
ATOM     14  C   UNL     1       6.180   4.998  14.129  0.00  0.00    +0.000 A 
ATOM     15  C   UNL     1       7.317   4.827  13.305  0.00  0.00    +0.000 A 
ATOM     16  N   UNL     1       7.215   3.797  12.464  0.00  0.00    +0.000 NA
ATOM     17  N   UNL     1       5.959   3.354  12.655  0.00  0.00    +0.000 N 
ATOM     18  C   UNL     1       5.297   4.049  13.631  0.00  0.00    +0.000 A 
BRANCH  17  19
ATOM     19  C   UNL     1       5.437   2.269  11.829  0.00  0.00    +0.000 C 
ATOM     20  C   UNL     1       4.281   2.747  10.949  0.00  0.00    +0.000 C 
ATOM     21  C   UNL     1       6.536   1.628  10.981  0.00  0.00    +0.000 C 
ENDBRANCH  17  19
ENDBRANCH   9  14
BRANCH   1  22
ATOM     22  C   UNL     1       1.373   8.322  18.272  0.00  0.00    +0.000 C 
BRANCH  22  27
ATOM     23  C   UNL     1       0.246  11.674  19.666  0.00  0.00    +0.000 C 
ATOM     24  C   UNL     1      -0.147  11.227  21.080  0.00  0.00    +0.000 C 
ATOM     25  C   UNL     1       0.788  10.144  21.591  0.00  0.00    +0.000 C 
ATOM     26  C   UNL     1       0.917   8.997  20.592  0.00  0.00    +0.000 C 
ATOM     27  N   UNL     1       1.286   9.443  19.235  0.00  0.00    +0.000 NA
ATOM     28  C   UNL     1       0.328  10.447  18.739  0.00  0.00    +0.000 C 
BRANCH  23  29
ATOM     29  C   UNL     1       1.564  12.465  19.676  0.00  0.00    +0.000 C 
BRANCH  29  31
ATOM     30  C   UNL     1       0.519  14.464  19.017  0.00  0.00    +0.000 C 
ATOM     31  O   UNL     1       1.301  13.828  20.018  0.00  0.00    +0.000 OA
ENDBRANCH  29  31
ENDBRANCH  23  29
ENDBRANCH  22  27
ENDBRANCH   1  22
TORSDOF 6
ENDMDL
MODEL 8
REMARK VINA RESULT:      -6.8      3.418     10.015
REMARK  Name = 
REMARK  9 active torsions:
REMARK  status: ('A' for Active; 'I' for Inactive)
REMARK    1  A    between atoms: C_1  and  O_2
REMARK    2  A    between atoms: O_2  and  C_3
REMARK    3  A    between atoms: C_3  and  C_4
REMARK    4  A    between atoms: N_8  and  C_9
REMARK    5  A    between atoms: C_9  and  C_10
REMARK    6  A    between atoms: C_18  and  C_20
REMARK    7  A    between atoms: N_23  and  C_24
REMARK    8  A    between atoms: C_24  and  C_25
REMARK    9  A    between atoms: C_24  and  C_26
REMARK                            x       y       z     vdW  Elec       q    Type
REMARK                         _______ _______ _______ _____ _____    ______ ____
ROOT
ATOM      1  C   UNL     1       2.188   7.260  18.307  0.00  0.00    +0.000 A 
ATOM      2  C   UNL     1       1.472   6.084  18.556  0.00  0.00    +0.000 A 
ATOM      3  C   UNL     1       2.142   4.864  18.637  0.00  0.00    +0.000 A 
ATOM      4  C   UNL     1       3.514   4.806  18.382  0.00  0.00    +0.000 A 
ATOM      5  C   UNL     1       4.255   5.962  18.115  0.00  0.00    +0.000 A 
ATOM      6  C   UNL     1       3.585   7.191  18.165  0.00  0.00    +0.000 A 
ATOM      7  C   UNL     1       5.713   5.935  17.732  0.00  0.00    +0.000 C 
ATOM      8  N   UNL     1       5.987   5.095  16.560  0.00  0.00    +0.000 N 
ATOM      9  C   UNL     1       5.899   5.697  15.295  0.00  0.00    +0.000 C 
ATOM     10  O   UNL     1       5.593   6.887  15.169  0.00  0.00    +0.000 OA
ATOM     11  C   UNL     1       5.930   3.653  16.820  0.00  0.00    +0.000 C 
ATOM     12  C   UNL     1       4.518   3.157  17.126  0.00  0.00    +0.000 C 
ATOM     13  O   UNL     1       4.100   3.570  18.432  0.00  0.00    +0.000 OA
ENDROOT
BRANCH   9  14
ATOM     14  C   UNL     1       6.194   4.911  14.096  0.00  0.00    +0.000 A 
ATOM     15  C   UNL     1       7.373   4.796  13.324  0.00  0.00    +0.000 A 
ATOM     16  N   UNL     1       7.251   3.965  12.287  0.00  0.00    +0.000 NA
ATOM     17  N   UNL     1       5.951   3.617  12.310  0.00  0.00    +0.000 N 
ATOM     18  C   UNL     1       5.276   4.168  13.365  0.00  0.00    +0.000 A 
BRANCH  17  19
ATOM     19  C   UNL     1       5.407   2.771  11.252  0.00  0.00    +0.000 C 
ATOM     20  C   UNL     1       5.865   1.319  11.412  0.00  0.00    +0.000 C 
ATOM     21  C   UNL     1       3.881   2.855  11.192  0.00  0.00    +0.000 C 
ENDBRANCH  17  19
ENDBRANCH   9  14
BRANCH   1  22
ATOM     22  C   UNL     1       1.481   8.574  18.058  0.00  0.00    +0.000 C 
BRANCH  22  27
ATOM     23  C   UNL     1       0.086  11.264  20.354  0.00  0.00    +0.000 C 
ATOM     24  C   UNL     1      -0.061  10.434  21.635  0.00  0.00    +0.000 C 
ATOM     25  C   UNL     1       1.072   9.430  21.770  0.00  0.00    +0.000 C 
ATOM     26  C   UNL     1       1.232   8.592  20.504  0.00  0.00    +0.000 C 
ATOM     27  N   UNL     1       1.361   9.404  19.279  0.00  0.00    +0.000 NA
ATOM     28  C   UNL     1       0.219  10.324  19.141  0.00  0.00    +0.000 C 
BRANCH  23  29
ATOM     29  C   UNL     1       1.272  12.236  20.450  0.00  0.00    +0.000 C 
BRANCH  29  31
ATOM     30  C   UNL     1       2.246  13.183  18.531  0.00  0.00    +0.000 C 
ATOM     31  O   UNL     1       1.152  13.237  19.436  0.00  0.00    +0.000 OA
ENDBRANCH  29  31
ENDBRANCH  23  29
ENDBRANCH  22  27
ENDBRANCH   1  22
TORSDOF 6
ENDMDL
MODEL 9
REMARK VINA RESULT:      -6.8      1.451      2.311
REMARK  Name = 
REMARK  9 active torsions:
REMARK  status: ('A' for Active; 'I' for Inactive)
REMARK    1  A    between atoms: C_1  and  O_2
REMARK    2  A    between atoms: O_2  and  C_3
REMARK    3  A    between atoms: C_3  and  C_4
REMARK    4  A    between atoms: N_8  and  C_9
REMARK    5  A    between atoms: C_9  and  C_10
REMARK    6  A    between atoms: C_18  and  C_20
REMARK    7  A    between atoms: N_23  and  C_24
REMARK    8  A    between atoms: C_24  and  C_25
REMARK    9  A    between atoms: C_24  and  C_26
REMARK                            x       y       z     vdW  Elec       q    Type
REMARK                         _______ _______ _______ _____ _____    ______ ____
ROOT
ATOM      1  C   UNL     1       2.377   7.921  18.672  0.00  0.00    +0.000 A 
ATOM      2  C   UNL     1       2.194   7.424  19.967  0.00  0.00    +0.000 A 
ATOM      3  C   UNL     1       1.262   8.017  20.816  0.00  0.00    +0.000 A 
ATOM      4  C   UNL     1       0.575   9.162  20.404  0.00  0.00    +0.000 A 
ATOM      5  C   UNL     1       0.748   9.692  19.121  0.00  0.00    +0.000 A 
ATOM      6  C   UNL     1       1.593   9.005  18.241  0.00  0.00    +0.000 A 
ATOM      7  C   UNL     1       0.109  10.981  18.671  0.00  0.00    +0.000 C 
ATOM      8  N   UNL     1       0.432  12.120  19.539  0.00  0.00    +0.000 N 
ATOM      9  C   UNL     1       1.591  12.854  19.243  0.00  0.00    +0.000 C 
ATOM     10  O   UNL     1       2.320  12.550  18.294  0.00  0.00    +0.000 OA
ATOM     11  C   UNL     1      -0.264  12.115  20.830  0.00  0.00    +0.000 C 
ATOM     12  C   UNL     1       0.199  10.990  21.753  0.00  0.00    +0.000 C 
ATOM     13  O   UNL     1      -0.290   9.722  21.304  0.00  0.00    +0.000 OA
ENDROOT
BRANCH   9  14
ATOM     14  C   UNL     1       1.939  14.018  20.060  0.00  0.00    +0.000 A 
ATOM     15  C   UNL     1       1.390  15.320  20.109  0.00  0.00    +0.000 A 
ATOM     16  N   UNL     1       1.986  16.116  20.998  0.00  0.00    +0.000 NA
ATOM     17  N   UNL     1       3.007  15.369  21.458  0.00  0.00    +0.000 N 
ATOM     18  C   UNL     1       3.028  14.113  20.916  0.00  0.00    +0.000 A 
BRANCH  17  19
ATOM     19  C   UNL     1       3.961  15.946  22.402  0.00  0.00    +0.000 C 
ATOM     20  C   UNL     1       3.265  16.881  23.393  0.00  0.00    +0.000 C 
ATOM     21  C   UNL     1       4.749  14.862  23.139  0.00  0.00    +0.000 C 
ENDBRANCH  17  19
ENDBRANCH   9  14
BRANCH   1  22
ATOM     22  C   UNL     1       3.484   7.404  17.780  0.00  0.00    +0.000 C 
BRANCH  22  27
ATOM     23  C   UNL     1       4.509   3.755  18.075  0.00  0.00    +0.000 C 
ATOM     24  C   UNL     1       3.151   3.154  18.456  0.00  0.00    +0.000 C 
ATOM     25  C   UNL     1       2.017   3.865  17.739  0.00  0.00    +0.000 C 
ATOM     26  C   UNL     1       2.098   5.379  17.923  0.00  0.00    +0.000 C 
ATOM     27  N   UNL     1       3.413   5.941  17.562  0.00  0.00    +0.000 NA
ATOM     28  C   UNL     1       4.488   5.276  18.318  0.00  0.00    +0.000 C 
BRANCH  23  29
ATOM     29  C   UNL     1       4.882   3.420  16.622  0.00  0.00    +0.000 C 
BRANCH  29  31
ATOM     30  C   UNL     1       6.305   4.109  14.883  0.00  0.00    +0.000 C 
ATOM     31  O   UNL     1       6.123   4.047  16.291  0.00  0.00    +0.000 OA
ENDBRANCH  29  31
ENDBRANCH  23  29
ENDBRANCH  22  27
ENDBRANCH   1  22
TORSDOF 6
ENDMDL
