MODEL 1
REMARK VINA RESULT:      -6.7      0.000      0.000
REMARK  Name = 
REMARK  16 active torsions:
REMARK  status: ('A' for Active; 'I' for Inactive)
REMARK    1  A    between atoms: CB_1  and  CA_2
REMARK    2  A    between atoms: CA_2  and  N_3
REMARK    3  A    between atoms: CA_2  and  C_4
REMARK    4  A    between atoms: N_6  and  CA_7
REMARK    5  A    between atoms: CA_7  and  CB_8
REMARK    6  A    between atoms: CA_7  and  C_12
REMARK    7  A    between atoms: CB_8  and  CG_9
REMARK    8  A    between atoms: CG_9  and  OD2_11
REMARK    9  A    between atoms: N_14  and  C_15
REMARK   10  A    between atoms: C_15  and  C_16
REMARK   11  A    between atoms: C_15  and  C_23
REMARK   12  A    between atoms: C_17  and  C_18
REMARK   13  A    between atoms: C_18  and  P_19
REMARK   14  A    between atoms: P_19  and  O_21
REMARK   15  A    between atoms: P_19  and  O_22
REMARK   16  A    between atoms: C_23  and  O_25
REMARK                            x       y       z     vdW  Elec       q    Type
REMARK                         _______ _______ _______ _____ _____    ______ ____
ROOT
ATOM      1  C   ASP A   2       4.986   5.880  16.829  0.00  0.00    +0.000 C 
ATOM      2  O   ASP A   2       4.641   7.039  16.597  0.00  0.00    +0.000 OA
ATOM      3  N   UNK A   3       4.021   4.961  17.081  0.00  0.00    +0.000 N 
ATOM      4  H   UNK A   3       3.090   5.358  16.983  0.00  0.00    +0.000 HD
ENDROOT
BRANCH   1   5
ATOM      5  CA  ASP A   2       6.456   5.438  16.830  0.00  0.00    +0.000 C 
BRANCH   5   8
ATOM      6  C   ALA A   1       6.683   4.801  14.429  0.00  0.00    +0.000 C 
ATOM      7  O   ALA A   1       6.005   3.790  14.590  0.00  0.00    +0.000 OA
ATOM      8  N   ASP A   2       6.972   5.660  15.467  0.00  0.00    +0.000 N 
ATOM      9  H   ASP A   2       7.471   6.520  15.277  0.00  0.00    +0.000 HD
BRANCH   6  11
ATOM     10  CB  ALA A   1       7.377   4.021  12.091  0.00  0.00    +0.000 C 
ATOM     11  CA  ALA A   1       7.288   5.196  13.057  0.00  0.00    +0.000 C 
BRANCH  11  12
ATOM     12  N   ALA A   1       8.642   5.746  13.254  0.00  0.00    +0.000 NA
ATOM     13  H1  ALA A   1       9.318   4.994  13.098  0.00  0.00    +0.000 HD
ATOM     14  H2  ALA A   1       8.754   5.958  14.248  0.00  0.00    +0.000 HD
ENDBRANCH  11  12
ENDBRANCH   6  11
ENDBRANCH   5   8
BRANCH   5  15
ATOM     15  CB  ASP A   2       7.244   6.267  17.837  0.00  0.00    +0.000 C 
BRANCH  15  16
ATOM     16  CG  ASP A   2       7.783   5.392  18.944  0.00  0.00    +0.000 C 
ATOM     17  OD1 ASP A   2       7.590   5.602  20.126  0.00  0.00    +0.000 OA
BRANCH  16  18
ATOM     18  OD2 ASP A   2       8.473   4.320  18.492  0.00  0.00    +0.000 OA
ATOM     19  HD2 ASP A   2       8.533   4.253  17.522  0.00  0.00    +0.000 HD
ENDBRANCH  16  18
ENDBRANCH  15  16
ENDBRANCH   5  15
ENDBRANCH   1   5
BRANCH   3  20
ATOM     20  C   UNK A   3       4.130   3.570  17.521  0.00  0.00    +0.000 C 
BRANCH  20  21
ATOM     21  C   UNK A   3       4.822   3.556  18.861  0.00  0.00    +0.000 C 
ATOM     22  C   UNK A   3       4.270   3.916  20.029  0.00  0.00    +0.000 C 
BRANCH  22  23
ATOM     23  C   UNK A   3       2.858   4.371  20.112  0.00  0.00    +0.000 C 
BRANCH  23  24
ATOM     24  P   UNK A   3       1.866   3.423  21.322  0.00  0.00    +0.000 P 
ATOM     25  O   UNK A   3       1.115   2.706  20.198  0.00  0.00    +0.000 OA
BRANCH  24  26
ATOM     26  O   UNK A   3       3.138   2.438  21.636  0.00  0.00    +0.000 OA
ATOM     27  H   UNK A   3       3.085   2.102  22.552  0.00  0.00    +0.000 HD
ENDBRANCH  24  26
BRANCH  24  28
ATOM     28  O   UNK A   3       0.930   2.526  22.467  0.00  0.00    +0.000 OA
ATOM     29  H   UNK A   3       1.023   3.019  23.309  0.00  0.00    +0.000 HD
ENDBRANCH  24  28
ENDBRANCH  23  24
ENDBRANCH  22  23
ENDBRANCH  20  21
BRANCH  20  30
ATOM     30  C   UNK A   3       2.725   2.905  17.425  0.00  0.00    +0.000 C 
ATOM     31  O   UNK A   3       1.754   3.492  16.959  0.00  0.00    +0.000 OA
BRANCH  30  32
ATOM     32  O   UNK A   3       2.621   1.631  17.864  0.00  0.00    +0.000 OA
ATOM     33  H   UNK A   3       1.790   1.409  18.328  0.00  0.00    +0.000 HD
ENDBRANCH  30  32
ENDBRANCH  20  30
ENDBRANCH   3  20
TORSDOF 15
ENDMDL
MODEL 2
REMARK VINA RESULT:      -6.6      1.788      2.289
REMARK  Name = 
REMARK  16 active torsions:
REMARK  status: ('A' for Active; 'I' for Inactive)
REMARK    1  A    between atoms: CB_1  and  CA_2
REMARK    2  A    between atoms: CA_2  and  N_3
REMARK    3  A    between atoms: CA_2  and  C_4
REMARK    4  A    between atoms: N_6  and  CA_7
REMARK    5  A    between atoms: CA_7  and  CB_8
REMARK    6  A    between atoms: CA_7  and  C_12
REMARK    7  A    between atoms: CB_8  and  CG_9
REMARK    8  A    between atoms: CG_9  and  OD2_11
REMARK    9  A    between atoms: N_14  and  C_15
REMARK   10  A    between atoms: C_15  and  C_16
REMARK   11  A    between atoms: C_15  and  C_23
REMARK   12  A    between atoms: C_17  and  C_18
REMARK   13  A    between atoms: C_18  and  P_19
REMARK   14  A    between atoms: P_19  and  O_21
REMARK   15  A    between atoms: P_19  and  O_22
REMARK   16  A    between atoms: C_23  and  O_25
REMARK                            x       y       z     vdW  Elec       q    Type
REMARK                         _______ _______ _______ _____ _____    ______ ____
ROOT
ATOM      1  C   ASP A   2       3.992   6.746  17.783  0.00  0.00    +0.000 C 
ATOM      2  O   ASP A   2       4.031   7.948  17.522  0.00  0.00    +0.000 OA
ATOM      3  N   UNK A   3       2.796   6.199  18.117  0.00  0.00    +0.000 N 
ATOM      4  H   UNK A   3       2.042   6.877  18.048  0.00  0.00    +0.000 HD
ENDROOT
BRANCH   1   5
ATOM      5  CA  ASP A   2       5.235   5.846  17.732  0.00  0.00    +0.000 C 
BRANCH   5   8
ATOM      6  C   ALA A   1       5.681   4.688  15.568  0.00  0.00    +0.000 C 
ATOM      7  O   ALA A   1       5.306   3.610  16.020  0.00  0.00    +0.000 OA
ATOM      8  N   ASP A   2       5.699   5.834  16.333  0.00  0.00    +0.000 N 
ATOM      9  H   ASP A   2       5.944   6.716  15.901  0.00  0.00    +0.000 HD
BRANCH   6  11
ATOM     10  CB  ALA A   1       6.094   3.570  13.302  0.00  0.00    +0.000 C 
ATOM     11  CA  ALA A   1       6.183   4.858  14.111  0.00  0.00    +0.000 C 
BRANCH  11  12
ATOM     12  N   ALA A   1       7.586   5.311  14.122  0.00  0.00    +0.000 NA
ATOM     13  H1  ALA A   1       8.187   4.490  14.004  0.00  0.00    +0.000 HD
ATOM     14  H2  ALA A   1       7.808   5.628  15.068  0.00  0.00    +0.000 HD
ENDBRANCH  11  12
ENDBRANCH   6  11
ENDBRANCH   5   8
BRANCH   5  15
ATOM     15  CB  ASP A   2       6.317   6.409  18.645  0.00  0.00    +0.000 C 
BRANCH  15  16
ATOM     16  CG  ASP A   2       7.299   5.330  19.037  0.00  0.00    +0.000 C 
ATOM     17  OD1 ASP A   2       7.663   4.444  18.288  0.00  0.00    +0.000 OA
BRANCH  16  18
ATOM     18  OD2 ASP A   2       7.770   5.466  20.298  0.00  0.00    +0.000 OA
ATOM     19  HD2 ASP A   2       8.462   4.826  20.545  0.00  0.00    +0.000 HD
ENDBRANCH  16  18
ENDBRANCH  15  16
ENDBRANCH   5  15
ENDBRANCH   1   5
BRANCH   3  20
ATOM     20  C   UNK A   3       2.470   4.859  18.606  0.00  0.00    +0.000 C 
BRANCH  20  21
ATOM     21  C   UNK A   3       1.753   5.004  19.924  0.00  0.00    +0.000 C 
ATOM     22  C   UNK A   3       1.575   4.030  20.829  0.00  0.00    +0.000 C 
BRANCH  22  23
ATOM     23  C   UNK A   3       2.103   2.659  20.604  0.00  0.00    +0.000 C 
BRANCH  23  24
ATOM     24  P   UNK A   3       3.855   2.641  20.074  0.00  0.00    +0.000 P 
ATOM     25  O   UNK A   3       4.266   1.884  21.339  0.00  0.00    +0.000 OA
BRANCH  24  26
ATOM     26  O   UNK A   3       3.544   1.453  18.988  0.00  0.00    +0.000 OA
ATOM     27  H   UNK A   3       4.334   1.287  18.437  0.00  0.00    +0.000 HD
ENDBRANCH  24  26
BRANCH  24  28
ATOM     28  O   UNK A   3       5.510   2.624  19.572  0.00  0.00    +0.000 OA
ATOM     29  H   UNK A   3       5.997   2.231  20.326  0.00  0.00    +0.000 HD
ENDBRANCH  24  28
ENDBRANCH  23  24
ENDBRANCH  22  23
ENDBRANCH  20  21
BRANCH  20  30
ATOM     30  C   UNK A   3       1.748   4.077  17.470  0.00  0.00    +0.000 C 
ATOM     31  O   UNK A   3       0.600   4.336  17.125  0.00  0.00    +0.000 OA
BRANCH  30  32
ATOM     32  O   UNK A   3       2.454   3.098  16.859  0.00  0.00    +0.000 OA
ATOM     33  H   UNK A   3       3.165   3.401  16.262  0.00  0.00    +0.000 HD
ENDBRANCH  30  32
ENDBRANCH  20  30
ENDBRANCH   3  20
TORSDOF 15
ENDMDL
MODEL 3
REMARK VINA RESULT:      -6.6      3.654      5.082
REMARK  Name = 
REMARK  16 active torsions:
REMARK  status: ('A' for Active; 'I' for Inactive)
REMARK    1  A    between atoms: CB_1  and  CA_2
REMARK    2  A    between atoms: CA_2  and  N_3
REMARK    3  A    between atoms: CA_2  and  C_4
REMARK    4  A    between atoms: N_6  and  CA_7
REMARK    5  A    between atoms: CA_7  and  CB_8
REMARK    6  A    between atoms: CA_7  and  C_12
REMARK    7  A    between atoms: CB_8  and  CG_9
REMARK    8  A    between atoms: CG_9  and  OD2_11
REMARK    9  A    between atoms: N_14  and  C_15
REMARK   10  A    between atoms: C_15  and  C_16
REMARK   11  A    between atoms: C_15  and  C_23
REMARK   12  A    between atoms: C_17  and  C_18
REMARK   13  A    between atoms: C_18  and  P_19
REMARK   14  A    between atoms: P_19  and  O_21
REMARK   15  A    between atoms: P_19  and  O_22
REMARK   16  A    between atoms: C_23  and  O_25
REMARK                            x       y       z     vdW  Elec       q    Type
REMARK                         _______ _______ _______ _____ _____    ______ ____
ROOT
ATOM      1  C   ASP A   2       4.877   6.442  17.011  0.00  0.00    +0.000 C 
ATOM      2  O   ASP A   2       5.456   6.663  15.947  0.00  0.00    +0.000 OA
ATOM      3  N   UNK A   3       3.754   7.151  17.289  0.00  0.00    +0.000 N 
ATOM      4  H   UNK A   3       3.494   7.760  16.518  0.00  0.00    +0.000 HD
ENDROOT
BRANCH   1   5
ATOM      5  CA  ASP A   2       5.367   5.394  18.019  0.00  0.00    +0.000 C 
BRANCH   5   8
ATOM      6  C   ALA A   1       4.466   3.151  18.633  0.00  0.00    +0.000 C 
ATOM      7  O   ALA A   1       4.852   3.267  19.793  0.00  0.00    +0.000 OA
ATOM      8  N   ASP A   2       4.686   4.129  17.689  0.00  0.00    +0.000 N 
ATOM      9  H   ASP A   2       4.287   4.027  16.764  0.00  0.00    +0.000 HD
BRANCH   6  11
ATOM     10  CB  ALA A   1       2.237   1.900  18.485  0.00  0.00    +0.000 C 
ATOM     11  CA  ALA A   1       3.716   1.894  18.120  0.00  0.00    +0.000 C 
BRANCH  11  12
ATOM     12  N   ALA A   1       4.335   0.683  18.691  0.00  0.00    +0.000 NA
ATOM     13  H1  ALA A   1       4.816   0.947  19.555  0.00  0.00    +0.000 HD
ATOM     14  H2  ALA A   1       5.101   0.400  18.075  0.00  0.00    +0.000 HD
ENDBRANCH  11  12
ENDBRANCH   6  11
ENDBRANCH   5   8
BRANCH   5  15
ATOM     15  CB  ASP A   2       6.877   5.230  17.901  0.00  0.00    +0.000 C 
BRANCH  15  16
ATOM     16  CG  ASP A   2       7.572   5.784  19.122  0.00  0.00    +0.000 C 
ATOM     17  OD1 ASP A   2       7.534   5.257  20.218  0.00  0.00    +0.000 OA
BRANCH  16  18
ATOM     18  OD2 ASP A   2       8.278   6.911  18.874  0.00  0.00    +0.000 OA
ATOM     19  HD2 ASP A   2       9.198   6.761  18.590  0.00  0.00    +0.000 HD
ENDBRANCH  16  18
ENDBRANCH  15  16
ENDBRANCH   5  15
ENDBRANCH   1   5
BRANCH   3  20
ATOM     20  C   UNK A   3       2.949   7.209  18.510  0.00  0.00    +0.000 C 
BRANCH  20  21
ATOM     21  C   UNK A   3       2.065   8.428  18.429  0.00  0.00    +0.000 C 
ATOM     22  C   UNK A   3       1.382   8.967  19.450  0.00  0.00    +0.000 C 
BRANCH  22  23
ATOM     23  C   UNK A   3       1.447   8.388  20.818  0.00  0.00    +0.000 C 
BRANCH  23  24
ATOM     24  P   UNK A   3       0.628   9.430  22.079  0.00  0.00    +0.000 P 
ATOM     25  O   UNK A   3       1.902   9.467  22.926  0.00  0.00    +0.000 OA
BRANCH  24  26
ATOM     26  O   UNK A   3       0.758  10.749  21.115  0.00  0.00    +0.000 OA
ATOM     27  H   UNK A   3      -0.129  11.039  20.822  0.00  0.00    +0.000 HD
ENDBRANCH  24  26
BRANCH  24  28
ATOM     28  O   UNK A   3      -0.147  10.416  23.271  0.00  0.00    +0.000 OA
ATOM     29  H   UNK A   3      -0.981   9.948  23.480  0.00  0.00    +0.000 HD
ENDBRANCH  24  28
ENDBRANCH  23  24
ENDBRANCH  22  23
ENDBRANCH  20  21
BRANCH  20  30
ATOM     30  C   UNK A   3       2.261   5.828  18.719  0.00  0.00    +0.000 C 
ATOM     31  O   UNK A   3       2.134   5.322  19.829  0.00  0.00    +0.000 OA
BRANCH  30  32
ATOM     32  O   UNK A   3       1.786   5.209  17.614  0.00  0.00    +0.000 OA
ATOM     33  H   UNK A   3       2.271   4.407  17.338  0.00  0.00    +0.000 HD
ENDBRANCH  30  32
ENDBRANCH  20  30
ENDBRANCH   3  20
TORSDOF 15
ENDMDL
MODEL 4
REMARK VINA RESULT:      -6.5      3.027      5.117
REMARK  Name = 
REMARK  16 active torsions:
REMARK  status: ('A' for Active; 'I' for Inactive)
REMARK    1  A    between atoms: CB_1  and  CA_2
REMARK    2  A    between atoms: CA_2  and  N_3
REMARK    3  A    between atoms: CA_2  and  C_4
REMARK    4  A    between atoms: N_6  and  CA_7
REMARK    5  A    between atoms: CA_7  and  CB_8
REMARK    6  A    between atoms: CA_7  and  C_12
REMARK    7  A    between atoms: CB_8  and  CG_9
REMARK    8  A    between atoms: CG_9  and  OD2_11
REMARK    9  A    between atoms: N_14  and  C_15
REMARK   10  A    between atoms: C_15  and  C_16
REMARK   11  A    between atoms: C_15  and  C_23
REMARK   12  A    between atoms: C_17  and  C_18
REMARK   13  A    between atoms: C_18  and  P_19
REMARK   14  A    between atoms: P_19  and  O_21
REMARK   15  A    between atoms: P_19  and  O_22
REMARK   16  A    between atoms: C_23  and  O_25
REMARK                            x       y       z     vdW  Elec       q    Type
REMARK                         _______ _______ _______ _____ _____    ______ ____
ROOT
ATOM      1  C   ASP A   2       4.890   4.852  19.112  0.00  0.00    +0.000 C 
ATOM      2  O   ASP A   2       6.076   4.702  19.410  0.00  0.00    +0.000 OA
ATOM      3  N   UNK A   3       4.143   5.701  19.863  0.00  0.00    +0.000 N 
ATOM      4  H   UNK A   3       4.703   6.167  20.571  0.00  0.00    +0.000 HD
ENDROOT
BRANCH   1   5
ATOM      5  CA  ASP A   2       4.236   4.132  17.926  0.00  0.00    +0.000 C 
BRANCH   5   8
ATOM      6  C   ALA A   1       5.423   5.200  16.009  0.00  0.00    +0.000 C 
ATOM      7  O   ALA A   1       4.762   6.229  16.120  0.00  0.00    +0.000 OA
ATOM      8  N   ASP A   2       5.227   4.114  16.835  0.00  0.00    +0.000 N 
ATOM      9  H   ASP A   2       5.843   3.314  16.759  0.00  0.00    +0.000 HD
BRANCH   6  11
ATOM     10  CB  ALA A   1       6.192   3.913  13.934  0.00  0.00    +0.000 C 
ATOM     11  CA  ALA A   1       6.520   5.019  14.929  0.00  0.00    +0.000 C 
BRANCH  11  12
ATOM     12  N   ALA A   1       7.805   4.700  15.579  0.00  0.00    +0.000 NA
ATOM     13  H1  ALA A   1       7.614   4.099  16.385  0.00  0.00    +0.000 HD
ATOM     14  H2  ALA A   1       8.164   5.557  16.007  0.00  0.00    +0.000 HD
ENDBRANCH  11  12
ENDBRANCH   6  11
ENDBRANCH   5   8
BRANCH   5  15
ATOM     15  CB  ASP A   2       3.863   2.709  18.327  0.00  0.00    +0.000 C 
BRANCH  15  16
ATOM     16  CG  ASP A   2       2.446   2.393  17.914  0.00  0.00    +0.000 C 
ATOM     17  OD1 ASP A   2       1.907   2.865  16.931  0.00  0.00    +0.000 OA
BRANCH  16  18
ATOM     18  OD2 ASP A   2       1.838   1.496  18.724  0.00  0.00    +0.000 OA
ATOM     19  HD2 ASP A   2       1.345   0.796  18.261  0.00  0.00    +0.000 HD
ENDBRANCH  16  18
ENDBRANCH  15  16
ENDBRANCH   5  15
ENDBRANCH   1   5
BRANCH   3  20
ATOM     20  C   UNK A   3       2.705   5.968  19.840  0.00  0.00    +0.000 C 
BRANCH  20  21
ATOM     21  C   UNK A   3       2.304   6.250  18.414  0.00  0.00    +0.000 C 
ATOM     22  C   UNK A   3       2.066   7.464  17.894  0.00  0.00    +0.000 C 
BRANCH  22  23
ATOM     23  C   UNK A   3       2.191   8.696  18.716  0.00  0.00    +0.000 C 
BRANCH  23  24
ATOM     24  P   UNK A   3       0.898   9.938  18.350  0.00  0.00    +0.000 P 
ATOM     25  O   UNK A   3       0.856  10.378  19.814  0.00  0.00    +0.000 OA
BRANCH  24  26
ATOM     26  O   UNK A   3       2.007  10.935  17.670  0.00  0.00    +0.000 OA
ATOM     27  H   UNK A   3       2.042  10.791  16.704  0.00  0.00    +0.000 HD
ENDBRANCH  24  26
BRANCH  24  28
ATOM     28  O   UNK A   3      -0.324  11.113  18.002  0.00  0.00    +0.000 OA
ATOM     29  H   UNK A   3      -1.153  10.722  18.348  0.00  0.00    +0.000 HD
ENDBRANCH  24  28
ENDBRANCH  23  24
ENDBRANCH  22  23
ENDBRANCH  20  21
BRANCH  20  30
ATOM     30  C   UNK A   3       1.972   4.813  20.584  0.00  0.00    +0.000 C 
ATOM     31  O   UNK A   3       0.972   4.271  20.125  0.00  0.00    +0.000 OA
BRANCH  30  32
ATOM     32  O   UNK A   3       2.501   4.414  21.762  0.00  0.00    +0.000 OA
ATOM     33  H   UNK A   3       2.055   3.657  22.191  0.00  0.00    +0.000 HD
ENDBRANCH  30  32
ENDBRANCH  20  30
ENDBRANCH   3  20
TORSDOF 15
ENDMDL
MODEL 5
REMARK VINA RESULT:      -6.5      3.244      6.699
REMARK  Name = 
REMARK  16 active torsions:
REMARK  status: ('A' for Active; 'I' for Inactive)
REMARK    1  A    between atoms: CB_1  and  CA_2
REMARK    2  A    between atoms: CA_2  and  N_3
REMARK    3  A    between atoms: CA_2  and  C_4
REMARK    4  A    between atoms: N_6  and  CA_7
REMARK    5  A    between atoms: CA_7  and  CB_8
REMARK    6  A    between atoms: CA_7  and  C_12
REMARK    7  A    between atoms: CB_8  and  CG_9
REMARK    8  A    between atoms: CG_9  and  OD2_11
REMARK    9  A    between atoms: N_14  and  C_15
REMARK   10  A    between atoms: C_15  and  C_16
REMARK   11  A    between atoms: C_15  and  C_23
REMARK   12  A    between atoms: C_17  and  C_18
REMARK   13  A    between atoms: C_18  and  P_19
REMARK   14  A    between atoms: P_19  and  O_21
REMARK   15  A    between atoms: P_19  and  O_22
REMARK   16  A    between atoms: C_23  and  O_25
REMARK                            x       y       z     vdW  Elec       q    Type
REMARK                         _______ _______ _______ _____ _____    ______ ____
ROOT
ATOM      1  C   ASP A   2       2.154   4.383  18.425  0.00  0.00    +0.000 C 
ATOM      2  O   ASP A   2       1.187   4.681  17.723  0.00  0.00    +0.000 OA
ATOM      3  N   UNK A   3       3.332   4.108  17.811  0.00  0.00    +0.000 N 
ATOM      4  H   UNK A   3       3.273   4.247  16.806  0.00  0.00    +0.000 HD
ENDROOT
BRANCH   1   5
ATOM      5  CA  ASP A   2       2.080   4.325  19.957  0.00  0.00    +0.000 C 
BRANCH   5   8
ATOM      6  C   ALA A   1       2.006   6.812  20.136  0.00  0.00    +0.000 C 
ATOM      7  O   ALA A   1       3.072   6.928  19.537  0.00  0.00    +0.000 OA
ATOM      8  N   ASP A   2       1.449   5.581  20.404  0.00  0.00    +0.000 N 
ATOM      9  H   ASP A   2       0.535   5.531  20.834  0.00  0.00    +0.000 HD
BRANCH   6  11
ATOM     10  CB  ALA A   1       1.198   9.198  19.682  0.00  0.00    +0.000 C 
ATOM     11  CA  ALA A   1       1.201   8.030  20.659  0.00  0.00    +0.000 C 
BRANCH  11  12
ATOM     12  N   ALA A   1       1.774   8.487  21.938  0.00  0.00    +0.000 NA
ATOM     13  H1  ALA A   1       2.785   8.331  21.909  0.00  0.00    +0.000 HD
ATOM     14  H2  ALA A   1       1.460   7.848  22.671  0.00  0.00    +0.000 HD
ENDBRANCH  11  12
ENDBRANCH   6  11
ENDBRANCH   5   8
BRANCH   5  15
ATOM     15  CB  ASP A   2       1.241   3.128  20.388  0.00  0.00    +0.000 C 
BRANCH  15  16
ATOM     16  CG  ASP A   2       1.663   2.645  21.756  0.00  0.00    +0.000 C 
ATOM     17  OD1 ASP A   2       0.881   2.337  22.634  0.00  0.00    +0.000 OA
BRANCH  16  18
ATOM     18  OD2 ASP A   2       3.005   2.550  21.900  0.00  0.00    +0.000 OA
ATOM     19  HD2 ASP A   2       3.522   2.942  21.174  0.00  0.00    +0.000 HD
ENDBRANCH  16  18
ENDBRANCH  15  16
ENDBRANCH   5  15
ENDBRANCH   1   5
BRANCH   3  20
ATOM     20  C   UNK A   3       4.589   3.597  18.359  0.00  0.00    +0.000 C 
BRANCH  20  21
ATOM     21  C   UNK A   3       5.134   4.626  19.316  0.00  0.00    +0.000 C 
ATOM     22  C   UNK A   3       6.320   5.244  19.207  0.00  0.00    +0.000 C 
BRANCH  22  23
ATOM     23  C   UNK A   3       7.240   4.961  18.074  0.00  0.00    +0.000 C 
BRANCH  23  24
ATOM     24  P   UNK A   3       6.611   5.575  16.469  0.00  0.00    +0.000 P 
ATOM     25  O   UNK A   3       7.545   6.786  16.526  0.00  0.00    +0.000 OA
BRANCH  24  26
ATOM     26  O   UNK A   3       7.483   4.445  15.662  0.00  0.00    +0.000 OA
ATOM     27  H   UNK A   3       7.775   4.798  14.800  0.00  0.00    +0.000 HD
ENDBRANCH  24  26
BRANCH  24  28
ATOM     28  O   UNK A   3       6.018   6.154  14.950  0.00  0.00    +0.000 OA
ATOM     29  H   UNK A   3       5.059   6.296  15.093  0.00  0.00    +0.000 HD
ENDBRANCH  24  28
ENDBRANCH  23  24
ENDBRANCH  22  23
ENDBRANCH  20  21
BRANCH  20  30
ATOM     30  C   UNK A   3       4.346   2.158  18.903  0.00  0.00    +0.000 C 
ATOM     31  O   UNK A   3       3.593   1.367  18.346  0.00  0.00    +0.000 OA
BRANCH  30  32
ATOM     32  O   UNK A   3       5.023   1.806  20.019  0.00  0.00    +0.000 OA
ATOM     33  H   UNK A   3       4.472   1.559  20.787  0.00  0.00    +0.000 HD
ENDBRANCH  30  32
ENDBRANCH  20  30
ENDBRANCH   3  20
TORSDOF 15
ENDMDL
MODEL 6
REMARK VINA RESULT:      -6.5      3.683      5.174
REMARK  Name = 
REMARK  16 active torsions:
REMARK  status: ('A' for Active; 'I' for Inactive)
REMARK    1  A    between atoms: CB_1  and  CA_2
REMARK    2  A    between atoms: CA_2  and  N_3
REMARK    3  A    between atoms: CA_2  and  C_4
REMARK    4  A    between atoms: N_6  and  CA_7
REMARK    5  A    between atoms: CA_7  and  CB_8
REMARK    6  A    between atoms: CA_7  and  C_12
REMARK    7  A    between atoms: CB_8  and  CG_9
REMARK    8  A    between atoms: CG_9  and  OD2_11
REMARK    9  A    between atoms: N_14  and  C_15
REMARK   10  A    between atoms: C_15  and  C_16
REMARK   11  A    between atoms: C_15  and  C_23
REMARK   12  A    between atoms: C_17  and  C_18
REMARK   13  A    between atoms: C_18  and  P_19
REMARK   14  A    between atoms: P_19  and  O_21
REMARK   15  A    between atoms: P_19  and  O_22
REMARK   16  A    between atoms: C_23  and  O_25
REMARK                            x       y       z     vdW  Elec       q    Type
REMARK                         _______ _______ _______ _____ _____    ______ ____
ROOT
ATOM      1  C   ASP A   2       4.758   6.689  16.734  0.00  0.00    +0.000 C 
ATOM      2  O   ASP A   2       5.149   6.813  15.573  0.00  0.00    +0.000 OA
ATOM      3  N   UNK A   3       3.533   7.177  17.055  0.00  0.00    +0.000 N 
ATOM      4  H   UNK A   3       3.053   7.548  16.240  0.00  0.00    +0.000 HD
ENDROOT
BRANCH   1   5
ATOM      5  CA  ASP A   2       5.592   5.995  17.820  0.00  0.00    +0.000 C 
BRANCH   5   8
ATOM      6  C   ALA A   1       5.016   3.897  19.040  0.00  0.00    +0.000 C 
ATOM      7  O   ALA A   1       5.264   4.413  20.127  0.00  0.00    +0.000 OA
ATOM      8  N   ASP A   2       5.163   4.585  17.855  0.00  0.00    +0.000 N 
ATOM      9  H   ASP A   2       4.879   4.148  16.988  0.00  0.00    +0.000 HD
BRANCH   6  11
ATOM     10  CB  ALA A   1       3.020   2.297  18.955  0.00  0.00    +0.000 C 
ATOM     11  CA  ALA A   1       4.536   2.430  18.897  0.00  0.00    +0.000 C 
BRANCH  11  12
ATOM     12  N   ALA A   1       5.121   1.612  19.976  0.00  0.00    +0.000 NA
ATOM     13  H1  ALA A   1       5.402   0.712  19.578  0.00  0.00    +0.000 HD
ATOM     14  H2  ALA A   1       4.369   1.357  20.621  0.00  0.00    +0.000 HD
ENDBRANCH  11  12
ENDBRANCH   6  11
ENDBRANCH   5   8
BRANCH   5  15
ATOM     15  CB  ASP A   2       7.073   6.090  17.472  0.00  0.00    +0.000 C 
BRANCH  15  16
ATOM     16  CG  ASP A   2       7.566   4.794  16.874  0.00  0.00    +0.000 C 
ATOM     17  OD1 ASP A   2       7.408   4.484  15.709  0.00  0.00    +0.000 OA
BRANCH  16  18
ATOM     18  OD2 ASP A   2       8.239   4.019  17.754  0.00  0.00    +0.000 OA
ATOM     19  HD2 ASP A   2       7.686   3.609  18.444  0.00  0.00    +0.000 HD
ENDBRANCH  16  18
ENDBRANCH  15  16
ENDBRANCH   5  15
ENDBRANCH   1   5
BRANCH   3  20
ATOM     20  C   UNK A   3       2.874   7.301  18.355  0.00  0.00    +0.000 C 
BRANCH  20  21
ATOM     21  C   UNK A   3       1.978   8.513  18.311  0.00  0.00    +0.000 C 
ATOM     22  C   UNK A   3       1.343   9.054  19.361  0.00  0.00    +0.000 C 
BRANCH  22  23
ATOM     23  C   UNK A   3       1.482   8.486  20.728  0.00  0.00    +0.000 C 
BRANCH  23  24
ATOM     24  P   UNK A   3       0.648   9.488  22.011  0.00  0.00    +0.000 P 
ATOM     25  O   UNK A   3       1.905   9.481  22.884  0.00  0.00    +0.000 OA
BRANCH  24  26
ATOM     26  O   UNK A   3       0.809  10.842  21.100  0.00  0.00    +0.000 OA
ATOM     27  H   UNK A   3       1.755  11.044  20.965  0.00  0.00    +0.000 HD
ENDBRANCH  24  26
BRANCH  24  28
ATOM     28  O   UNK A   3      -0.141  10.437  23.224  0.00  0.00    +0.000 OA
ATOM     29  H   UNK A   3       0.445  10.382  24.006  0.00  0.00    +0.000 HD
ENDBRANCH  24  28
ENDBRANCH  23  24
ENDBRANCH  22  23
ENDBRANCH  20  21
BRANCH  20  30
ATOM     30  C   UNK A   3       2.226   5.933  18.718  0.00  0.00    +0.000 C 
ATOM     31  O   UNK A   3       2.053   5.578  19.879  0.00  0.00    +0.000 OA
BRANCH  30  32
ATOM     32  O   UNK A   3       1.839   5.149  17.686  0.00  0.00    +0.000 OA
ATOM     33  H   UNK A   3       2.336   4.315  17.579  0.00  0.00    +0.000 HD
ENDBRANCH  30  32
ENDBRANCH  20  30
ENDBRANCH   3  20
TORSDOF 15
ENDMDL
MODEL 7
REMARK VINA RESULT:      -6.4      1.242      1.591
REMARK  Name = 
REMARK  16 active torsions:
REMARK  status: ('A' for Active; 'I' for Inactive)
REMARK    1  A    between atoms: CB_1  and  CA_2
REMARK    2  A    between atoms: CA_2  and  N_3
REMARK    3  A    between atoms: CA_2  and  C_4
REMARK    4  A    between atoms: N_6  and  CA_7
REMARK    5  A    between atoms: CA_7  and  CB_8
REMARK    6  A    between atoms: CA_7  and  C_12
REMARK    7  A    between atoms: CB_8  and  CG_9
REMARK    8  A    between atoms: CG_9  and  OD2_11
REMARK    9  A    between atoms: N_14  and  C_15
REMARK   10  A    between atoms: C_15  and  C_16
REMARK   11  A    between atoms: C_15  and  C_23
REMARK   12  A    between atoms: C_17  and  C_18
REMARK   13  A    between atoms: C_18  and  P_19
REMARK   14  A    between atoms: P_19  and  O_21
REMARK   15  A    between atoms: P_19  and  O_22
REMARK   16  A    between atoms: C_23  and  O_25
REMARK                            x       y       z     vdW  Elec       q    Type
REMARK                         _______ _______ _______ _____ _____    ______ ____
ROOT
ATOM      1  C   ASP A   2       5.139   6.373  16.151  0.00  0.00    +0.000 C 
ATOM      2  O   ASP A   2       5.222   7.289  15.332  0.00  0.00    +0.000 OA
ATOM      3  N   UNK A   3       3.938   6.148  16.742  0.00  0.00    +0.000 N 
ATOM      4  H   UNK A   3       3.216   6.758  16.369  0.00  0.00    +0.000 HD
ENDROOT
BRANCH   1   5
ATOM      5  CA  ASP A   2       6.329   5.476  16.516  0.00  0.00    +0.000 C 
BRANCH   5   8
ATOM      6  C   ALA A   1       6.642   4.431  14.272  0.00  0.00    +0.000 C 
ATOM      7  O   ALA A   1       5.587   3.810  14.368  0.00  0.00    +0.000 OA
ATOM      8  N   ASP A   2       7.097   5.257  15.277  0.00  0.00    +0.000 N 
ATOM      9  H   ASP A   2       7.933   5.808  15.127  0.00  0.00    +0.000 HD
BRANCH   6  11
ATOM     10  CB  ALA A   1       8.094   5.688  12.580  0.00  0.00    +0.000 C 
ATOM     11  CA  ALA A   1       7.563   4.333  13.029  0.00  0.00    +0.000 C 
BRANCH  11  12
ATOM     12  N   ALA A   1       6.819   3.725  11.910  0.00  0.00    +0.000 NA
ATOM     13  H1  ALA A   1       6.402   2.852  12.241  0.00  0.00    +0.000 HD
ATOM     14  H2  ALA A   1       7.498   3.411  11.213  0.00  0.00    +0.000 HD
ENDBRANCH  11  12
ENDBRANCH   6  11
ENDBRANCH   5   8
BRANCH   5  15
ATOM     15  CB  ASP A   2       7.195   6.167  17.562  0.00  0.00    +0.000 C 
BRANCH  15  16
ATOM     16  CG  ASP A   2       7.961   5.152  18.377  0.00  0.00    +0.000 C 
ATOM     17  OD1 ASP A   2       8.414   4.121  17.918  0.00  0.00    +0.000 OA
BRANCH  16  18
ATOM     18  OD2 ASP A   2       8.131   5.518  19.668  0.00  0.00    +0.000 OA
ATOM     19  HD2 ASP A   2       7.699   4.934  20.317  0.00  0.00    +0.000 HD
ENDBRANCH  16  18
ENDBRANCH  15  16
ENDBRANCH   5  15
ENDBRANCH   1   5
BRANCH   3  20
ATOM     20  C   UNK A   3       3.574   5.245  17.834  0.00  0.00    +0.000 C 
BRANCH  20  21
ATOM     21  C   UNK A   3       2.403   5.847  18.568  0.00  0.00    +0.000 C 
ATOM     22  C   UNK A   3       2.134   5.690  19.873  0.00  0.00    +0.000 C 
BRANCH  22  23
ATOM     23  C   UNK A   3       3.014   4.877  20.753  0.00  0.00    +0.000 C 
BRANCH  23  24
ATOM     24  P   UNK A   3       2.157   3.443  21.500  0.00  0.00    +0.000 P 
ATOM     25  O   UNK A   3       0.888   3.740  20.698  0.00  0.00    +0.000 OA
BRANCH  24  26
ATOM     26  O   UNK A   3       2.994   2.408  20.543  0.00  0.00    +0.000 OA
ATOM     27  H   UNK A   3       3.926   2.693  20.475  0.00  0.00    +0.000 HD
ENDBRANCH  24  26
BRANCH  24  28
ATOM     28  O   UNK A   3       1.347   2.087  22.205  0.00  0.00    +0.000 OA
ATOM     29  H   UNK A   3       0.428   2.391  22.351  0.00  0.00    +0.000 HD
ENDBRANCH  24  28
ENDBRANCH  23  24
ENDBRANCH  22  23
ENDBRANCH  20  21
BRANCH  20  30
ATOM     30  C   UNK A   3       3.407   3.808  17.258  0.00  0.00    +0.000 C 
ATOM     31  O   UNK A   3       2.335   3.395  16.830  0.00  0.00    +0.000 OA
BRANCH  30  32
ATOM     32  O   UNK A   3       4.513   3.029  17.231  0.00  0.00    +0.000 OA
ATOM     33  H   UNK A   3       4.371   2.086  17.441  0.00  0.00    +0.000 HD
ENDBRANCH  30  32
ENDBRANCH  20  30
ENDBRANCH   3  20
TORSDOF 15
ENDMDL
MODEL 8
REMARK VINA RESULT:      -6.4      1.906      2.613
REMARK  Name = 
REMARK  16 active torsions:
REMARK  status: ('A' for Active; 'I' for Inactive)
REMARK    1  A    between atoms: CB_1  and  CA_2
REMARK    2  A    between atoms: CA_2  and  N_3
REMARK    3  A    between atoms: CA_2  and  C_4
REMARK    4  A    between atoms: N_6  and  CA_7
REMARK    5  A    between atoms: CA_7  and  CB_8
REMARK    6  A    between atoms: CA_7  and  C_12
REMARK    7  A    between atoms: CB_8  and  CG_9
REMARK    8  A    between atoms: CG_9  and  OD2_11
REMARK    9  A    between atoms: N_14  and  C_15
REMARK   10  A    between atoms: C_15  and  C_16
REMARK   11  A    between atoms: C_15  and  C_23
REMARK   12  A    between atoms: C_17  and  C_18
REMARK   13  A    between atoms: C_18  and  P_19
REMARK   14  A    between atoms: P_19  and  O_21
REMARK   15  A    between atoms: P_19  and  O_22
REMARK   16  A    between atoms: C_23  and  O_25
REMARK                            x       y       z     vdW  Elec       q    Type
REMARK                         _______ _______ _______ _____ _____    ______ ____
ROOT
ATOM      1  C   ASP A   2       3.582   6.446  17.807  0.00  0.00    +0.000 C 
ATOM      2  O   ASP A   2       3.575   7.629  17.464  0.00  0.00    +0.000 OA
ATOM      3  N   UNK A   3       2.439   5.918  18.313  0.00  0.00    +0.000 N 
ATOM      4  H   UNK A   3       1.674   6.586  18.288  0.00  0.00    +0.000 HD
ENDROOT
BRANCH   1   5
ATOM      5  CA  ASP A   2       4.821   5.551  17.670  0.00  0.00    +0.000 C 
BRANCH   5   8
ATOM      6  C   ALA A   1       5.720   4.563  15.564  0.00  0.00    +0.000 C 
ATOM      7  O   ALA A   1       5.789   3.446  16.068  0.00  0.00    +0.000 OA
ATOM      8  N   ASP A   2       5.276   5.658  16.272  0.00  0.00    +0.000 N 
ATOM      9  H   ASP A   2       5.165   6.545  15.798  0.00  0.00    +0.000 HD
BRANCH   6  11
ATOM     10  CB  ALA A   1       6.102   3.607  13.220  0.00  0.00    +0.000 C 
ATOM     11  CA  ALA A   1       6.140   4.850  14.099  0.00  0.00    +0.000 C 
BRANCH  11  12
ATOM     12  N   ALA A   1       7.509   5.400  14.076  0.00  0.00    +0.000 NA
ATOM     13  H1  ALA A   1       7.800   5.570  15.042  0.00  0.00    +0.000 HD
ATOM     14  H2  ALA A   1       7.465   6.340  13.677  0.00  0.00    +0.000 HD
ENDBRANCH  11  12
ENDBRANCH   6  11
ENDBRANCH   5   8
BRANCH   5  15
ATOM     15  CB  ASP A   2       5.911   6.030  18.622  0.00  0.00    +0.000 C 
BRANCH  15  16
ATOM     16  CG  ASP A   2       7.084   6.588  17.851  0.00  0.00    +0.000 C 
ATOM     17  OD1 ASP A   2       8.137   5.998  17.702  0.00  0.00    +0.000 OA
BRANCH  16  18
ATOM     18  OD2 ASP A   2       6.838   7.801  17.304  0.00  0.00    +0.000 OA
ATOM     19  HD2 ASP A   2       6.527   7.776  16.382  0.00  0.00    +0.000 HD
ENDBRANCH  16  18
ENDBRANCH  15  16
ENDBRANCH   5  15
ENDBRANCH   1   5
BRANCH   3  20
ATOM     20  C   UNK A   3       2.189   4.612  18.924  0.00  0.00    +0.000 C 
BRANCH  20  21
ATOM     21  C   UNK A   3       1.818   4.835  20.369  0.00  0.00    +0.000 C 
ATOM     22  C   UNK A   3       1.980   3.949  21.363  0.00  0.00    +0.000 C 
BRANCH  22  23
ATOM     23  C   UNK A   3       2.576   2.610  21.117  0.00  0.00    +0.000 C 
BRANCH  23  24
ATOM     24  P   UNK A   3       4.098   2.676  20.103  0.00  0.00    +0.000 P 
ATOM     25  O   UNK A   3       4.868   1.859  21.143  0.00  0.00    +0.000 OA
BRANCH  24  26
ATOM     26  O   UNK A   3       3.499   1.544  19.079  0.00  0.00    +0.000 OA
ATOM     27  H   UNK A   3       3.244   0.743  19.577  0.00  0.00    +0.000 HD
ENDBRANCH  24  26
BRANCH  24  28
ATOM     28  O   UNK A   3       5.536   2.737  19.143  0.00  0.00    +0.000 OA
ATOM     29  H   UNK A   3       5.890   1.824  19.163  0.00  0.00    +0.000 HD
ENDBRANCH  24  28
ENDBRANCH  23  24
ENDBRANCH  22  23
ENDBRANCH  20  21
BRANCH  20  30
ATOM     30  C   UNK A   3       1.183   3.829  18.030  0.00  0.00    +0.000 C 
ATOM     31  O   UNK A   3       0.809   2.694  18.306  0.00  0.00    +0.000 OA
BRANCH  30  32
ATOM     32  O   UNK A   3       0.717   4.467  16.933  0.00  0.00    +0.000 OA
ATOM     33  H   UNK A   3       0.870   4.011  16.082  0.00  0.00    +0.000 HD
ENDBRANCH  30  32
ENDBRANCH  20  30
ENDBRANCH   3  20
TORSDOF 15
ENDMDL
MODEL 9
REMARK VINA RESULT:      -6.4      2.493      4.011
REMARK  Name = 
REMARK  16 active torsions:
REMARK  status: ('A' for Active; 'I' for Inactive)
REMARK    1  A    between atoms: CB_1  and  CA_2
REMARK    2  A    between atoms: CA_2  and  N_3
REMARK    3  A    between atoms: CA_2  and  C_4
REMARK    4  A    between atoms: N_6  and  CA_7
REMARK    5  A    between atoms: CA_7  and  CB_8
REMARK    6  A    between atoms: CA_7  and  C_12
REMARK    7  A    between atoms: CB_8  and  CG_9
REMARK    8  A    between atoms: CG_9  and  OD2_11
REMARK    9  A    between atoms: N_14  and  C_15
REMARK   10  A    between atoms: C_15  and  C_16
REMARK   11  A    between atoms: C_15  and  C_23
REMARK   12  A    between atoms: C_17  and  C_18
REMARK   13  A    between atoms: C_18  and  P_19
REMARK   14  A    between atoms: P_19  and  O_21
REMARK   15  A    between atoms: P_19  and  O_22
REMARK   16  A    between atoms: C_23  and  O_25
REMARK                            x       y       z     vdW  Elec       q    Type
REMARK                         _______ _______ _______ _____ _____    ______ ____
ROOT
ATOM      1  C   ASP A   2       5.480   4.144  16.669  0.00  0.00    +0.000 C 
ATOM      2  O   ASP A   2       6.019   4.148  15.561  0.00  0.00    +0.000 OA
ATOM      3  N   UNK A   3       4.721   3.072  17.010  0.00  0.00    +0.000 N 
ATOM      4  H   UNK A   3       4.746   2.352  16.294  0.00  0.00    +0.000 HD
ENDROOT
BRANCH   1   5
ATOM      5  CA  ASP A   2       5.644   5.292  17.674  0.00  0.00    +0.000 C 
BRANCH   5   8
ATOM      6  C   ALA A   1       3.869   7.034  17.856  0.00  0.00    +0.000 C 
ATOM      7  O   ALA A   1       4.611   7.898  17.397  0.00  0.00    +0.000 OA
ATOM      8  N   ASP A   2       4.288   5.736  18.045  0.00  0.00    +0.000 N 
ATOM      9  H   ASP A   2       3.624   5.039  18.357  0.00  0.00    +0.000 HD
BRANCH   6  11
ATOM     10  CB  ALA A   1       1.889   8.654  17.746  0.00  0.00    +0.000 C 
ATOM     11  CA  ALA A   1       2.406   7.324  18.281  0.00  0.00    +0.000 C 
BRANCH  11  12
ATOM     12  N   ALA A   1       2.313   7.342  19.753  0.00  0.00    +0.000 NA
ATOM     13  H1  ALA A   1       3.136   6.864  20.130  0.00  0.00    +0.000 HD
ATOM     14  H2  ALA A   1       1.541   6.731  20.027  0.00  0.00    +0.000 HD
ENDBRANCH  11  12
ENDBRANCH   6  11
ENDBRANCH   5   8
BRANCH   5  15
ATOM     15  CB  ASP A   2       6.396   4.796  18.904  0.00  0.00    +0.000 C 
BRANCH  15  16
ATOM     16  CG  ASP A   2       7.526   5.736  19.254  0.00  0.00    +0.000 C 
ATOM     17  OD1 ASP A   2       7.820   6.713  18.593  0.00  0.00    +0.000 OA
BRANCH  16  18
ATOM     18  OD2 ASP A   2       8.161   5.407  20.402  0.00  0.00    +0.000 OA
ATOM     19  HD2 ASP A   2       8.577   4.527  20.400  0.00  0.00    +0.000 HD
ENDBRANCH  16  18
ENDBRANCH  15  16
ENDBRANCH   5  15
ENDBRANCH   1   5
BRANCH   3  20
ATOM     20  C   UNK A   3       3.861   2.852  18.173  0.00  0.00    +0.000 C 
BRANCH  20  21
ATOM     21  C   UNK A   3       2.440   2.721  17.685  0.00  0.00    +0.000 C 
ATOM     22  C   UNK A   3       1.371   2.462  18.452  0.00  0.00    +0.000 C 
BRANCH  22  23
ATOM     23  C   UNK A   3       1.498   2.283  19.923  0.00  0.00    +0.000 C 
BRANCH  23  24
ATOM     24  P   UNK A   3       2.004   3.811  20.792  0.00  0.00    +0.000 P 
ATOM     25  O   UNK A   3       0.670   4.484  20.459  0.00  0.00    +0.000 OA
BRANCH  24  26
ATOM     26  O   UNK A   3       1.737   3.107  22.248  0.00  0.00    +0.000 OA
ATOM     27  H   UNK A   3       1.376   3.762  22.876  0.00  0.00    +0.000 HD
ENDBRANCH  24  26
BRANCH  24  28
ATOM     28  O   UNK A   3       2.483   5.256  21.615  0.00  0.00    +0.000 OA
ATOM     29  H   UNK A   3       3.457   5.290  21.515  0.00  0.00    +0.000 HD
ENDBRANCH  24  28
ENDBRANCH  23  24
ENDBRANCH  22  23
ENDBRANCH  20  21
BRANCH  20  30
ATOM     30  C   UNK A   3       4.449   1.682  19.014  0.00  0.00    +0.000 C 
ATOM     31  O   UNK A   3       4.937   1.855  20.126  0.00  0.00    +0.000 OA
BRANCH  30  32
ATOM     32  O   UNK A   3       4.383   0.446  18.469  0.00  0.00    +0.000 OA
ATOM     33  H   UNK A   3       4.815  -0.266  18.981  0.00  0.00    +0.000 HD
ENDBRANCH  30  32
ENDBRANCH  20  30
ENDBRANCH   3  20
TORSDOF 15
ENDMDL
