MODEL 1
REMARK VINA RESULT:      -6.5      0.000      0.000
REMARK  Name = 
REMARK  6 active torsions:
REMARK  status: ('A' for Active; 'I' for Inactive)
REMARK    1  A    between atoms: C_1  and  N_2
REMARK    2  A    between atoms: N_2  and  C_3
REMARK    3  A    between atoms: N_2  and  C_4
REMARK    4  A    between atoms: C_4  and  C_5
REMARK    5  A    between atoms: N_14  and  C_15
REMARK    6  A    between atoms: C_15  and  C_16
REMARK                            x       y       z     vdW  Elec       q    Type
REMARK                         _______ _______ _______ _____ _____    ______ ____
ROOT
ATOM      1  C   UNL     1       3.235   4.196  17.320  0.00  0.00    +0.000 C 
ATOM      2  O   UNL     1       2.140   4.723  17.556  0.00  0.00    +0.000 OA
ATOM      3  N   UNL     1       4.360   4.943  17.004  0.00  0.00    +0.000 N 
ATOM      4  C   UNL     1       4.320   6.386  17.187  0.00  0.00    +0.000 C 
ATOM      5  C   UNL     1       5.359   6.803  18.225  0.00  0.00    +0.000 C 
ATOM      6  C   UNL     1       6.758   6.330  17.788  0.00  0.00    +0.000 C 
ATOM      7  C   UNL     1       6.755   4.803  17.586  0.00  0.00    +0.000 C 
ATOM      8  C   UNL     1       5.660   4.407  16.593  0.00  0.00    +0.000 C 
ATOM      9  C   UNL     1       7.930   6.827  18.678  0.00  0.00    +0.000 C 
ATOM     10  N   UNL     1       8.313   7.815  17.650  0.00  0.00    +0.000 NA
ATOM     11  C   UNL     1       7.440   7.157  16.660  0.00  0.00    +0.000 C 
ENDROOT
BRANCH   1  12
ATOM     12  C   UNL     1       3.365   2.670  17.408  0.00  0.00    +0.000 C 
BRANCH  12  14
ATOM     13  C   UNL     1       4.045   3.112  19.702  0.00  0.00    +0.000 C 
ATOM     14  N   UNL     1       3.308   2.208  18.816  0.00  0.00    +0.000 NA
ATOM     15  C   UNL     1       1.918   2.096  19.250  0.00  0.00    +0.000 C 
ENDBRANCH  12  14
ENDBRANCH   1  12
BRANCH  10  16
ATOM     16  C   UNL     1       7.844   9.157  18.026  0.00  0.00    +0.000 C 
BRANCH  16  17
ATOM     17  C   UNL     1       8.931  10.067  18.554  0.00  0.00    +0.000 A 
ATOM     18  C   UNL     1       9.768  10.768  17.665  0.00  0.00    +0.000 A 
ATOM     19  C   UNL     1      10.737  11.653  18.151  0.00  0.00    +0.000 A 
ATOM     20  C   UNL     1      10.878  11.844  19.524  0.00  0.00    +0.000 A 
ATOM     21  C   UNL     1      10.053  11.156  20.412  0.00  0.00    +0.000 A 
ATOM     22  C   UNL     1       9.093  10.266  19.932  0.00  0.00    +0.000 A 
ENDBRANCH  16  17
ENDBRANCH  10  16
TORSDOF 4
ENDMDL
MODEL 2
REMARK VINA RESULT:      -6.5      4.182      6.565
REMARK  Name = 
REMARK  6 active torsions:
REMARK  status: ('A' for Active; 'I' for Inactive)
REMARK    1  A    between atoms: C_1  and  N_2
REMARK    2  A    between atoms: N_2  and  C_3
REMARK    3  A    between atoms: N_2  and  C_4
REMARK    4  A    between atoms: C_4  and  C_5
REMARK    5  A    between atoms: N_14  and  C_15
REMARK    6  A    between atoms: C_15  and  C_16
REMARK                            x       y       z     vdW  Elec       q    Type
REMARK                         _______ _______ _______ _____ _____    ______ ____
ROOT
ATOM      1  C   UNL     1       1.933   8.028  19.451  0.00  0.00    +0.000 C 
ATOM      2  O   UNL     1       1.748   9.161  18.990  0.00  0.00    +0.000 OA
ATOM      3  N   UNL     1       2.593   7.039  18.736  0.00  0.00    +0.000 N 
ATOM      4  C   UNL     1       3.295   7.405  17.515  0.00  0.00    +0.000 C 
ATOM      5  C   UNL     1       4.786   7.118  17.675  0.00  0.00    +0.000 C 
ATOM      6  C   UNL     1       5.003   5.634  18.026  0.00  0.00    +0.000 C 
ATOM      7  C   UNL     1       4.229   5.282  19.310  0.00  0.00    +0.000 C 
ATOM      8  C   UNL     1       2.751   5.642  19.147  0.00  0.00    +0.000 C 
ATOM      9  C   UNL     1       6.487   5.174  18.060  0.00  0.00    +0.000 C 
ATOM     10  N   UNL     1       6.322   4.493  16.760  0.00  0.00    +0.000 NA
ATOM     11  C   UNL     1       4.856   4.623  16.852  0.00  0.00    +0.000 C 
ENDROOT
BRANCH   1  12
ATOM     12  C   UNL     1       1.446   7.710  20.871  0.00  0.00    +0.000 C 
BRANCH  12  14
ATOM     13  C   UNL     1      -0.645   8.552  21.789  0.00  0.00    +0.000 C 
ATOM     14  N   UNL     1       0.748   8.873  21.471  0.00  0.00    +0.000 NA
ATOM     15  C   UNL     1       1.453   9.313  22.673  0.00  0.00    +0.000 C 
ENDBRANCH  12  14
ENDBRANCH   1  12
BRANCH  10  16
ATOM     16  C   UNL     1       6.902   5.303  15.678  0.00  0.00    +0.000 C 
BRANCH  16  17
ATOM     17  C   UNL     1       6.711   4.717  14.296  0.00  0.00    +0.000 A 
ATOM     18  C   UNL     1       7.634   4.997  13.270  0.00  0.00    +0.000 A 
ATOM     19  C   UNL     1       7.490   4.412  12.007  0.00  0.00    +0.000 A 
ATOM     20  C   UNL     1       6.428   3.545  11.760  0.00  0.00    +0.000 A 
ATOM     21  C   UNL     1       5.512   3.259  12.770  0.00  0.00    +0.000 A 
ATOM     22  C   UNL     1       5.646   3.847  14.027  0.00  0.00    +0.000 A 
ENDBRANCH  16  17
ENDBRANCH  10  16
TORSDOF 4
ENDMDL
MODEL 3
REMARK VINA RESULT:      -6.4      4.379      6.836
REMARK  Name = 
REMARK  6 active torsions:
REMARK  status: ('A' for Active; 'I' for Inactive)
REMARK    1  A    between atoms: C_1  and  N_2
REMARK    2  A    between atoms: N_2  and  C_3
REMARK    3  A    between atoms: N_2  and  C_4
REMARK    4  A    between atoms: C_4  and  C_5
REMARK    5  A    between atoms: N_14  and  C_15
REMARK    6  A    between atoms: C_15  and  C_16
REMARK                            x       y       z     vdW  Elec       q    Type
REMARK                         _______ _______ _______ _____ _____    ______ ____
ROOT
ATOM      1  C   UNL     1       6.461   4.645  14.782  0.00  0.00    +0.000 C 
ATOM      2  O   UNL     1       7.208   5.529  14.346  0.00  0.00    +0.000 OA
ATOM      3  N   UNL     1       5.832   4.751  16.015  0.00  0.00    +0.000 N 
ATOM      4  C   UNL     1       5.857   6.031  16.707  0.00  0.00    +0.000 C 
ATOM      5  C   UNL     1       4.432   6.554  16.871  0.00  0.00    +0.000 C 
ATOM      6  C   UNL     1       3.575   5.521  17.628  0.00  0.00    +0.000 C 
ATOM      7  C   UNL     1       3.590   4.178  16.875  0.00  0.00    +0.000 C 
ATOM      8  C   UNL     1       5.032   3.711  16.664  0.00  0.00    +0.000 C 
ATOM      9  C   UNL     1       2.145   5.998  18.000  0.00  0.00    +0.000 C 
ATOM     10  N   UNL     1       2.556   6.184  19.406  0.00  0.00    +0.000 NA
ATOM     11  C   UNL     1       3.803   5.435  19.164  0.00  0.00    +0.000 C 
ENDROOT
BRANCH   1  12
ATOM     12  C   UNL     1       6.192   3.401  13.923  0.00  0.00    +0.000 C 
BRANCH  12  14
ATOM     13  C   UNL     1       7.180   3.230  11.706  0.00  0.00    +0.000 C 
ATOM     14  N   UNL     1       6.061   3.759  12.490  0.00  0.00    +0.000 NA
ATOM     15  C   UNL     1       4.794   3.259  11.963  0.00  0.00    +0.000 C 
ENDBRANCH  12  14
ENDBRANCH   1  12
BRANCH  10  16
ATOM     16  C   UNL     1       2.788   7.608  19.690  0.00  0.00    +0.000 C 
BRANCH  16  17
ATOM     17  C   UNL     1       1.554   8.358  20.140  0.00  0.00    +0.000 A 
ATOM     18  C   UNL     1       0.954   8.065  21.380  0.00  0.00    +0.000 A 
ATOM     19  C   UNL     1      -0.154   8.796  21.822  0.00  0.00    +0.000 A 
ATOM     20  C   UNL     1      -0.670   9.822  21.034  0.00  0.00    +0.000 A 
ATOM     21  C   UNL     1      -0.082  10.121  19.807  0.00  0.00    +0.000 A 
ATOM     22  C   UNL     1       1.016   9.389  19.357  0.00  0.00    +0.000 A 
ENDBRANCH  16  17
ENDBRANCH  10  16
TORSDOF 4
ENDMDL
MODEL 4
REMARK VINA RESULT:      -6.3      4.311      6.787
REMARK  Name = 
REMARK  6 active torsions:
REMARK  status: ('A' for Active; 'I' for Inactive)
REMARK    1  A    between atoms: C_1  and  N_2
REMARK    2  A    between atoms: N_2  and  C_3
REMARK    3  A    between atoms: N_2  and  C_4
REMARK    4  A    between atoms: C_4  and  C_5
REMARK    5  A    between atoms: N_14  and  C_15
REMARK    6  A    between atoms: C_15  and  C_16
REMARK                            x       y       z     vdW  Elec       q    Type
REMARK                         _______ _______ _______ _____ _____    ______ ____
ROOT
ATOM      1  C   UNL     1       6.598   4.651  15.115  0.00  0.00    +0.000 C 
ATOM      2  O   UNL     1       7.452   5.498  14.828  0.00  0.00    +0.000 OA
ATOM      3  N   UNL     1       5.868   4.709  16.293  0.00  0.00    +0.000 N 
ATOM      4  C   UNL     1       5.931   5.919  17.099  0.00  0.00    +0.000 C 
ATOM      5  C   UNL     1       4.544   6.552  17.186  0.00  0.00    +0.000 C 
ATOM      6  C   UNL     1       3.539   5.540  17.768  0.00  0.00    +0.000 C 
ATOM      7  C   UNL     1       3.516   4.268  16.900  0.00  0.00    +0.000 C 
ATOM      8  C   UNL     1       4.928   3.693  16.773  0.00  0.00    +0.000 C 
ATOM      9  C   UNL     1       2.123   6.109  18.057  0.00  0.00    +0.000 C 
ATOM     10  N   UNL     1       2.414   6.139  19.505  0.00  0.00    +0.000 NA
ATOM     11  C   UNL     1       3.614   5.305  19.304  0.00  0.00    +0.000 C 
ENDROOT
BRANCH   1  12
ATOM     12  C   UNL     1       6.312   3.512  14.126  0.00  0.00    +0.000 C 
BRANCH  12  14
ATOM     13  C   UNL     1       7.223   3.934  11.910  0.00  0.00    +0.000 C 
ATOM     14  N   UNL     1       6.040   4.039  12.767  0.00  0.00    +0.000 NA
ATOM     15  C   UNL     1       4.916   3.324  12.168  0.00  0.00    +0.000 C 
ENDBRANCH  12  14
ENDBRANCH   1  12
BRANCH  10  16
ATOM     16  C   UNL     1       2.733   7.508  19.937  0.00  0.00    +0.000 C 
BRANCH  16  17
ATOM     17  C   UNL     1       1.522   8.343  20.293  0.00  0.00    +0.000 A 
ATOM     18  C   UNL     1       1.073   9.354  19.423  0.00  0.00    +0.000 A 
ATOM     19  C   UNL     1      -0.079  10.090  19.725  0.00  0.00    +0.000 A 
ATOM     20  C   UNL     1      -0.788   9.821  20.893  0.00  0.00    +0.000 A 
ATOM     21  C   UNL     1      -0.353   8.821  21.759  0.00  0.00    +0.000 A 
ATOM     22  C   UNL     1       0.800   8.093  21.468  0.00  0.00    +0.000 A 
ENDBRANCH  16  17
ENDBRANCH  10  16
TORSDOF 4
ENDMDL
MODEL 5
REMARK VINA RESULT:      -6.3      0.452      1.276
REMARK  Name = 
REMARK  6 active torsions:
REMARK  status: ('A' for Active; 'I' for Inactive)
REMARK    1  A    between atoms: C_1  and  N_2
REMARK    2  A    between atoms: N_2  and  C_3
REMARK    3  A    between atoms: N_2  and  C_4
REMARK    4  A    between atoms: C_4  and  C_5
REMARK    5  A    between atoms: N_14  and  C_15
REMARK    6  A    between atoms: C_15  and  C_16
REMARK                            x       y       z     vdW  Elec       q    Type
REMARK                         _______ _______ _______ _____ _____    ______ ____
ROOT
ATOM      1  C   UNL     1       3.085   4.400  17.395  0.00  0.00    +0.000 C 
ATOM      2  O   UNL     1       2.009   4.953  17.653  0.00  0.00    +0.000 OA
ATOM      3  N   UNL     1       4.221   5.120  17.053  0.00  0.00    +0.000 N 
ATOM      4  C   UNL     1       4.218   6.564  17.234  0.00  0.00    +0.000 C 
ATOM      5  C   UNL     1       5.289   6.957  18.248  0.00  0.00    +0.000 C 
ATOM      6  C   UNL     1       6.667   6.451  17.781  0.00  0.00    +0.000 C 
ATOM      7  C   UNL     1       6.624   4.925  17.583  0.00  0.00    +0.000 C 
ATOM      8  C   UNL     1       5.498   4.553  16.615  0.00  0.00    +0.000 C 
ATOM      9  C   UNL     1       7.870   6.922  18.645  0.00  0.00    +0.000 C 
ATOM     10  N   UNL     1       8.253   7.899  17.606  0.00  0.00    +0.000 NA
ATOM     11  C   UNL     1       7.344   7.260  16.637  0.00  0.00    +0.000 C 
ENDROOT
BRANCH   1  12
ATOM     12  C   UNL     1       3.181   2.871  17.483  0.00  0.00    +0.000 C 
BRANCH  12  14
ATOM     13  C   UNL     1       1.809   2.025  19.307  0.00  0.00    +0.000 C 
ATOM     14  N   UNL     1       3.160   2.414  18.894  0.00  0.00    +0.000 NA
ATOM     15  C   UNL     1       4.085   1.297  19.072  0.00  0.00    +0.000 C 
ENDBRANCH  12  14
ENDBRANCH   1  12
BRANCH  10  16
ATOM     16  C   UNL     1       7.824   9.252  17.990  0.00  0.00    +0.000 C 
BRANCH  16  17
ATOM     17  C   UNL     1       8.945  10.139  18.488  0.00  0.00    +0.000 A 
ATOM     18  C   UNL     1       9.169  10.294  19.869  0.00  0.00    +0.000 A 
ATOM     19  C   UNL     1      10.238  11.069  20.332  0.00  0.00    +0.000 A 
ATOM     20  C   UNL     1      11.089  11.692  19.422  0.00  0.00    +0.000 A 
ATOM     21  C   UNL     1      10.877  11.543  18.053  0.00  0.00    +0.000 A 
ATOM     22  C   UNL     1       9.807  10.780  17.588  0.00  0.00    +0.000 A 
ENDBRANCH  16  17
ENDBRANCH  10  16
TORSDOF 4
ENDMDL
MODEL 6
REMARK VINA RESULT:      -6.2      4.094      5.977
REMARK  Name = 
REMARK  6 active torsions:
REMARK  status: ('A' for Active; 'I' for Inactive)
REMARK    1  A    between atoms: C_1  and  N_2
REMARK    2  A    between atoms: N_2  and  C_3
REMARK    3  A    between atoms: N_2  and  C_4
REMARK    4  A    between atoms: C_4  and  C_5
REMARK    5  A    between atoms: N_14  and  C_15
REMARK    6  A    between atoms: C_15  and  C_16
REMARK                            x       y       z     vdW  Elec       q    Type
REMARK                         _______ _______ _______ _____ _____    ______ ____
ROOT
ATOM      1  C   UNL     1       1.396   2.305  19.022  0.00  0.00    +0.000 C 
ATOM      2  O   UNL     1       0.342   2.299  18.375  0.00  0.00    +0.000 OA
ATOM      3  N   UNL     1       2.620   2.594  18.436  0.00  0.00    +0.000 N 
ATOM      4  C   UNL     1       2.642   3.138  17.087  0.00  0.00    +0.000 C 
ATOM      5  C   UNL     1       3.262   4.533  17.104  0.00  0.00    +0.000 C 
ATOM      6  C   UNL     1       4.677   4.473  17.709  0.00  0.00    +0.000 C 
ATOM      7  C   UNL     1       4.615   3.875  19.127  0.00  0.00    +0.000 C 
ATOM      8  C   UNL     1       3.928   2.508  19.090  0.00  0.00    +0.000 C 
ATOM      9  C   UNL     1       5.481   5.801  17.641  0.00  0.00    +0.000 C 
ATOM     10  N   UNL     1       6.298   5.266  16.533  0.00  0.00    +0.000 NA
ATOM     11  C   UNL     1       5.793   3.904  16.787  0.00  0.00    +0.000 C 
ENDROOT
BRANCH   1  12
ATOM     12  C   UNL     1       1.351   2.013  20.528  0.00  0.00    +0.000 C 
BRANCH  12  14
ATOM     13  C   UNL     1       2.409   3.532  22.107  0.00  0.00    +0.000 C 
ATOM     14  N   UNL     1       1.208   3.263  21.312  0.00  0.00    +0.000 NA
ATOM     15  C   UNL     1       0.932   4.385  20.419  0.00  0.00    +0.000 C 
ENDBRANCH  12  14
ENDBRANCH   1  12
BRANCH  10  16
ATOM     16  C   UNL     1       5.843   5.815  15.247  0.00  0.00    +0.000 C 
BRANCH  16  17
ATOM     17  C   UNL     1       6.192   4.957  14.049  0.00  0.00    +0.000 A 
ATOM     18  C   UNL     1       5.271   4.012  13.558  0.00  0.00    +0.000 A 
ATOM     19  C   UNL     1       5.570   3.257  12.419  0.00  0.00    +0.000 A 
ATOM     20  C   UNL     1       6.785   3.440  11.762  0.00  0.00    +0.000 A 
ATOM     21  C   UNL     1       7.701   4.375  12.239  0.00  0.00    +0.000 A 
ATOM     22  C   UNL     1       7.412   5.122  13.380  0.00  0.00    +0.000 A 
ENDBRANCH  16  17
ENDBRANCH  10  16
TORSDOF 4
ENDMDL
MODEL 7
REMARK VINA RESULT:      -6.1      7.204      8.840
REMARK  Name = 
REMARK  6 active torsions:
REMARK  status: ('A' for Active; 'I' for Inactive)
REMARK    1  A    between atoms: C_1  and  N_2
REMARK    2  A    between atoms: N_2  and  C_3
REMARK    3  A    between atoms: N_2  and  C_4
REMARK    4  A    between atoms: C_4  and  C_5
REMARK    5  A    between atoms: N_14  and  C_15
REMARK    6  A    between atoms: C_15  and  C_16
REMARK                            x       y       z     vdW  Elec       q    Type
REMARK                         _______ _______ _______ _____ _____    ______ ____
ROOT
ATOM      1  C   UNL     1       3.262   6.766  18.669  0.00  0.00    +0.000 C 
ATOM      2  O   UNL     1       3.615   5.916  19.495  0.00  0.00    +0.000 OA
ATOM      3  N   UNL     1       2.157   7.580  18.873  0.00  0.00    +0.000 N 
ATOM      4  C   UNL     1       1.538   7.606  20.190  0.00  0.00    +0.000 C 
ATOM      5  C   UNL     1       1.638   9.011  20.778  0.00  0.00    +0.000 C 
ATOM      6  C   UNL     1       0.980  10.028  19.827  0.00  0.00    +0.000 C 
ATOM      7  C   UNL     1       1.648   9.957  18.441  0.00  0.00    +0.000 C 
ATOM      8  C   UNL     1       1.594   8.524  17.906  0.00  0.00    +0.000 C 
ATOM      9  C   UNL     1       0.873  11.475  20.381  0.00  0.00    +0.000 C 
ATOM     10  N   UNL     1      -0.570  11.289  20.634  0.00  0.00    +0.000 NA
ATOM     11  C   UNL     1      -0.576  10.057  19.823  0.00  0.00    +0.000 C 
ENDROOT
BRANCH   1  12
ATOM     12  C   UNL     1       4.087   6.953  17.388  0.00  0.00    +0.000 C 
BRANCH  12  14
ATOM     13  C   UNL     1       5.196   5.119  16.234  0.00  0.00    +0.000 C 
ATOM     14  N   UNL     1       5.259   6.043  17.369  0.00  0.00    +0.000 NA
ATOM     15  C   UNL     1       6.495   6.821  17.320  0.00  0.00    +0.000 C 
ENDBRANCH  12  14
ENDBRANCH   1  12
BRANCH  10  16
ATOM     16  C   UNL     1      -0.813  11.036  22.062  0.00  0.00    +0.000 C 
BRANCH  16  17
ATOM     17  C   UNL     1      -1.523  12.165  22.778  0.00  0.00    +0.000 A 
ATOM     18  C   UNL     1      -2.802  11.965  23.330  0.00  0.00    +0.000 A 
ATOM     19  C   UNL     1      -3.437  12.991  24.040  0.00  0.00    +0.000 A 
ATOM     20  C   UNL     1      -2.800  14.219  24.204  0.00  0.00    +0.000 A 
ATOM     21  C   UNL     1      -1.533  14.425  23.664  0.00  0.00    +0.000 A 
ATOM     22  C   UNL     1      -0.901  13.410  22.947  0.00  0.00    +0.000 A 
ENDBRANCH  16  17
ENDBRANCH  10  16
TORSDOF 4
ENDMDL
MODEL 8
REMARK VINA RESULT:      -6.1      6.570      7.422
REMARK  Name = 
REMARK  6 active torsions:
REMARK  status: ('A' for Active; 'I' for Inactive)
REMARK    1  A    between atoms: C_1  and  N_2
REMARK    2  A    between atoms: N_2  and  C_3
REMARK    3  A    between atoms: N_2  and  C_4
REMARK    4  A    between atoms: C_4  and  C_5
REMARK    5  A    between atoms: N_14  and  C_15
REMARK    6  A    between atoms: C_15  and  C_16
REMARK                            x       y       z     vdW  Elec       q    Type
REMARK                         _______ _______ _______ _____ _____    ______ ____
ROOT
ATOM      1  C   UNL     1       2.316   6.452  19.095  0.00  0.00    +0.000 C 
ATOM      2  O   UNL     1       2.795   6.177  17.989  0.00  0.00    +0.000 OA
ATOM      3  N   UNL     1       2.092   7.761  19.498  0.00  0.00    +0.000 N 
ATOM      4  C   UNL     1       2.198   8.826  18.512  0.00  0.00    +0.000 C 
ATOM      5  C   UNL     1       0.847   9.523  18.362  0.00  0.00    +0.000 C 
ATOM      6  C   UNL     1       0.379  10.063  19.726  0.00  0.00    +0.000 C 
ATOM      7  C   UNL     1       0.299   8.911  20.745  0.00  0.00    +0.000 C 
ATOM      8  C   UNL     1       1.645   8.187  20.825  0.00  0.00    +0.000 C 
ATOM      9  C   UNL     1      -0.908  10.932  19.684  0.00  0.00    +0.000 C 
ATOM     10  N   UNL     1      -0.103  12.159  19.856  0.00  0.00    +0.000 NA
ATOM     11  C   UNL     1       1.078  11.358  20.228  0.00  0.00    +0.000 C 
ENDROOT
BRANCH   1  12
ATOM     12  C   UNL     1       1.925   5.312  20.046  0.00  0.00    +0.000 C 
BRANCH  12  14
ATOM     13  C   UNL     1       3.325   3.322  20.079  0.00  0.00    +0.000 C 
ATOM     14  N   UNL     1       2.192   3.988  19.433  0.00  0.00    +0.000 NA
ATOM     15  C   UNL     1       0.999   3.149  19.515  0.00  0.00    +0.000 C 
ENDBRANCH  12  14
ENDBRANCH   1  12
BRANCH  10  16
ATOM     16  C   UNL     1       0.057  12.853  18.570  0.00  0.00    +0.000 C 
BRANCH  16  17
ATOM     17  C   UNL     1       0.589  14.265  18.690  0.00  0.00    +0.000 A 
ATOM     18  C   UNL     1       1.971  14.516  18.589  0.00  0.00    +0.000 A 
ATOM     19  C   UNL     1       2.460  15.826  18.645  0.00  0.00    +0.000 A 
ATOM     20  C   UNL     1       1.576  16.891  18.801  0.00  0.00    +0.000 A 
ATOM     21  C   UNL     1       0.207  16.653  18.900  0.00  0.00    +0.000 A 
ATOM     22  C   UNL     1      -0.284  15.348  18.855  0.00  0.00    +0.000 A 
ENDBRANCH  16  17
ENDBRANCH  10  16
TORSDOF 4
ENDMDL
MODEL 9
REMARK VINA RESULT:      -6.0      7.551      9.118
REMARK  Name = 
REMARK  6 active torsions:
REMARK  status: ('A' for Active; 'I' for Inactive)
REMARK    1  A    between atoms: C_1  and  N_2
REMARK    2  A    between atoms: N_2  and  C_3
REMARK    3  A    between atoms: N_2  and  C_4
REMARK    4  A    between atoms: C_4  and  C_5
REMARK    5  A    between atoms: N_14  and  C_15
REMARK    6  A    between atoms: C_15  and  C_16
REMARK                            x       y       z     vdW  Elec       q    Type
REMARK                         _______ _______ _______ _____ _____    ______ ____
ROOT
ATOM      1  C   UNL     1       2.972   6.984  18.875  0.00  0.00    +0.000 C 
ATOM      2  O   UNL     1       3.284   6.092  19.674  0.00  0.00    +0.000 OA
ATOM      3  N   UNL     1       1.918   7.855  19.115  0.00  0.00    +0.000 N 
ATOM      4  C   UNL     1       1.315   7.879  20.439  0.00  0.00    +0.000 C 
ATOM      5  C   UNL     1       1.503   9.259  21.065  0.00  0.00    +0.000 C 
ATOM      6  C   UNL     1       0.896  10.339  20.150  0.00  0.00    +0.000 C 
ATOM      7  C   UNL     1       1.545  10.268  18.755  0.00  0.00    +0.000 C 
ATOM      8  C   UNL     1       1.402   8.857  18.180  0.00  0.00    +0.000 C 
ATOM      9  C   UNL     1       0.880  11.774  20.744  0.00  0.00    +0.000 C 
ATOM     10  N   UNL     1      -0.569  11.664  21.009  0.00  0.00    +0.000 NA
ATOM     11  C   UNL     1      -0.655  10.458  20.165  0.00  0.00    +0.000 C 
ENDROOT
BRANCH   1  12
ATOM     12  C   UNL     1       3.793   7.158  17.590  0.00  0.00    +0.000 C 
BRANCH  12  14
ATOM     13  C   UNL     1       4.761   5.118  16.683  0.00  0.00    +0.000 C 
ATOM     14  N   UNL     1       4.971   6.256  17.581  0.00  0.00    +0.000 NA
ATOM     15  C   UNL     1       6.166   6.997  17.187  0.00  0.00    +0.000 C 
ENDBRANCH  12  14
ENDBRANCH   1  12
BRANCH  10  16
ATOM     16  C   UNL     1      -0.812  11.386  22.432  0.00  0.00    +0.000 C 
BRANCH  16  17
ATOM     17  C   UNL     1      -1.705  12.398  23.117  0.00  0.00    +0.000 A 
ATOM     18  C   UNL     1      -1.229  13.692  23.401  0.00  0.00    +0.000 A 
ATOM     19  C   UNL     1      -2.070  14.646  23.983  0.00  0.00    +0.000 A 
ATOM     20  C   UNL     1      -3.389  14.317  24.285  0.00  0.00    +0.000 A 
ATOM     21  C   UNL     1      -3.871  13.040  24.007  0.00  0.00    +0.000 A 
ATOM     22  C   UNL     1      -3.033  12.083  23.435  0.00  0.00    +0.000 A 
ENDBRANCH  16  17
ENDBRANCH  10  16
TORSDOF 4
ENDMDL
