MODEL 1
REMARK VINA RESULT:      -7.9      0.000      0.000
REMARK  Name = 
REMARK  6 active torsions:
REMARK  status: ('A' for Active; 'I' for Inactive)
REMARK    1  A    between atoms: C_1  and  N_2
REMARK    2  A    between atoms: C_4  and  C_5
REMARK    3  A    between atoms: C_8  and  C_9
REMARK    4  A    between atoms: C_19  and  C_20
REMARK    5  A    between atoms: N_22  and  S_23
REMARK    6  A    between atoms: S_23  and  C_24
REMARK                            x       y       z     vdW  Elec       q    Type
REMARK                         _______ _______ _______ _____ _____    ______ ____
ROOT
ATOM      1  C   UNL     1       3.135   3.100  20.382  0.00  0.00    +0.000 C 
ATOM      2  N   UNL     1       3.533   4.065  19.379  0.00  0.00    +0.000 N 
ATOM      3  C   UNL     1       4.443   3.813  18.390  0.00  0.00    +0.000 A 
ATOM      4  C   UNL     1       4.523   4.914  17.558  0.00  0.00    +0.000 A 
ATOM      5  C   UNL     1       3.685   5.925  18.162  0.00  0.00    +0.000 A 
ATOM      6  C   UNL     1       3.378   7.267  17.856  0.00  0.00    +0.000 A 
ATOM      7  C   UNL     1       2.523   8.001  18.684  0.00  0.00    +0.000 A 
ATOM      8  C   UNL     1       1.922   7.421  19.806  0.00  0.00    +0.000 A 
ATOM      9  C   UNL     1       2.183   6.077  20.115  0.00  0.00    +0.000 A 
ATOM     10  C   UNL     1       3.077   5.361  19.291  0.00  0.00    +0.000 A 
ENDROOT
BRANCH   4  11
ATOM     11  C   UNL     1       5.386   4.974  16.367  0.00  0.00    +0.000 A 
ATOM     12  C   UNL     1       4.974   4.285  15.210  0.00  0.00    +0.000 A 
ATOM     13  C   UNL     1       5.747   4.261  14.044  0.00  0.00    +0.000 A 
ATOM     14  C   UNL     1       6.947   4.971  13.977  0.00  0.00    +0.000 A 
ATOM     15  C   UNL     1       7.363   5.682  15.110  0.00  0.00    +0.000 A 
ATOM     16  C   UNL     1       6.611   5.670  16.297  0.00  0.00    +0.000 A 
ATOM     17 CL   UNL     1       7.334   6.514  17.627  0.00  0.00    +0.000 Cl
BRANCH  14  18
ATOM     18  C   UNL     1       7.787   4.988  12.726  0.00  0.00    +0.000 C 
ATOM     19  F   UNL     1       9.127   5.021  12.971  0.00  0.00    +0.000 F 
ATOM     20  F   UNL     1       7.577   3.891  11.947  0.00  0.00    +0.000 F 
ATOM     21  F   UNL     1       7.525   6.065  11.938  0.00  0.00    +0.000 F 
ENDBRANCH  14  18
ENDBRANCH   4  11
BRANCH   8  22
ATOM     22  C   UNL     1       1.048   8.307  20.637  0.00  0.00    +0.000 C 
ATOM     23  O   UNL     1       0.241   7.817  21.414  0.00  0.00    +0.000 OA
ATOM     24  N   UNL     1       1.142   9.684  20.431  0.00  0.00    +0.000 N 
ATOM     25  H   UNL     1       1.803  10.115  19.799  0.00  0.00    +0.000 HD
BRANCH  24  26
ATOM     26  S   UNL     1       0.246  10.811  21.257  0.00  0.00    +0.000 S 
ATOM     27  C   UNL     1       1.029  12.353  20.819  0.00  0.00    +0.000 C 
ATOM     28  O   UNL     1      -1.115  10.789  20.774  0.00  0.00    +0.000 OA
ATOM     29  O   UNL     1       0.536  10.554  22.656  0.00  0.00    +0.000 OA
ENDBRANCH  24  26
ENDBRANCH   8  22
TORSDOF 4
ENDMDL
MODEL 2
REMARK VINA RESULT:      -7.7      0.650      1.043
REMARK  Name = 
REMARK  6 active torsions:
REMARK  status: ('A' for Active; 'I' for Inactive)
REMARK    1  A    between atoms: C_1  and  N_2
REMARK    2  A    between atoms: C_4  and  C_5
REMARK    3  A    between atoms: C_8  and  C_9
REMARK    4  A    between atoms: C_19  and  C_20
REMARK    5  A    between atoms: N_22  and  S_23
REMARK    6  A    between atoms: S_23  and  C_24
REMARK                            x       y       z     vdW  Elec       q    Type
REMARK                         _______ _______ _______ _____ _____    ______ ____
ROOT
ATOM      1  C   UNL     1       3.040   3.167  20.324  0.00  0.00    +0.000 C 
ATOM      2  N   UNL     1       3.468   4.123  19.325  0.00  0.00    +0.000 N 
ATOM      3  C   UNL     1       4.371   3.848  18.336  0.00  0.00    +0.000 A 
ATOM      4  C   UNL     1       4.485   4.949  17.509  0.00  0.00    +0.000 A 
ATOM      5  C   UNL     1       3.678   5.982  18.116  0.00  0.00    +0.000 A 
ATOM      6  C   UNL     1       3.412   7.335  17.816  0.00  0.00    +0.000 A 
ATOM      7  C   UNL     1       2.580   8.091  18.647  0.00  0.00    +0.000 A 
ATOM      8  C   UNL     1       1.960   7.525  19.766  0.00  0.00    +0.000 A 
ATOM      9  C   UNL     1       2.180   6.172  20.069  0.00  0.00    +0.000 A 
ATOM     10  C   UNL     1       3.052   5.432  19.242  0.00  0.00    +0.000 A 
ENDROOT
BRANCH   4  11
ATOM     11  C   UNL     1       5.350   4.988  16.318  0.00  0.00    +0.000 A 
ATOM     12  C   UNL     1       4.924   4.305  15.162  0.00  0.00    +0.000 A 
ATOM     13  C   UNL     1       5.698   4.262  13.997  0.00  0.00    +0.000 A 
ATOM     14  C   UNL     1       6.913   4.945  13.930  0.00  0.00    +0.000 A 
ATOM     15  C   UNL     1       7.343   5.650  15.062  0.00  0.00    +0.000 A 
ATOM     16  C   UNL     1       6.590   5.657  16.247  0.00  0.00    +0.000 A 
ATOM     17 CL   UNL     1       7.330   6.487  17.577  0.00  0.00    +0.000 Cl
BRANCH  14  18
ATOM     18  C   UNL     1       7.754   4.941  12.679  0.00  0.00    +0.000 C 
ATOM     19  F   UNL     1       7.617   3.808  11.936  0.00  0.00    +0.000 F 
ATOM     20  F   UNL     1       7.448   5.974  11.847  0.00  0.00    +0.000 F 
ATOM     21  F   UNL     1       9.083   5.055  12.946  0.00  0.00    +0.000 F 
ENDBRANCH  14  18
ENDBRANCH   4  11
BRANCH   8  22
ATOM     22  C   UNL     1       1.113   8.434  20.600  0.00  0.00    +0.000 C 
ATOM     23  O   UNL     1       0.233   7.970  21.310  0.00  0.00    +0.000 OA
ATOM     24  N   UNL     1       1.321   9.807  20.473  0.00  0.00    +0.000 N 
ATOM     25  H   UNL     1       2.044  10.217  19.897  0.00  0.00    +0.000 HD
BRANCH  24  26
ATOM     26  S   UNL     1       0.470  10.958  21.314  0.00  0.00    +0.000 S 
ATOM     27  C   UNL     1      -1.027  11.135  20.360  0.00  0.00    +0.000 C 
ATOM     28  O   UNL     1       0.163  10.459  22.634  0.00  0.00    +0.000 OA
ATOM     29  O   UNL     1       1.242  12.176  21.148  0.00  0.00    +0.000 OA
ENDBRANCH  24  26
ENDBRANCH   8  22
TORSDOF 4
ENDMDL
MODEL 3
REMARK VINA RESULT:      -7.7      5.069      7.352
REMARK  Name = 
REMARK  6 active torsions:
REMARK  status: ('A' for Active; 'I' for Inactive)
REMARK    1  A    between atoms: C_1  and  N_2
REMARK    2  A    between atoms: C_4  and  C_5
REMARK    3  A    between atoms: C_8  and  C_9
REMARK    4  A    between atoms: C_19  and  C_20
REMARK    5  A    between atoms: N_22  and  S_23
REMARK    6  A    between atoms: S_23  and  C_24
REMARK                            x       y       z     vdW  Elec       q    Type
REMARK                         _______ _______ _______ _____ _____    ______ ____
ROOT
ATOM      1  C   UNL     1       0.414  13.680  19.601  0.00  0.00    +0.000 C 
ATOM      2  N   UNL     1       0.269  12.293  19.212  0.00  0.00    +0.000 N 
ATOM      3  C   UNL     1       1.283  11.377  19.243  0.00  0.00    +0.000 A 
ATOM      4  C   UNL     1       0.784  10.137  18.894  0.00  0.00    +0.000 A 
ATOM      5  C   UNL     1      -0.595  10.358  18.524  0.00  0.00    +0.000 A 
ATOM      6  C   UNL     1      -1.631   9.538  18.030  0.00  0.00    +0.000 A 
ATOM      7  C   UNL     1      -2.885  10.085  17.740  0.00  0.00    +0.000 A 
ATOM      8  C   UNL     1      -3.159  11.437  17.966  0.00  0.00    +0.000 A 
ATOM      9  C   UNL     1      -2.157  12.269  18.489  0.00  0.00    +0.000 A 
ATOM     10  C   UNL     1      -0.886  11.711  18.742  0.00  0.00    +0.000 A 
ENDROOT
BRANCH   4  11
ATOM     11  C   UNL     1       1.599   8.911  18.856  0.00  0.00    +0.000 A 
ATOM     12  C   UNL     1       2.325   8.630  17.683  0.00  0.00    +0.000 A 
ATOM     13  C   UNL     1       3.099   7.471  17.547  0.00  0.00    +0.000 A 
ATOM     14  C   UNL     1       3.213   6.570  18.607  0.00  0.00    +0.000 A 
ATOM     15  C   UNL     1       2.516   6.844  19.791  0.00  0.00    +0.000 A 
ATOM     16  C   UNL     1       1.702   7.982  19.913  0.00  0.00    +0.000 A 
ATOM     17 CL   UNL     1       0.831   8.100  21.407  0.00  0.00    +0.000 Cl
BRANCH  14  18
ATOM     18  C   UNL     1       4.062   5.329  18.501  0.00  0.00    +0.000 C 
ATOM     19  F   UNL     1       5.152   5.346  19.318  0.00  0.00    +0.000 F 
ATOM     20  F   UNL     1       3.371   4.201  18.823  0.00  0.00    +0.000 F 
ATOM     21  F   UNL     1       4.540   5.132  17.243  0.00  0.00    +0.000 F 
ENDBRANCH  14  18
ENDBRANCH   4  11
BRANCH   8  22
ATOM     22  C   UNL     1      -4.526  11.920  17.592  0.00  0.00    +0.000 C 
ATOM     23  O   UNL     1      -5.017  11.597  16.520  0.00  0.00    +0.000 OA
ATOM     24  N   UNL     1      -5.163  12.797  18.469  0.00  0.00    +0.000 N 
ATOM     25  H   UNL     1      -4.782  13.077  19.362  0.00  0.00    +0.000 HD
BRANCH  24  26
ATOM     26  S   UNL     1      -6.673  13.437  18.211  0.00  0.00    +0.000 S 
ATOM     27  C   UNL     1      -6.869  14.577  19.569  0.00  0.00    +0.000 C 
ATOM     28  O   UNL     1      -6.684  14.151  16.955  0.00  0.00    +0.000 OA
ATOM     29  O   UNL     1      -7.582  12.328  18.435  0.00  0.00    +0.000 OA
ENDBRANCH  24  26
ENDBRANCH   8  22
TORSDOF 4
ENDMDL
MODEL 4
REMARK VINA RESULT:      -7.7      6.781      9.637
REMARK  Name = 
REMARK  6 active torsions:
REMARK  status: ('A' for Active; 'I' for Inactive)
REMARK    1  A    between atoms: C_1  and  N_2
REMARK    2  A    between atoms: C_4  and  C_5
REMARK    3  A    between atoms: C_8  and  C_9
REMARK    4  A    between atoms: C_19  and  C_20
REMARK    5  A    between atoms: N_22  and  S_23
REMARK    6  A    between atoms: S_23  and  C_24
REMARK                            x       y       z     vdW  Elec       q    Type
REMARK                         _______ _______ _______ _____ _____    ______ ____
ROOT
ATOM      1  C   UNL     1       2.063   4.332  20.876  0.00  0.00    +0.000 C 
ATOM      2  N   UNL     1       1.894   5.723  20.513  0.00  0.00    +0.000 N 
ATOM      3  C   UNL     1       1.018   6.576  21.125  0.00  0.00    +0.000 A 
ATOM      4  C   UNL     1       1.174   7.842  20.595  0.00  0.00    +0.000 A 
ATOM      5  C   UNL     1       2.129   7.703  19.520  0.00  0.00    +0.000 A 
ATOM      6  C   UNL     1       2.674   8.583  18.561  0.00  0.00    +0.000 A 
ATOM      7  C   UNL     1       3.587   8.111  17.611  0.00  0.00    +0.000 A 
ATOM      8  C   UNL     1       4.012   6.780  17.608  0.00  0.00    +0.000 A 
ATOM      9  C   UNL     1       3.512   5.891  18.572  0.00  0.00    +0.000 A 
ATOM     10  C   UNL     1       2.564   6.371  19.501  0.00  0.00    +0.000 A 
ENDROOT
BRANCH   4  11
ATOM     11  C   UNL     1       0.409   9.016  21.048  0.00  0.00    +0.000 A 
ATOM     12  C   UNL     1       0.293   9.241  22.433  0.00  0.00    +0.000 A 
ATOM     13  C   UNL     1      -0.443  10.313  22.953  0.00  0.00    +0.000 A 
ATOM     14  C   UNL     1      -1.053  11.232  22.097  0.00  0.00    +0.000 A 
ATOM     15  C   UNL     1      -0.929  11.037  20.715  0.00  0.00    +0.000 A 
ATOM     16  C   UNL     1      -0.230   9.937  20.192  0.00  0.00    +0.000 A 
ATOM     17 CL   UNL     1      -0.276   9.798  18.464  0.00  0.00    +0.000 Cl
BRANCH  14  18
ATOM     18  C   UNL     1      -1.827  12.412  22.627  0.00  0.00    +0.000 C 
ATOM     19  F   UNL     1      -1.119  13.176  23.504  0.00  0.00    +0.000 F 
ATOM     20  F   UNL     1      -2.227  13.254  21.635  0.00  0.00    +0.000 F 
ATOM     21  F   UNL     1      -2.958  12.039  23.283  0.00  0.00    +0.000 F 
ENDBRANCH  14  18
ENDBRANCH   4  11
BRANCH   8  22
ATOM     22  C   UNL     1       4.968   6.378  16.529  0.00  0.00    +0.000 C 
ATOM     23  O   UNL     1       4.842   6.832  15.400  0.00  0.00    +0.000 OA
ATOM     24  N   UNL     1       5.937   5.427  16.845  0.00  0.00    +0.000 N 
ATOM     25  H   UNL     1       6.066   5.039  17.770  0.00  0.00    +0.000 HD
BRANCH  24  26
ATOM     26  S   UNL     1       7.071   4.862  15.772  0.00  0.00    +0.000 S 
ATOM     27  C   UNL     1       6.127   3.777  14.717  0.00  0.00    +0.000 C 
ATOM     28  O   UNL     1       7.599   5.967  15.005  0.00  0.00    +0.000 OA
ATOM     29  O   UNL     1       7.953   4.035  16.575  0.00  0.00    +0.000 OA
ENDBRANCH  24  26
ENDBRANCH   8  22
TORSDOF 4
ENDMDL
MODEL 5
REMARK VINA RESULT:      -7.6      0.901      1.026
REMARK  Name = 
REMARK  6 active torsions:
REMARK  status: ('A' for Active; 'I' for Inactive)
REMARK    1  A    between atoms: C_1  and  N_2
REMARK    2  A    between atoms: C_4  and  C_5
REMARK    3  A    between atoms: C_8  and  C_9
REMARK    4  A    between atoms: C_19  and  C_20
REMARK    5  A    between atoms: N_22  and  S_23
REMARK    6  A    between atoms: S_23  and  C_24
REMARK                            x       y       z     vdW  Elec       q    Type
REMARK                         _______ _______ _______ _____ _____    ______ ____
ROOT
ATOM      1  C   UNL     1       3.147   3.002  20.608  0.00  0.00    +0.000 C 
ATOM      2  N   UNL     1       3.500   3.886  19.518  0.00  0.00    +0.000 N 
ATOM      3  C   UNL     1       4.332   3.543  18.488  0.00  0.00    +0.000 A 
ATOM      4  C   UNL     1       4.383   4.584  17.581  0.00  0.00    +0.000 A 
ATOM      5  C   UNL     1       3.617   5.658  18.171  0.00  0.00    +0.000 A 
ATOM      6  C   UNL     1       3.325   6.987  17.797  0.00  0.00    +0.000 A 
ATOM      7  C   UNL     1       2.550   7.799  18.631  0.00  0.00    +0.000 A 
ATOM      8  C   UNL     1       2.013   7.312  19.826  0.00  0.00    +0.000 A 
ATOM      9  C   UNL     1       2.259   5.984  20.206  0.00  0.00    +0.000 A 
ATOM     10  C   UNL     1       3.074   5.188  19.374  0.00  0.00    +0.000 A 
ENDROOT
BRANCH   4  11
ATOM     11  C   UNL     1       5.161   4.540  16.332  0.00  0.00    +0.000 A 
ATOM     12  C   UNL     1       4.475   4.297  15.127  0.00  0.00    +0.000 A 
ATOM     13  C   UNL     1       5.140   4.206  13.898  0.00  0.00    +0.000 A 
ATOM     14  C   UNL     1       6.520   4.402  13.825  0.00  0.00    +0.000 A 
ATOM     15  C   UNL     1       7.217   4.667  15.010  0.00  0.00    +0.000 A 
ATOM     16  C   UNL     1       6.559   4.714  16.251  0.00  0.00    +0.000 A 
ATOM     17 CL   UNL     1       7.598   4.943  17.619  0.00  0.00    +0.000 Cl
BRANCH  14  18
ATOM     18  C   UNL     1       7.259   4.339  12.513  0.00  0.00    +0.000 C 
ATOM     19  F   UNL     1       8.295   5.219  12.430  0.00  0.00    +0.000 F 
ATOM     20  F   UNL     1       7.793   3.109  12.280  0.00  0.00    +0.000 F 
ATOM     21  F   UNL     1       6.454   4.607  11.450  0.00  0.00    +0.000 F 
ENDBRANCH  14  18
ENDBRANCH   4  11
BRANCH   8  22
ATOM     22  C   UNL     1       1.224   8.278  20.654  0.00  0.00    +0.000 C 
ATOM     23  O   UNL     1       0.403   7.865  21.461  0.00  0.00    +0.000 OA
ATOM     24  N   UNL     1       1.409   9.639  20.411  0.00  0.00    +0.000 N 
ATOM     25  H   UNL     1       2.083  10.007  19.754  0.00  0.00    +0.000 HD
BRANCH  24  26
ATOM     26  S   UNL     1       0.614  10.846  21.227  0.00  0.00    +0.000 S 
ATOM     27  C   UNL     1      -0.883  11.059  20.281  0.00  0.00    +0.000 C 
ATOM     28  O   UNL     1       0.298  10.395  22.563  0.00  0.00    +0.000 OA
ATOM     29  O   UNL     1       1.434  12.026  21.023  0.00  0.00    +0.000 OA
ENDBRANCH  24  26
ENDBRANCH   8  22
TORSDOF 4
ENDMDL
MODEL 6
REMARK VINA RESULT:      -7.5      5.053      7.494
REMARK  Name = 
REMARK  6 active torsions:
REMARK  status: ('A' for Active; 'I' for Inactive)
REMARK    1  A    between atoms: C_1  and  N_2
REMARK    2  A    between atoms: C_4  and  C_5
REMARK    3  A    between atoms: C_8  and  C_9
REMARK    4  A    between atoms: C_19  and  C_20
REMARK    5  A    between atoms: N_22  and  S_23
REMARK    6  A    between atoms: S_23  and  C_24
REMARK                            x       y       z     vdW  Elec       q    Type
REMARK                         _______ _______ _______ _____ _____    ______ ____
ROOT
ATOM      1  C   UNL     1      -0.432  13.287  21.437  0.00  0.00    +0.000 C 
ATOM      2  N   UNL     1      -0.411  12.144  20.549  0.00  0.00    +0.000 N 
ATOM      3  C   UNL     1       0.663  11.314  20.389  0.00  0.00    +0.000 A 
ATOM      4  C   UNL     1       0.315  10.281  19.539  0.00  0.00    +0.000 A 
ATOM      5  C   UNL     1      -1.021  10.585  19.078  0.00  0.00    +0.000 A 
ATOM      6  C   UNL     1      -1.916   9.980  18.170  0.00  0.00    +0.000 A 
ATOM      7  C   UNL     1      -3.164  10.559  17.920  0.00  0.00    +0.000 A 
ATOM      8  C   UNL     1      -3.575  11.718  18.585  0.00  0.00    +0.000 A 
ATOM      9  C   UNL     1      -2.718  12.322  19.518  0.00  0.00    +0.000 A 
ATOM     10  C   UNL     1      -1.447  11.748  19.733  0.00  0.00    +0.000 A 
ENDROOT
BRANCH   4  11
ATOM     11  C   UNL     1       1.226   9.184  19.172  0.00  0.00    +0.000 A 
ATOM     12  C   UNL     1       1.750   9.161  17.866  0.00  0.00    +0.000 A 
ATOM     13  C   UNL     1       2.597   8.139  17.423  0.00  0.00    +0.000 A 
ATOM     14  C   UNL     1       2.991   7.121  18.293  0.00  0.00    +0.000 A 
ATOM     15  C   UNL     1       2.498   7.139  19.604  0.00  0.00    +0.000 A 
ATOM     16  C   UNL     1       1.612   8.139  20.037  0.00  0.00    +0.000 A 
ATOM     17 CL   UNL     1       1.021   7.938  21.655  0.00  0.00    +0.000 Cl
BRANCH  14  18
ATOM     18  C   UNL     1       3.925   6.022  17.853  0.00  0.00    +0.000 C 
ATOM     19  F   UNL     1       5.069   5.955  18.589  0.00  0.00    +0.000 F 
ATOM     20  F   UNL     1       3.352   4.791  17.939  0.00  0.00    +0.000 F 
ATOM     21  F   UNL     1       4.320   6.163  16.559  0.00  0.00    +0.000 F 
ENDBRANCH  14  18
ENDBRANCH   4  11
BRANCH   8  22
ATOM     22  C   UNL     1      -4.918  12.266  18.218  0.00  0.00    +0.000 C 
ATOM     23  O   UNL     1      -5.404  12.017  17.124  0.00  0.00    +0.000 OA
ATOM     24  N   UNL     1      -5.540  13.117  19.132  0.00  0.00    +0.000 N 
ATOM     25  H   UNL     1      -5.164  13.337  20.044  0.00  0.00    +0.000 HD
BRANCH  24  26
ATOM     26  S   UNL     1      -7.024  13.820  18.887  0.00  0.00    +0.000 S 
ATOM     27  C   UNL     1      -6.664  15.147  17.751  0.00  0.00    +0.000 C 
ATOM     28  O   UNL     1      -7.912  12.862  18.269  0.00  0.00    +0.000 OA
ATOM     29  O   UNL     1      -7.360  14.417  20.166  0.00  0.00    +0.000 OA
ENDBRANCH  24  26
ENDBRANCH   8  22
TORSDOF 4
ENDMDL
MODEL 7
REMARK VINA RESULT:      -7.4      6.690      9.539
REMARK  Name = 
REMARK  6 active torsions:
REMARK  status: ('A' for Active; 'I' for Inactive)
REMARK    1  A    between atoms: C_1  and  N_2
REMARK    2  A    between atoms: C_4  and  C_5
REMARK    3  A    between atoms: C_8  and  C_9
REMARK    4  A    between atoms: C_19  and  C_20
REMARK    5  A    between atoms: N_22  and  S_23
REMARK    6  A    between atoms: S_23  and  C_24
REMARK                            x       y       z     vdW  Elec       q    Type
REMARK                         _______ _______ _______ _____ _____    ______ ____
ROOT
ATOM      1  C   UNL     1       2.118   4.848  21.063  0.00  0.00    +0.000 C 
ATOM      2  N   UNL     1       1.890   6.164  20.504  0.00  0.00    +0.000 N 
ATOM      3  C   UNL     1       0.959   7.047  20.973  0.00  0.00    +0.000 A 
ATOM      4  C   UNL     1       1.066   8.234  20.273  0.00  0.00    +0.000 A 
ATOM      5  C   UNL     1       2.053   7.995  19.246  0.00  0.00    +0.000 A 
ATOM      6  C   UNL     1       2.579   8.759  18.182  0.00  0.00    +0.000 A 
ATOM      7  C   UNL     1       3.537   8.208  17.325  0.00  0.00    +0.000 A 
ATOM      8  C   UNL     1       4.027   6.913  17.518  0.00  0.00    +0.000 A 
ATOM      9  C   UNL     1       3.546   6.143  18.588  0.00  0.00    +0.000 A 
ATOM     10  C   UNL     1       2.554   6.699  19.422  0.00  0.00    +0.000 A 
ENDROOT
BRANCH   4  11
ATOM     11  C   UNL     1       0.233   9.418  20.542  0.00  0.00    +0.000 A 
ATOM     12  C   UNL     1      -0.393  10.053  19.454  0.00  0.00    +0.000 A 
ATOM     13  C   UNL     1      -1.176  11.203  19.614  0.00  0.00    +0.000 A 
ATOM     14  C   UNL     1      -1.399  11.734  20.886  0.00  0.00    +0.000 A 
ATOM     15  C   UNL     1      -0.802  11.102  21.984  0.00  0.00    +0.000 A 
ATOM     16  C   UNL     1       0.020   9.975  21.821  0.00  0.00    +0.000 A 
ATOM     17 CL   UNL     1       0.761   9.395  23.277  0.00  0.00    +0.000 Cl
BRANCH  14  18
ATOM     18  C   UNL     1      -2.260  12.954  21.093  0.00  0.00    +0.000 C 
ATOM     19  F   UNL     1      -2.297  13.379  22.386  0.00  0.00    +0.000 F 
ATOM     20  F   UNL     1      -1.832  14.019  20.362  0.00  0.00    +0.000 F 
ATOM     21  F   UNL     1      -3.554  12.744  20.730  0.00  0.00    +0.000 F 
ENDBRANCH  14  18
ENDBRANCH   4  11
BRANCH   8  22
ATOM     22  C   UNL     1       5.028   6.415  16.523  0.00  0.00    +0.000 C 
ATOM     23  O   UNL     1       4.967   6.779  15.357  0.00  0.00    +0.000 OA
ATOM     24  N   UNL     1       5.964   5.479  16.962  0.00  0.00    +0.000 N 
ATOM     25  H   UNL     1       6.040   5.164  17.920  0.00  0.00    +0.000 HD
BRANCH  24  26
ATOM     26  S   UNL     1       7.140   4.816  15.996  0.00  0.00    +0.000 S 
ATOM     27  C   UNL     1       6.249   3.590  15.054  0.00  0.00    +0.000 C 
ATOM     28  O   UNL     1       7.668   5.833  15.115  0.00  0.00    +0.000 OA
ATOM     29  O   UNL     1       8.014   4.112  16.916  0.00  0.00    +0.000 OA
ENDBRANCH  24  26
ENDBRANCH   8  22
TORSDOF 4
ENDMDL
MODEL 8
REMARK VINA RESULT:      -7.3      0.945      1.231
REMARK  Name = 
REMARK  6 active torsions:
REMARK  status: ('A' for Active; 'I' for Inactive)
REMARK    1  A    between atoms: C_1  and  N_2
REMARK    2  A    between atoms: C_4  and  C_5
REMARK    3  A    between atoms: C_8  and  C_9
REMARK    4  A    between atoms: C_19  and  C_20
REMARK    5  A    between atoms: N_22  and  S_23
REMARK    6  A    between atoms: S_23  and  C_24
REMARK                            x       y       z     vdW  Elec       q    Type
REMARK                         _______ _______ _______ _____ _____    ______ ____
ROOT
ATOM      1  C   UNL     1       3.151   3.322  20.333  0.00  0.00    +0.000 C 
ATOM      2  N   UNL     1       3.553   4.235  19.285  0.00  0.00    +0.000 N 
ATOM      3  C   UNL     1       4.459   3.931  18.307  0.00  0.00    +0.000 A 
ATOM      4  C   UNL     1       4.545   4.990  17.424  0.00  0.00    +0.000 A 
ATOM      5  C   UNL     1       3.716   6.034  17.981  0.00  0.00    +0.000 A 
ATOM      6  C   UNL     1       3.418   7.363  17.613  0.00  0.00    +0.000 A 
ATOM      7  C   UNL     1       2.570   8.141  18.408  0.00  0.00    +0.000 A 
ATOM      8  C   UNL     1       1.968   7.619  19.557  0.00  0.00    +0.000 A 
ATOM      9  C   UNL     1       2.220   6.289  19.928  0.00  0.00    +0.000 A 
ATOM     10  C   UNL     1       3.106   5.528  19.136  0.00  0.00    +0.000 A 
ENDROOT
BRANCH   4  11
ATOM     11  C   UNL     1       5.405   4.988  16.229  0.00  0.00    +0.000 A 
ATOM     12  C   UNL     1       4.942   4.326  15.076  0.00  0.00    +0.000 A 
ATOM     13  C   UNL     1       5.708   4.246  13.906  0.00  0.00    +0.000 A 
ATOM     14  C   UNL     1       6.954   4.872  13.834  0.00  0.00    +0.000 A 
ATOM     15  C   UNL     1       7.421   5.555  14.963  0.00  0.00    +0.000 A 
ATOM     16  C   UNL     1       6.675   5.598  16.152  0.00  0.00    +0.000 A 
ATOM     17 CL   UNL     1       7.460   6.393  17.478  0.00  0.00    +0.000 Cl
BRANCH  14  18
ATOM     18  C   UNL     1       7.788   4.828  12.579  0.00  0.00    +0.000 C 
ATOM     19  F   UNL     1       7.451   5.784  11.669  0.00  0.00    +0.000 F 
ATOM     20  F   UNL     1       9.113   5.004  12.833  0.00  0.00    +0.000 F 
ATOM     21  F   UNL     1       7.685   3.638  11.928  0.00  0.00    +0.000 F 
ENDBRANCH  14  18
ENDBRANCH   4  11
BRANCH   8  22
ATOM     22  C   UNL     1       1.102   8.550  20.347  0.00  0.00    +0.000 C 
ATOM     23  O   UNL     1       0.370   9.342  19.772  0.00  0.00    +0.000 OA
ATOM     24  N   UNL     1       1.226   8.524  21.736  0.00  0.00    +0.000 N 
ATOM     25  H   UNL     1       1.821   7.877  22.237  0.00  0.00    +0.000 HD
BRANCH  24  26
ATOM     26  S   UNL     1       0.353   9.489  22.766  0.00  0.00    +0.000 S 
ATOM     27  C   UNL     1       0.377  11.077  21.953  0.00  0.00    +0.000 C 
ATOM     28  O   UNL     1      -1.002   8.995  22.854  0.00  0.00    +0.000 OA
ATOM     29  O   UNL     1       1.178   9.593  23.956  0.00  0.00    +0.000 OA
ENDBRANCH  24  26
ENDBRANCH   8  22
TORSDOF 4
ENDMDL
MODEL 9
REMARK VINA RESULT:      -7.3      5.032      7.352
REMARK  Name = 
REMARK  6 active torsions:
REMARK  status: ('A' for Active; 'I' for Inactive)
REMARK    1  A    between atoms: C_1  and  N_2
REMARK    2  A    between atoms: C_4  and  C_5
REMARK    3  A    between atoms: C_8  and  C_9
REMARK    4  A    between atoms: C_19  and  C_20
REMARK    5  A    between atoms: N_22  and  S_23
REMARK    6  A    between atoms: S_23  and  C_24
REMARK                            x       y       z     vdW  Elec       q    Type
REMARK                         _______ _______ _______ _____ _____    ______ ____
ROOT
ATOM      1  C   UNL     1      -0.503  12.946  21.354  0.00  0.00    +0.000 C 
ATOM      2  N   UNL     1      -0.392  11.846  20.420  0.00  0.00    +0.000 N 
ATOM      3  C   UNL     1       0.708  11.042  20.307  0.00  0.00    +0.000 A 
ATOM      4  C   UNL     1       0.447  10.044  19.388  0.00  0.00    +0.000 A 
ATOM      5  C   UNL     1      -0.855  10.345  18.840  0.00  0.00    +0.000 A 
ATOM      6  C   UNL     1      -1.666   9.767  17.840  0.00  0.00    +0.000 A 
ATOM      7  C   UNL     1      -2.903  10.335  17.520  0.00  0.00    +0.000 A 
ATOM      8  C   UNL     1      -3.387  11.456  18.202  0.00  0.00    +0.000 A 
ATOM      9  C   UNL     1      -2.617  12.031  19.224  0.00  0.00    +0.000 A 
ATOM     10  C   UNL     1      -1.355  11.469  19.510  0.00  0.00    +0.000 A 
ENDROOT
BRANCH   4  11
ATOM     11  C   UNL     1       1.406   8.980  19.045  0.00  0.00    +0.000 A 
ATOM     12  C   UNL     1       2.035   9.032  17.787  0.00  0.00    +0.000 A 
ATOM     13  C   UNL     1       2.935   8.045  17.366  0.00  0.00    +0.000 A 
ATOM     14  C   UNL     1       3.276   6.990  18.214  0.00  0.00    +0.000 A 
ATOM     15  C   UNL     1       2.677   6.935  19.479  0.00  0.00    +0.000 A 
ATOM     16  C   UNL     1       1.739   7.898  19.886  0.00  0.00    +0.000 A 
ATOM     17 CL   UNL     1       1.021   7.607  21.437  0.00  0.00    +0.000 Cl
BRANCH  14  18
ATOM     18  C   UNL     1       4.263   5.930  17.799  0.00  0.00    +0.000 C 
ATOM     19  F   UNL     1       5.311   6.416  17.078  0.00  0.00    +0.000 F 
ATOM     20  F   UNL     1       4.810   5.287  18.867  0.00  0.00    +0.000 F 
ATOM     21  F   UNL     1       3.695   4.963  17.029  0.00  0.00    +0.000 F 
ENDBRANCH  14  18
ENDBRANCH   4  11
BRANCH   8  22
ATOM     22  C   UNL     1      -4.710  11.997  17.757  0.00  0.00    +0.000 C 
ATOM     23  O   UNL     1      -5.257  11.538  16.765  0.00  0.00    +0.000 OA
ATOM     24  N   UNL     1      -5.238  13.076  18.466  0.00  0.00    +0.000 N 
ATOM     25  H   UNL     1      -4.809  13.472  19.292  0.00  0.00    +0.000 HD
BRANCH  24  26
ATOM     26  S   UNL     1      -6.686  13.805  18.109  0.00  0.00    +0.000 S 
ATOM     27  C   UNL     1      -7.839  12.969  19.184  0.00  0.00    +0.000 C 
ATOM     28  O   UNL     1      -6.615  15.207  18.450  0.00  0.00    +0.000 OA
ATOM     29  O   UNL     1      -6.976  13.391  16.749  0.00  0.00    +0.000 OA
ENDBRANCH  24  26
ENDBRANCH   8  22
TORSDOF 4
ENDMDL
