MODEL 1
REMARK VINA RESULT:      -8.8      0.000      0.000
REMARK  Name = 
REMARK  6 active torsions:
REMARK  status: ('A' for Active; 'I' for Inactive)
REMARK    1  A    between atoms: C_1  and  C_2
REMARK    2  A    between atoms: C_5  and  N_6
REMARK    3  A    between atoms: C_7  and  C_9
REMARK    4  A    between atoms: C_9  and  N_10
REMARK    5  A    between atoms: C_12  and  C_13
REMARK    6  A    between atoms: C_24  and  C_25
REMARK                            x       y       z     vdW  Elec       q    Type
REMARK                         _______ _______ _______ _____ _____    ______ ____
ROOT
ATOM      1  C   UNL     1       8.018   6.633  18.545  0.00  0.00    +0.000 C 
ENDROOT
BRANCH   1   2
ATOM      2  N   UNL     1       7.083   5.946  17.675  0.00  0.00    +0.000 N 
ATOM      3  N   UNL     1       7.409   5.796  16.369  0.00  0.00    +0.000 NA
ATOM      4  C   UNL     1       6.399   5.068  15.839  0.00  0.00    +0.000 A 
ATOM      5  C   UNL     1       5.413   4.805  16.824  0.00  0.00    +0.000 A 
ATOM      6  C   UNL     1       5.902   5.343  17.995  0.00  0.00    +0.000 A 
ATOM      7  C   UNL     1       5.226   5.286  19.324  0.00  0.00    +0.000 C 
ATOM      8  C   UNL     1       4.060   4.272  19.278  0.00  0.00    +0.000 C 
ATOM      9  C   UNL     1       3.250   4.369  17.972  0.00  0.00    +0.000 C 
ATOM     10  C   UNL     1       4.120   4.072  16.735  0.00  0.00    +0.000 C 
BRANCH   4  11
ATOM     11  C   UNL     1       6.372   4.625  14.401  0.00  0.00    +0.000 C 
ATOM     12  F   UNL     1       7.348   5.191  13.641  0.00  0.00    +0.000 F 
ATOM     13  F   UNL     1       6.516   3.277  14.285  0.00  0.00    +0.000 F 
ATOM     14  F   UNL     1       5.188   4.938  13.809  0.00  0.00    +0.000 F 
ENDBRANCH   4  11
ENDBRANCH   1   2
BRANCH   1  16
ATOM     15  N   UNL     1       9.013   8.831  19.121  0.00  0.00    +0.000 N 
ATOM     16  C   UNL     1       8.161   8.121  18.285  0.00  0.00    +0.000 C 
ATOM     17  O   UNL     1       7.478   8.617  17.385  0.00  0.00    +0.000 OA
ATOM     18  H   UNL     1       9.618   8.277  19.732  0.00  0.00    +0.000 HD
BRANCH  15  23
ATOM     19  C   UNL     1      10.108  14.477  19.103  0.00  0.00    +0.000 C 
ATOM     20  C   UNL     1       9.757  13.015  19.138  0.00  0.00    +0.000 A 
ATOM     21  C   UNL     1       9.633  12.320  17.931  0.00  0.00    +0.000 A 
ATOM     22  C   UNL     1       9.370  10.950  17.917  0.00  0.00    +0.000 A 
ATOM     23  C   UNL     1       9.220  10.232  19.103  0.00  0.00    +0.000 A 
ATOM     24  C   UNL     1       9.278  10.933  20.317  0.00  0.00    +0.000 A 
ATOM     25  C   UNL     1       9.561  12.319  20.347  0.00  0.00    +0.000 A 
ATOM     26  C   UNL     1       9.671  13.037  21.664  0.00  0.00    +0.000 C 
ENDBRANCH  15  23
ENDBRANCH   1  16
TORSDOF 4
ENDMDL
MODEL 2
REMARK VINA RESULT:      -8.5      0.824      1.131
REMARK  Name = 
REMARK  6 active torsions:
REMARK  status: ('A' for Active; 'I' for Inactive)
REMARK    1  A    between atoms: C_1  and  C_2
REMARK    2  A    between atoms: C_5  and  N_6
REMARK    3  A    between atoms: C_7  and  C_9
REMARK    4  A    between atoms: C_9  and  N_10
REMARK    5  A    between atoms: C_12  and  C_13
REMARK    6  A    between atoms: C_24  and  C_25
REMARK                            x       y       z     vdW  Elec       q    Type
REMARK                         _______ _______ _______ _____ _____    ______ ____
ROOT
ATOM      1  C   UNL     1       7.877   6.745  18.552  0.00  0.00    +0.000 C 
ENDROOT
BRANCH   1   2
ATOM      2  N   UNL     1       6.979   5.989  17.701  0.00  0.00    +0.000 N 
ATOM      3  N   UNL     1       7.308   5.834  16.396  0.00  0.00    +0.000 NA
ATOM      4  C   UNL     1       6.340   5.040  15.884  0.00  0.00    +0.000 A 
ATOM      5  C   UNL     1       5.375   4.738  16.879  0.00  0.00    +0.000 A 
ATOM      6  C   UNL     1       5.837   5.325  18.038  0.00  0.00    +0.000 A 
ATOM      7  C   UNL     1       5.171   5.253  19.371  0.00  0.00    +0.000 C 
ATOM      8  C   UNL     1       4.065   4.173  19.349  0.00  0.00    +0.000 C 
ATOM      9  C   UNL     1       3.245   4.199  18.046  0.00  0.00    +0.000 C 
ATOM     10  C   UNL     1       4.126   3.930  16.810  0.00  0.00    +0.000 C 
BRANCH   4  11
ATOM     11  C   UNL     1       6.332   4.569  14.455  0.00  0.00    +0.000 C 
ATOM     12  F   UNL     1       5.175   4.854  13.797  0.00  0.00    +0.000 F 
ATOM     13  F   UNL     1       7.340   5.128  13.733  0.00  0.00    +0.000 F 
ATOM     14  F   UNL     1       6.502   3.222  14.376  0.00  0.00    +0.000 F 
ENDBRANCH   4  11
ENDBRANCH   1   2
BRANCH   1  16
ATOM     15  N   UNL     1       8.890   8.975  18.949  0.00  0.00    +0.000 N 
ATOM     16  C   UNL     1       8.152   8.165  18.095  0.00  0.00    +0.000 C 
ATOM     17  O   UNL     1       7.665   8.529  17.021  0.00  0.00    +0.000 OA
ATOM     18  H   UNL     1       9.347   8.509  19.736  0.00  0.00    +0.000 HD
BRANCH  15  23
ATOM     19  C   UNL     1      10.259  14.473  17.964  0.00  0.00    +0.000 C 
ATOM     20  C   UNL     1       9.891  13.052  18.292  0.00  0.00    +0.000 A 
ATOM     21  C   UNL     1       8.741  12.502  17.719  0.00  0.00    +0.000 A 
ATOM     22  C   UNL     1       8.395  11.169  17.946  0.00  0.00    +0.000 A 
ATOM     23  C   UNL     1       9.182  10.346  18.750  0.00  0.00    +0.000 A 
ATOM     24  C   UNL     1      10.303  10.906  19.380  0.00  0.00    +0.000 A 
ATOM     25  C   UNL     1      10.675  12.251  19.147  0.00  0.00    +0.000 A 
ATOM     26  C   UNL     1      11.912  12.814  19.792  0.00  0.00    +0.000 C 
ENDBRANCH  15  23
ENDBRANCH   1  16
TORSDOF 4
ENDMDL
MODEL 3
REMARK VINA RESULT:      -8.5      4.967      6.646
REMARK  Name = 
REMARK  6 active torsions:
REMARK  status: ('A' for Active; 'I' for Inactive)
REMARK    1  A    between atoms: C_1  and  C_2
REMARK    2  A    between atoms: C_5  and  N_6
REMARK    3  A    between atoms: C_7  and  C_9
REMARK    4  A    between atoms: C_9  and  N_10
REMARK    5  A    between atoms: C_12  and  C_13
REMARK    6  A    between atoms: C_24  and  C_25
REMARK                            x       y       z     vdW  Elec       q    Type
REMARK                         _______ _______ _______ _____ _____    ______ ____
ROOT
ATOM      1  C   UNL     1       3.373   4.046  19.422  0.00  0.00    +0.000 C 
ENDROOT
BRANCH   1   2
ATOM      2  N   UNL     1       4.635   4.485  18.857  0.00  0.00    +0.000 N 
ATOM      3  N   UNL     1       5.604   4.913  19.700  0.00  0.00    +0.000 NA
ATOM      4  C   UNL     1       6.665   5.180  18.905  0.00  0.00    +0.000 A 
ATOM      5  C   UNL     1       6.329   4.955  17.545  0.00  0.00    +0.000 A 
ATOM      6  C   UNL     1       5.039   4.471  17.555  0.00  0.00    +0.000 A 
ATOM      7  C   UNL     1       4.260   4.057  16.351  0.00  0.00    +0.000 C 
ATOM      8  C   UNL     1       5.200   3.945  15.129  0.00  0.00    +0.000 C 
ATOM      9  C   UNL     1       6.219   5.098  15.065  0.00  0.00    +0.000 C 
ATOM     10  C   UNL     1       7.135   5.123  16.304  0.00  0.00    +0.000 C 
BRANCH   4  11
ATOM     11  C   UNL     1       7.994   5.647  19.436  0.00  0.00    +0.000 C 
ATOM     12  F   UNL     1       8.362   6.872  18.974  0.00  0.00    +0.000 F 
ATOM     13  F   UNL     1       7.997   5.723  20.794  0.00  0.00    +0.000 F 
ATOM     14  F   UNL     1       8.992   4.787  19.096  0.00  0.00    +0.000 F 
ENDBRANCH   4  11
ENDBRANCH   1   2
BRANCH   1  16
ATOM     15  N   UNL     1       2.776   6.454  19.435  0.00  0.00    +0.000 N 
ATOM     16  C   UNL     1       2.359   5.149  19.662  0.00  0.00    +0.000 C 
ATOM     17  O   UNL     1       1.248   4.826  20.090  0.00  0.00    +0.000 OA
ATOM     18  H   UNL     1       3.671   6.569  18.952  0.00  0.00    +0.000 HD
BRANCH  15  23
ATOM     19  C   UNL     1      -0.093  11.316  20.534  0.00  0.00    +0.000 C 
ATOM     20  C   UNL     1       0.597  10.007  20.262  0.00  0.00    +0.000 A 
ATOM     21  C   UNL     1       1.061   9.743  18.971  0.00  0.00    +0.000 A 
ATOM     22  C   UNL     1       1.760   8.569  18.686  0.00  0.00    +0.000 A 
ATOM     23  C   UNL     1       2.017   7.624  19.679  0.00  0.00    +0.000 A 
ATOM     24  C   UNL     1       1.500   7.851  20.963  0.00  0.00    +0.000 A 
ATOM     25  C   UNL     1       0.803   9.043  21.270  0.00  0.00    +0.000 A 
ATOM     26  C   UNL     1       0.305   9.287  22.668  0.00  0.00    +0.000 C 
ENDBRANCH  15  23
ENDBRANCH   1  16
TORSDOF 4
ENDMDL
MODEL 4
REMARK VINA RESULT:      -8.4      0.493      1.395
REMARK  Name = 
REMARK  6 active torsions:
REMARK  status: ('A' for Active; 'I' for Inactive)
REMARK    1  A    between atoms: C_1  and  C_2
REMARK    2  A    between atoms: C_5  and  N_6
REMARK    3  A    between atoms: C_7  and  C_9
REMARK    4  A    between atoms: C_9  and  N_10
REMARK    5  A    between atoms: C_12  and  C_13
REMARK    6  A    between atoms: C_24  and  C_25
REMARK                            x       y       z     vdW  Elec       q    Type
REMARK                         _______ _______ _______ _____ _____    ______ ____
ROOT
ATOM      1  C   UNL     1       8.117   6.805  18.575  0.00  0.00    +0.000 C 
ENDROOT
BRANCH   1   2
ATOM      2  N   UNL     1       7.170   6.127  17.710  0.00  0.00    +0.000 N 
ATOM      3  N   UNL     1       7.507   5.933  16.413  0.00  0.00    +0.000 NA
ATOM      4  C   UNL     1       6.480   5.226  15.888  0.00  0.00    +0.000 A 
ATOM      5  C   UNL     1       5.474   5.021  16.866  0.00  0.00    +0.000 A 
ATOM      6  C   UNL     1       5.966   5.573  18.030  0.00  0.00    +0.000 A 
ATOM      7  C   UNL     1       5.272   5.572  19.351  0.00  0.00    +0.000 C 
ATOM      8  C   UNL     1       4.073   4.597  19.314  0.00  0.00    +0.000 C 
ATOM      9  C   UNL     1       3.283   4.687  17.995  0.00  0.00    +0.000 C 
ATOM     10  C   UNL     1       4.158   4.330  16.778  0.00  0.00    +0.000 C 
BRANCH   4  11
ATOM     11  C   UNL     1       6.456   4.748  14.461  0.00  0.00    +0.000 C 
ATOM     12  F   UNL     1       7.471   5.246  13.705  0.00  0.00    +0.000 F 
ATOM     13  F   UNL     1       6.537   3.392  14.382  0.00  0.00    +0.000 F 
ATOM     14  F   UNL     1       5.299   5.102  13.840  0.00  0.00    +0.000 F 
ENDBRANCH   4  11
ENDBRANCH   1   2
BRANCH   1  16
ATOM     15  N   UNL     1       9.156   8.988  19.131  0.00  0.00    +0.000 N 
ATOM     16  C   UNL     1       8.253   8.297  18.333  0.00  0.00    +0.000 C 
ATOM     17  O   UNL     1       7.522   8.812  17.483  0.00  0.00    +0.000 OA
ATOM     18  H   UNL     1       9.793   8.421  19.695  0.00  0.00    +0.000 HD
BRANCH  15  23
ATOM     19  C   UNL     1       9.821  14.697  18.934  0.00  0.00    +0.000 C 
ATOM     20  C   UNL     1       9.719  13.197  18.989  0.00  0.00    +0.000 A 
ATOM     21  C   UNL     1       9.082  12.603  20.081  0.00  0.00    +0.000 A 
ATOM     22  C   UNL     1       8.910  11.220  20.144  0.00  0.00    +0.000 A 
ATOM     23  C   UNL     1       9.369  10.388  19.124  0.00  0.00    +0.000 A 
ATOM     24  C   UNL     1      10.067  10.970  18.055  0.00  0.00    +0.000 A 
ATOM     25  C   UNL     1      10.235  12.372  17.969  0.00  0.00    +0.000 A 
ATOM     26  C   UNL     1      10.940  12.976  16.786  0.00  0.00    +0.000 C 
ENDBRANCH  15  23
ENDBRANCH   1  16
TORSDOF 4
ENDMDL
MODEL 5
REMARK VINA RESULT:      -8.4      4.958      6.529
REMARK  Name = 
REMARK  6 active torsions:
REMARK  status: ('A' for Active; 'I' for Inactive)
REMARK    1  A    between atoms: C_1  and  C_2
REMARK    2  A    between atoms: C_5  and  N_6
REMARK    3  A    between atoms: C_7  and  C_9
REMARK    4  A    between atoms: C_9  and  N_10
REMARK    5  A    between atoms: C_12  and  C_13
REMARK    6  A    between atoms: C_24  and  C_25
REMARK                            x       y       z     vdW  Elec       q    Type
REMARK                         _______ _______ _______ _____ _____    ______ ____
ROOT
ATOM      1  C   UNL     1       3.255   4.013  17.651  0.00  0.00    +0.000 C 
ENDROOT
BRANCH   1   2
ATOM      2  N   UNL     1       4.626   4.424  17.418  0.00  0.00    +0.000 N 
ATOM      3  N   UNL     1       5.364   4.834  18.477  0.00  0.00    +0.000 NA
ATOM      4  C   UNL     1       6.595   5.077  17.971  0.00  0.00    +0.000 A 
ATOM      5  C   UNL     1       6.602   4.856  16.569  0.00  0.00    +0.000 A 
ATOM      6  C   UNL     1       5.340   4.399  16.257  0.00  0.00    +0.000 A 
ATOM      7  C   UNL     1       4.876   3.998  14.896  0.00  0.00    +0.000 C 
ATOM      8  C   UNL     1       6.087   3.863  13.946  0.00  0.00    +0.000 C 
ATOM      9  C   UNL     1       7.114   4.995  14.139  0.00  0.00    +0.000 C 
ATOM     10  C   UNL     1       7.693   5.005  15.567  0.00  0.00    +0.000 C 
BRANCH   4  11
ATOM     11  C   UNL     1       7.759   5.518  18.816  0.00  0.00    +0.000 C 
ATOM     12  F   UNL     1       8.262   6.730  18.456  0.00  0.00    +0.000 F 
ATOM     13  F   UNL     1       7.424   5.607  20.131  0.00  0.00    +0.000 F 
ATOM     14  F   UNL     1       8.789   4.632  18.739  0.00  0.00    +0.000 F 
ENDBRANCH   4  11
ENDBRANCH   1   2
BRANCH   1  16
ATOM     15  N   UNL     1       2.746   6.404  18.075  0.00  0.00    +0.000 N 
ATOM     16  C   UNL     1       2.356   5.082  18.245  0.00  0.00    +0.000 C 
ATOM     17  O   UNL     1       1.366   4.713  18.882  0.00  0.00    +0.000 OA
ATOM     18  H   UNL     1       3.507   6.573  17.413  0.00  0.00    +0.000 HD
BRANCH  15  23
ATOM     19  C   UNL     1       0.352  11.107  20.361  0.00  0.00    +0.000 C 
ATOM     20  C   UNL     1       0.921   9.838  19.787  0.00  0.00    +0.000 A 
ATOM     21  C   UNL     1       1.084   9.736  18.403  0.00  0.00    +0.000 A 
ATOM     22  C   UNL     1       1.664   8.603  17.831  0.00  0.00    +0.000 A 
ATOM     23  C   UNL     1       2.099   7.539  18.620  0.00  0.00    +0.000 A 
ATOM     24  C   UNL     1       1.881   7.605  20.005  0.00  0.00    +0.000 A 
ATOM     25  C   UNL     1       1.308   8.754  20.600  0.00  0.00    +0.000 A 
ATOM     26  C   UNL     1       1.134   8.823  22.092  0.00  0.00    +0.000 C 
ENDBRANCH  15  23
ENDBRANCH   1  16
TORSDOF 4
ENDMDL
MODEL 6
REMARK VINA RESULT:      -8.2      4.953      6.721
REMARK  Name = 
REMARK  6 active torsions:
REMARK  status: ('A' for Active; 'I' for Inactive)
REMARK    1  A    between atoms: C_1  and  C_2
REMARK    2  A    between atoms: C_5  and  N_6
REMARK    3  A    between atoms: C_7  and  C_9
REMARK    4  A    between atoms: C_9  and  N_10
REMARK    5  A    between atoms: C_12  and  C_13
REMARK    6  A    between atoms: C_24  and  C_25
REMARK                            x       y       z     vdW  Elec       q    Type
REMARK                         _______ _______ _______ _____ _____    ______ ____
ROOT
ATOM      1  C   UNL     1       3.312   3.857  18.226  0.00  0.00    +0.000 C 
ENDROOT
BRANCH   1   2
ATOM      2  N   UNL     1       4.641   4.340  17.907  0.00  0.00    +0.000 N 
ATOM      3  N   UNL     1       5.422   4.791  18.917  0.00  0.00    +0.000 NA
ATOM      4  C   UNL     1       6.603   5.099  18.335  0.00  0.00    +0.000 A 
ATOM      5  C   UNL     1       6.534   4.877  16.936  0.00  0.00    +0.000 A 
ATOM      6  C   UNL     1       5.281   4.352  16.703  0.00  0.00    +0.000 A 
ATOM      7  C   UNL     1       4.753   3.924  15.374  0.00  0.00    +0.000 C 
ATOM      8  C   UNL     1       5.908   3.854  14.348  0.00  0.00    +0.000 C 
ATOM      9  C   UNL     1       6.882   5.039  14.478  0.00  0.00    +0.000 C 
ATOM     10  C   UNL     1       7.550   5.082  15.867  0.00  0.00    +0.000 C 
BRANCH   4  11
ATOM     11  C   UNL     1       7.794   5.603  19.105  0.00  0.00    +0.000 C 
ATOM     12  F   UNL     1       7.570   5.703  20.444  0.00  0.00    +0.000 F 
ATOM     13  F   UNL     1       8.876   4.794  18.949  0.00  0.00    +0.000 F 
ATOM     14  F   UNL     1       8.171   6.839  18.681  0.00  0.00    +0.000 F 
ENDBRANCH   4  11
ENDBRANCH   1   2
BRANCH   1  16
ATOM     15  N   UNL     1       2.828   6.202  18.875  0.00  0.00    +0.000 N 
ATOM     16  C   UNL     1       2.387   4.885  18.851  0.00  0.00    +0.000 C 
ATOM     17  O   UNL     1       1.328   4.484  19.342  0.00  0.00    +0.000 OA
ATOM     18  H   UNL     1       3.655   6.416  18.313  0.00  0.00    +0.000 HD
BRANCH  15  23
ATOM     19  C   UNL     1      -0.112  10.547  21.232  0.00  0.00    +0.000 C 
ATOM     20  C   UNL     1       0.713   9.455  20.607  0.00  0.00    +0.000 A 
ATOM     21  C   UNL     1       1.042   8.334  21.373  0.00  0.00    +0.000 A 
ATOM     22  C   UNL     1       1.753   7.270  20.817  0.00  0.00    +0.000 A 
ATOM     23  C   UNL     1       2.159   7.291  19.484  0.00  0.00    +0.000 A 
ATOM     24  C   UNL     1       1.889   8.440  18.725  0.00  0.00    +0.000 A 
ATOM     25  C   UNL     1       1.156   9.520  19.270  0.00  0.00    +0.000 A 
ATOM     26  C   UNL     1       0.833  10.719  18.420  0.00  0.00    +0.000 C 
ENDBRANCH  15  23
ENDBRANCH   1  16
TORSDOF 4
ENDMDL
MODEL 7
REMARK VINA RESULT:      -8.2      6.782      9.812
REMARK  Name = 
REMARK  6 active torsions:
REMARK  status: ('A' for Active; 'I' for Inactive)
REMARK    1  A    between atoms: C_1  and  C_2
REMARK    2  A    between atoms: C_5  and  N_6
REMARK    3  A    between atoms: C_7  and  C_9
REMARK    4  A    between atoms: C_9  and  N_10
REMARK    5  A    between atoms: C_12  and  C_13
REMARK    6  A    between atoms: C_24  and  C_25
REMARK                            x       y       z     vdW  Elec       q    Type
REMARK                         _______ _______ _______ _____ _____    ______ ____
ROOT
ATOM      1  C   UNL     1       1.973   9.530  18.089  0.00  0.00    +0.000 C 
ENDROOT
BRANCH   1   2
ATOM      2  N   UNL     1       0.625  10.025  18.288  0.00  0.00    +0.000 N 
ATOM      3  N   UNL     1      -0.348   9.604  17.444  0.00  0.00    +0.000 NA
ATOM      4  C   UNL     1      -1.485  10.164  17.915  0.00  0.00    +0.000 A 
ATOM      5  C   UNL     1      -1.202  10.981  19.041  0.00  0.00    +0.000 A 
ATOM      6  C   UNL     1       0.149  10.834  19.277  0.00  0.00    +0.000 A 
ATOM      7  C   UNL     1       0.909  11.480  20.387  0.00  0.00    +0.000 C 
ATOM      8  C   UNL     1      -0.074  12.078  21.419  0.00  0.00    +0.000 C 
ATOM      9  C   UNL     1      -1.269  12.785  20.751  0.00  0.00    +0.000 C 
ATOM     10  C   UNL     1      -2.098  11.814  19.887  0.00  0.00    +0.000 C 
BRANCH   4  11
ATOM     11  C   UNL     1      -2.836   9.925  17.298  0.00  0.00    +0.000 C 
ATOM     12  F   UNL     1      -2.774   9.456  16.022  0.00  0.00    +0.000 F 
ATOM     13  F   UNL     1      -3.566   9.025  18.011  0.00  0.00    +0.000 F 
ATOM     14  F   UNL     1      -3.570  11.070  17.255  0.00  0.00    +0.000 F 
ENDBRANCH   4  11
ENDBRANCH   1   2
BRANCH   1  16
ATOM     15  N   UNL     1       2.720   7.198  17.692  0.00  0.00    +0.000 N 
ATOM     16  C   UNL     1       2.222   8.123  18.600  0.00  0.00    +0.000 C 
ATOM     17  O   UNL     1       1.922   7.874  19.770  0.00  0.00    +0.000 OA
ATOM     18  H   UNL     1       3.053   7.570  16.799  0.00  0.00    +0.000 HD
BRANCH  15  23
ATOM     19  C   UNL     1       3.534   1.557  18.463  0.00  0.00    +0.000 C 
ATOM     20  C   UNL     1       3.298   3.037  18.330  0.00  0.00    +0.000 A 
ATOM     21  C   UNL     1       4.389   3.877  18.092  0.00  0.00    +0.000 A 
ATOM     22  C   UNL     1       4.210   5.247  17.900  0.00  0.00    +0.000 A 
ATOM     23  C   UNL     1       2.940   5.822  17.942  0.00  0.00    +0.000 A 
ATOM     24  C   UNL     1       1.846   4.997  18.244  0.00  0.00    +0.000 A 
ATOM     25  C   UNL     1       2.011   3.603  18.425  0.00  0.00    +0.000 A 
ATOM     26  C   UNL     1       0.815   2.731  18.695  0.00  0.00    +0.000 C 
ENDBRANCH  15  23
ENDBRANCH   1  16
TORSDOF 4
ENDMDL
MODEL 8
REMARK VINA RESULT:      -8.1      0.836      1.313
REMARK  Name = 
REMARK  6 active torsions:
REMARK  status: ('A' for Active; 'I' for Inactive)
REMARK    1  A    between atoms: C_1  and  C_2
REMARK    2  A    between atoms: C_5  and  N_6
REMARK    3  A    between atoms: C_7  and  C_9
REMARK    4  A    between atoms: C_9  and  N_10
REMARK    5  A    between atoms: C_12  and  C_13
REMARK    6  A    between atoms: C_24  and  C_25
REMARK                            x       y       z     vdW  Elec       q    Type
REMARK                         _______ _______ _______ _____ _____    ______ ____
ROOT
ATOM      1  C   UNL     1       7.933   6.774  18.553  0.00  0.00    +0.000 C 
ENDROOT
BRANCH   1   2
ATOM      2  N   UNL     1       7.036   6.025  17.694  0.00  0.00    +0.000 N 
ATOM      3  N   UNL     1       7.377   5.859  16.394  0.00  0.00    +0.000 NA
ATOM      4  C   UNL     1       6.405   5.074  15.876  0.00  0.00    +0.000 A 
ATOM      5  C   UNL     1       5.425   4.790  16.861  0.00  0.00    +0.000 A 
ATOM      6  C   UNL     1       5.881   5.378  18.022  0.00  0.00    +0.000 A 
ATOM      7  C   UNL     1       5.199   5.322  19.348  0.00  0.00    +0.000 C 
ATOM      8  C   UNL     1       4.080   4.256  19.319  0.00  0.00    +0.000 C 
ATOM      9  C   UNL     1       3.275   4.285  18.006  0.00  0.00    +0.000 C 
ATOM     10  C   UNL     1       4.167   3.999  16.782  0.00  0.00    +0.000 C 
BRANCH   4  11
ATOM     11  C   UNL     1       6.407   4.596  14.449  0.00  0.00    +0.000 C 
ATOM     12  F   UNL     1       7.407   5.133  13.699  0.00  0.00    +0.000 F 
ATOM     13  F   UNL     1       6.541   3.244  14.369  0.00  0.00    +0.000 F 
ATOM     14  F   UNL     1       5.241   4.906  13.821  0.00  0.00    +0.000 F 
ENDBRANCH   4  11
ENDBRANCH   1   2
BRANCH   1  16
ATOM     15  N   UNL     1       8.974   8.990  18.952  0.00  0.00    +0.000 N 
ATOM     16  C   UNL     1       8.209   8.198  18.107  0.00  0.00    +0.000 C 
ATOM     17  O   UNL     1       7.697   8.580  17.051  0.00  0.00    +0.000 OA
ATOM     18  H   UNL     1       9.448   8.510  19.722  0.00  0.00    +0.000 HD
BRANCH  15  23
ATOM     19  C   UNL     1      10.028  14.616  18.393  0.00  0.00    +0.000 C 
ATOM     20  C   UNL     1       9.753  13.139  18.467  0.00  0.00    +0.000 A 
ATOM     21  C   UNL     1      10.701  12.304  19.064  0.00  0.00    +0.000 A 
ATOM     22  C   UNL     1      10.461  10.937  19.209  0.00  0.00    +0.000 A 
ATOM     23  C   UNL     1       9.272  10.361  18.764  0.00  0.00    +0.000 A 
ATOM     24  C   UNL     1       8.342  11.181  18.106  0.00  0.00    +0.000 A 
ATOM     25  C   UNL     1       8.565  12.571  17.966  0.00  0.00    +0.000 A 
ATOM     26  C   UNL     1       7.528  13.438  17.304  0.00  0.00    +0.000 C 
ENDBRANCH  15  23
ENDBRANCH   1  16
TORSDOF 4
ENDMDL
MODEL 9
REMARK VINA RESULT:      -8.1      6.175      8.152
REMARK  Name = 
REMARK  6 active torsions:
REMARK  status: ('A' for Active; 'I' for Inactive)
REMARK    1  A    between atoms: C_1  and  C_2
REMARK    2  A    between atoms: C_5  and  N_6
REMARK    3  A    between atoms: C_7  and  C_9
REMARK    4  A    between atoms: C_9  and  N_10
REMARK    5  A    between atoms: C_12  and  C_13
REMARK    6  A    between atoms: C_24  and  C_25
REMARK                            x       y       z     vdW  Elec       q    Type
REMARK                         _______ _______ _______ _____ _____    ______ ____
ROOT
ATOM      1  C   UNL     1       2.981   8.295  17.933  0.00  0.00    +0.000 C 
ENDROOT
BRANCH   1   2
ATOM      2  N   UNL     1       3.058   6.847  17.957  0.00  0.00    +0.000 N 
ATOM      3  N   UNL     1       2.171   6.168  18.724  0.00  0.00    +0.000 NA
ATOM      4  C   UNL     1       2.436   4.862  18.490  0.00  0.00    +0.000 A 
ATOM      5  C   UNL     1       3.533   4.735  17.599  0.00  0.00    +0.000 A 
ATOM      6  C   UNL     1       3.878   6.022  17.246  0.00  0.00    +0.000 A 
ATOM      7  C   UNL     1       4.965   6.398  16.295  0.00  0.00    +0.000 C 
ATOM      8  C   UNL     1       5.440   5.148  15.520  0.00  0.00    +0.000 C 
ATOM      9  C   UNL     1       5.563   3.907  16.425  0.00  0.00    +0.000 C 
ATOM     10  C   UNL     1       4.211   3.525  17.058  0.00  0.00    +0.000 C 
BRANCH   4  11
ATOM     11  C   UNL     1       1.649   3.739  19.110  0.00  0.00    +0.000 C 
ATOM     12  F   UNL     1       0.669   4.165  19.952  0.00  0.00    +0.000 F 
ATOM     13  F   UNL     1       1.046   2.964  18.168  0.00  0.00    +0.000 F 
ATOM     14  F   UNL     1       2.451   2.913  19.834  0.00  0.00    +0.000 F 
ENDBRANCH   4  11
ENDBRANCH   1   2
BRANCH   1  16
ATOM     15  N   UNL     1       0.964   9.730  17.774  0.00  0.00    +0.000 N 
ATOM     16  C   UNL     1       1.731   8.882  18.562  0.00  0.00    +0.000 C 
ATOM     17  O   UNL     1       1.500   8.613  19.743  0.00  0.00    +0.000 OA
ATOM     18  H   UNL     1       1.193   9.757  16.777  0.00  0.00    +0.000 HD
BRANCH  15  23
ATOM     19  C   UNL     1      -3.756  12.430  19.646  0.00  0.00    +0.000 C 
ATOM     20  C   UNL     1      -2.536  11.749  19.090  0.00  0.00    +0.000 A 
ATOM     21  C   UNL     1      -1.275  12.144  19.545  0.00  0.00    +0.000 A 
ATOM     22  C   UNL     1      -0.119  11.499  19.103  0.00  0.00    +0.000 A 
ATOM     23  C   UNL     1      -0.184  10.444  18.194  0.00  0.00    +0.000 A 
ATOM     24  C   UNL     1      -1.440  10.083  17.683  0.00  0.00    +0.000 A 
ATOM     25  C   UNL     1      -2.622  10.717  18.133  0.00  0.00    +0.000 A 
ATOM     26  C   UNL     1      -3.961  10.277  17.610  0.00  0.00    +0.000 C 
ENDBRANCH  15  23
ENDBRANCH   1  16
TORSDOF 4
ENDMDL
