MODEL 1
REMARK VINA RESULT:      -8.2      0.000      0.000
REMARK  Name = 
REMARK  5 active torsions:
REMARK  status: ('A' for Active; 'I' for Inactive)
REMARK    1  A    between atoms: C_1  and  O_2
REMARK    2  A    between atoms: O_2  and  C_3
REMARK    3  A    between atoms: N_13  and  C_14
REMARK    4  A    between atoms: N_17  and  C_18
REMARK    5  A    between atoms: C_22  and  C_23
REMARK                            x       y       z     vdW  Elec       q    Type
REMARK                         _______ _______ _______ _____ _____    ______ ____
ROOT
ATOM      1  C   UNL     1      -0.029  11.366  18.796  0.00  0.00    +0.000 A 
ATOM      2  N   UNL     1       0.607  10.203  18.567  0.00  0.00    +0.000 NA
ATOM      3  C   UNL     1       1.898  10.209  18.222  0.00  0.00    +0.000 A 
ATOM      4  N   UNL     1       2.543   8.995  17.987  0.00  0.00    +0.000 N 
ATOM      5  N   UNL     1       2.617  11.319  18.072  0.00  0.00    +0.000 NA
ATOM      6  C   UNL     1       2.011  12.485  18.310  0.00  0.00    +0.000 A 
ATOM      7  C   UNL     1       2.780  13.641  18.202  0.00  0.00    +0.000 A 
ATOM      8  C   UNL     1       2.257  14.913  18.443  0.00  0.00    +0.000 A 
ATOM      9  C   UNL     1       0.916  15.049  18.742  0.00  0.00    +0.000 A 
ATOM     10  C   UNL     1       0.119  13.909  18.801  0.00  0.00    +0.000 A 
ATOM     11  C   UNL     1       0.657  12.596  18.657  0.00  0.00    +0.000 A 
ATOM     12  H   UNL     1       3.486   9.150  17.664  0.00  0.00    +0.000 HD
ENDROOT
BRANCH   1  23
ATOM     13  C   UNL     1      -3.234  12.894  22.591  0.00  0.00    +0.000 A 
ATOM     14  C   UNL     1      -2.019  12.216  22.716  0.00  0.00    +0.000 A 
ATOM     15  C   UNL     1      -1.433  11.594  21.611  0.00  0.00    +0.000 A 
ATOM     16  C   UNL     1      -2.038  11.676  20.353  0.00  0.00    +0.000 A 
ATOM     17  C   UNL     1      -3.300  12.293  20.257  0.00  0.00    +0.000 A 
ATOM     18  C   UNL     1      -3.885  12.919  21.358  0.00  0.00    +0.000 A 
ATOM     19  N   UNL     1      -3.950  12.335  19.017  0.00  0.00    +0.000 N 
ATOM     20  C   UNL     1      -3.507  11.619  17.931  0.00  0.00    +0.000 C 
ATOM     21  O   UNL     1      -4.118  11.667  16.865  0.00  0.00    +0.000 OA
ATOM     22  C   UNL     1      -2.307  10.699  18.169  0.00  0.00    +0.000 C 
ATOM     23  N   UNL     1      -1.382  11.260  19.176  0.00  0.00    +0.000 N 
ATOM     24  H   UNL     1      -4.796  12.873  18.886  0.00  0.00    +0.000 HD
BRANCH  13  26
ATOM     25  C   UNL     1      -4.260  12.653  24.719  0.00  0.00    +0.000 C 
ATOM     26  O   UNL     1      -3.672  13.498  23.738  0.00  0.00    +0.000 OA
ENDBRANCH  13  26
ENDBRANCH   1  23
BRANCH   4  27
ATOM     27  C   UNL     1       2.279   7.750  18.577  0.00  0.00    +0.000 A 
ATOM     28  C   UNL     1       2.012   7.680  19.949  0.00  0.00    +0.000 A 
ATOM     29  C   UNL     1       1.835   6.445  20.580  0.00  0.00    +0.000 A 
ATOM     30  C   UNL     1       1.910   5.263  19.843  0.00  0.00    +0.000 A 
ATOM     31  C   UNL     1       2.156   5.316  18.470  0.00  0.00    +0.000 A 
ATOM     32  C   UNL     1       2.340   6.554  17.848  0.00  0.00    +0.000 A 
BRANCH  31  33
ATOM     33  C   UNL     1       2.235   4.113  17.696  0.00  0.00    +0.000 C 
ATOM     34  N   UNL     1       2.297   3.137  17.071  0.00  0.00    +0.000 NA
ENDBRANCH  31  33
ENDBRANCH   4  27
TORSDOF 4
ENDMDL
MODEL 2
REMARK VINA RESULT:      -7.9      2.360      4.942
REMARK  Name = 
REMARK  5 active torsions:
REMARK  status: ('A' for Active; 'I' for Inactive)
REMARK    1  A    between atoms: C_1  and  O_2
REMARK    2  A    between atoms: O_2  and  C_3
REMARK    3  A    between atoms: N_13  and  C_14
REMARK    4  A    between atoms: N_17  and  C_18
REMARK    5  A    between atoms: C_22  and  C_23
REMARK                            x       y       z     vdW  Elec       q    Type
REMARK                         _______ _______ _______ _____ _____    ______ ____
ROOT
ATOM      1  C   UNL     1       0.374  10.077  19.902  0.00  0.00    +0.000 A 
ATOM      2  N   UNL     1       1.191   9.015  19.782  0.00  0.00    +0.000 NA
ATOM      3  C   UNL     1       1.417   8.228  20.838  0.00  0.00    +0.000 A 
ATOM      4  N   UNL     1       2.266   7.131  20.698  0.00  0.00    +0.000 N 
ATOM      5  N   UNL     1       0.885   8.435  22.041  0.00  0.00    +0.000 NA
ATOM      6  C   UNL     1       0.058   9.475  22.180  0.00  0.00    +0.000 A 
ATOM      7  C   UNL     1      -0.536   9.659  23.426  0.00  0.00    +0.000 A 
ATOM      8  C   UNL     1      -1.429  10.702  23.684  0.00  0.00    +0.000 A 
ATOM      9  C   UNL     1      -1.695  11.626  22.692  0.00  0.00    +0.000 A 
ATOM     10  C   UNL     1      -1.068  11.489  21.457  0.00  0.00    +0.000 A 
ATOM     11  C   UNL     1      -0.233  10.376  21.146  0.00  0.00    +0.000 A 
ATOM     12  H   UNL     1       2.405   6.672  21.586  0.00  0.00    +0.000 HD
ENDROOT
BRANCH   1  23
ATOM     13  C   UNL     1      -3.019  10.572  15.997  0.00  0.00    +0.000 A 
ATOM     14  C   UNL     1      -2.385   9.409  16.439  0.00  0.00    +0.000 A 
ATOM     15  C   UNL     1      -1.269   9.480  17.277  0.00  0.00    +0.000 A 
ATOM     16  C   UNL     1      -0.796  10.720  17.718  0.00  0.00    +0.000 A 
ATOM     17  C   UNL     1      -1.395  11.885  17.202  0.00  0.00    +0.000 A 
ATOM     18  C   UNL     1      -2.511  11.817  16.368  0.00  0.00    +0.000 A 
ATOM     19  N   UNL     1      -0.898  13.138  17.584  0.00  0.00    +0.000 N 
ATOM     20  C   UNL     1       0.279  13.280  18.278  0.00  0.00    +0.000 C 
ATOM     21  O   UNL     1       0.692  14.400  18.578  0.00  0.00    +0.000 OA
ATOM     22  C   UNL     1       1.071  11.997  18.541  0.00  0.00    +0.000 C 
ATOM     23  N   UNL     1       0.178  10.835  18.731  0.00  0.00    +0.000 N 
ATOM     24  H   UNL     1      -1.376  13.991  17.331  0.00  0.00    +0.000 HD
BRANCH  13  26
ATOM     25  C   UNL     1      -3.896   9.972  13.874  0.00  0.00    +0.000 C 
ATOM     26  O   UNL     1      -4.126  10.360  15.222  0.00  0.00    +0.000 OA
ENDBRANCH  13  26
ENDBRANCH   1  23
BRANCH   4  27
ATOM     27  C   UNL     1       2.491   6.356  19.550  0.00  0.00    +0.000 A 
ATOM     28  C   UNL     1       1.781   5.164  19.374  0.00  0.00    +0.000 A 
ATOM     29  C   UNL     1       2.049   4.327  18.286  0.00  0.00    +0.000 A 
ATOM     30  C   UNL     1       3.024   4.680  17.353  0.00  0.00    +0.000 A 
ATOM     31  C   UNL     1       3.729   5.875  17.504  0.00  0.00    +0.000 A 
ATOM     32  C   UNL     1       3.460   6.702  18.598  0.00  0.00    +0.000 A 
BRANCH  31  33
ATOM     33  C   UNL     1       4.732   6.255  16.555  0.00  0.00    +0.000 C 
ATOM     34  N   UNL     1       5.546   6.561  15.786  0.00  0.00    +0.000 NA
ENDBRANCH  31  33
ENDBRANCH   4  27
TORSDOF 4
ENDMDL
MODEL 3
REMARK VINA RESULT:      -7.7      2.962      7.767
REMARK  Name = 
REMARK  5 active torsions:
REMARK  status: ('A' for Active; 'I' for Inactive)
REMARK    1  A    between atoms: C_1  and  O_2
REMARK    2  A    between atoms: O_2  and  C_3
REMARK    3  A    between atoms: N_13  and  C_14
REMARK    4  A    between atoms: N_17  and  C_18
REMARK    5  A    between atoms: C_22  and  C_23
REMARK                            x       y       z     vdW  Elec       q    Type
REMARK                         _______ _______ _______ _____ _____    ______ ____
ROOT
ATOM      1  C   UNL     1      -0.450  11.997  20.344  0.00  0.00    +0.000 A 
ATOM      2  N   UNL     1      -1.698  12.426  20.607  0.00  0.00    +0.000 NA
ATOM      3  C   UNL     1      -2.038  13.688  20.331  0.00  0.00    +0.000 A 
ATOM      4  N   UNL     1      -3.334  14.118  20.610  0.00  0.00    +0.000 N 
ATOM      5  N   UNL     1      -1.200  14.582  19.809  0.00  0.00    +0.000 NA
ATOM      6  C   UNL     1       0.040  14.174  19.525  0.00  0.00    +0.000 A 
ATOM      7  C   UNL     1       0.899  15.097  18.934  0.00  0.00    +0.000 A 
ATOM      8  C   UNL     1       2.211  14.778  18.578  0.00  0.00    +0.000 A 
ATOM      9  C   UNL     1       2.707  13.523  18.873  0.00  0.00    +0.000 A 
ATOM     10  C   UNL     1       1.881  12.605  19.513  0.00  0.00    +0.000 A 
ATOM     11  C   UNL     1       0.509  12.880  19.793  0.00  0.00    +0.000 A 
ATOM     12  H   UNL     1      -3.431  15.105  20.422  0.00  0.00    +0.000 HD
ENDROOT
BRANCH   1  23
ATOM     13  C   UNL     1       2.243   7.947  18.511  0.00  0.00    +0.000 A 
ATOM     14  C   UNL     1       1.323   8.745  17.828  0.00  0.00    +0.000 A 
ATOM     15  C   UNL     1       0.448   9.582  18.525  0.00  0.00    +0.000 A 
ATOM     16  C   UNL     1       0.511   9.662  19.920  0.00  0.00    +0.000 A 
ATOM     17  C   UNL     1       1.387   8.795  20.600  0.00  0.00    +0.000 A 
ATOM     18  C   UNL     1       2.265   7.962  19.906  0.00  0.00    +0.000 A 
ATOM     19  N   UNL     1       1.424   8.818  22.001  0.00  0.00    +0.000 N 
ATOM     20  C   UNL     1       0.494   9.500  22.748  0.00  0.00    +0.000 C 
ATOM     21  O   UNL     1       0.549   9.478  23.977  0.00  0.00    +0.000 OA
ATOM     22  C   UNL     1      -0.642  10.169  21.971  0.00  0.00    +0.000 C 
ATOM     23  N   UNL     1      -0.190  10.646  20.648  0.00  0.00    +0.000 N 
ATOM     24  H   UNL     1       2.123   8.300  22.515  0.00  0.00    +0.000 HD
BRANCH  13  26
ATOM     25  C   UNL     1       3.108   5.810  17.942  0.00  0.00    +0.000 C 
ATOM     26  O   UNL     1       3.071   7.213  17.708  0.00  0.00    +0.000 OA
ENDBRANCH  13  26
ENDBRANCH   1  23
BRANCH   4  27
ATOM     27  C   UNL     1      -4.515  13.361  20.598  0.00  0.00    +0.000 A 
ATOM     28  C   UNL     1      -4.975  12.821  19.392  0.00  0.00    +0.000 A 
ATOM     29  C   UNL     1      -6.195  12.138  19.334  0.00  0.00    +0.000 A 
ATOM     30  C   UNL     1      -6.964  11.978  20.487  0.00  0.00    +0.000 A 
ATOM     31  C   UNL     1      -6.510  12.494  21.702  0.00  0.00    +0.000 A 
ATOM     32  C   UNL     1      -5.295  13.181  21.749  0.00  0.00    +0.000 A 
BRANCH  31  33
ATOM     33  C   UNL     1      -7.285  12.336  22.896  0.00  0.00    +0.000 C 
ATOM     34  N   UNL     1      -7.915  12.208  23.862  0.00  0.00    +0.000 NA
ENDBRANCH  31  33
ENDBRANCH   4  27
TORSDOF 4
ENDMDL
MODEL 4
REMARK VINA RESULT:      -7.7      2.217      4.863
REMARK  Name = 
REMARK  5 active torsions:
REMARK  status: ('A' for Active; 'I' for Inactive)
REMARK    1  A    between atoms: C_1  and  O_2
REMARK    2  A    between atoms: O_2  and  C_3
REMARK    3  A    between atoms: N_13  and  C_14
REMARK    4  A    between atoms: N_17  and  C_18
REMARK    5  A    between atoms: C_22  and  C_23
REMARK                            x       y       z     vdW  Elec       q    Type
REMARK                         _______ _______ _______ _____ _____    ______ ____
ROOT
ATOM      1  C   UNL     1       0.177  10.203  20.027  0.00  0.00    +0.000 A 
ATOM      2  N   UNL     1       0.960   9.109  20.005  0.00  0.00    +0.000 NA
ATOM      3  C   UNL     1       1.117   8.382  21.115  0.00  0.00    +0.000 A 
ATOM      4  N   UNL     1       1.933   7.252  21.077  0.00  0.00    +0.000 N 
ATOM      5  N   UNL     1       0.546   8.681  22.280  0.00  0.00    +0.000 NA
ATOM      6  C   UNL     1      -0.249   9.754  22.322  0.00  0.00    +0.000 A 
ATOM      7  C   UNL     1      -0.885  10.034  23.528  0.00  0.00    +0.000 A 
ATOM      8  C   UNL     1      -1.751  11.118  23.685  0.00  0.00    +0.000 A 
ATOM      9  C   UNL     1      -1.946  11.987  22.629  0.00  0.00    +0.000 A 
ATOM     10  C   UNL     1      -1.276  11.754  21.432  0.00  0.00    +0.000 A 
ATOM     11  C   UNL     1      -0.468  10.598  21.223  0.00  0.00    +0.000 A 
ATOM     12  H   UNL     1       2.021   6.845  21.996  0.00  0.00    +0.000 HD
ENDROOT
BRANCH   1  23
ATOM     13  C   UNL     1      -3.041  10.563  15.961  0.00  0.00    +0.000 A 
ATOM     14  C   UNL     1      -2.465   9.409  16.499  0.00  0.00    +0.000 A 
ATOM     15  C   UNL     1      -1.382   9.496  17.377  0.00  0.00    +0.000 A 
ATOM     16  C   UNL     1      -0.883  10.746  17.760  0.00  0.00    +0.000 A 
ATOM     17  C   UNL     1      -1.421  11.896  17.150  0.00  0.00    +0.000 A 
ATOM     18  C   UNL     1      -2.506  11.811  16.277  0.00  0.00    +0.000 A 
ATOM     19  N   UNL     1      -0.897  13.153  17.476  0.00  0.00    +0.000 N 
ATOM     20  C   UNL     1       0.256  13.300  18.209  0.00  0.00    +0.000 C 
ATOM     21  O   UNL     1       0.695  14.422  18.457  0.00  0.00    +0.000 OA
ATOM     22  C   UNL     1       0.993  12.011  18.581  0.00  0.00    +0.000 C 
ATOM     23  N   UNL     1       0.053  10.893  18.804  0.00  0.00    +0.000 N 
ATOM     24  H   UNL     1      -1.335  14.004  17.152  0.00  0.00    +0.000 HD
BRANCH  13  26
ATOM     25  C   UNL     1      -3.851   9.944  13.817  0.00  0.00    +0.000 C 
ATOM     26  O   UNL     1      -4.123  10.339  15.155  0.00  0.00    +0.000 OA
ENDBRANCH  13  26
ENDBRANCH   1  23
BRANCH   4  27
ATOM     27  C   UNL     1       2.176   6.401  19.989  0.00  0.00    +0.000 A 
ATOM     28  C   UNL     1       3.029   6.820  18.963  0.00  0.00    +0.000 A 
ATOM     29  C   UNL     1       3.218   6.031  17.823  0.00  0.00    +0.000 A 
ATOM     30  C   UNL     1       2.564   4.804  17.703  0.00  0.00    +0.000 A 
ATOM     31  C   UNL     1       1.725   4.362  18.727  0.00  0.00    +0.000 A 
ATOM     32  C   UNL     1       1.535   5.161  19.858  0.00  0.00    +0.000 A 
BRANCH  31  33
ATOM     33  C   UNL     1       1.047   3.105  18.623  0.00  0.00    +0.000 C 
ATOM     34  N   UNL     1       0.496   2.087  18.536  0.00  0.00    +0.000 NA
ENDBRANCH  31  33
ENDBRANCH   4  27
TORSDOF 4
ENDMDL
MODEL 5
REMARK VINA RESULT:      -7.4      7.562     10.080
REMARK  Name = 
REMARK  5 active torsions:
REMARK  status: ('A' for Active; 'I' for Inactive)
REMARK    1  A    between atoms: C_1  and  O_2
REMARK    2  A    between atoms: O_2  and  C_3
REMARK    3  A    between atoms: N_13  and  C_14
REMARK    4  A    between atoms: N_17  and  C_18
REMARK    5  A    between atoms: C_22  and  C_23
REMARK                            x       y       z     vdW  Elec       q    Type
REMARK                         _______ _______ _______ _____ _____    ______ ____
ROOT
ATOM      1  C   UNL     1       8.557  13.810  20.337  0.00  0.00    +0.000 A 
ATOM      2  N   UNL     1       8.191  13.140  21.445  0.00  0.00    +0.000 NA
ATOM      3  C   UNL     1       8.755  11.961  21.724  0.00  0.00    +0.000 A 
ATOM      4  N   UNL     1       8.365  11.278  22.876  0.00  0.00    +0.000 N 
ATOM      5  N   UNL     1       9.672  11.380  20.953  0.00  0.00    +0.000 NA
ATOM      6  C   UNL     1      10.062  12.034  19.856  0.00  0.00    +0.000 A 
ATOM      7  C   UNL     1      11.057  11.447  19.080  0.00  0.00    +0.000 A 
ATOM      8  C   UNL     1      11.555  12.046  17.921  0.00  0.00    +0.000 A 
ATOM      9  C   UNL     1      11.007  13.237  17.486  0.00  0.00    +0.000 A 
ATOM     10  C   UNL     1       9.974  13.812  18.219  0.00  0.00    +0.000 A 
ATOM     11  C   UNL     1       9.523  13.265  19.457  0.00  0.00    +0.000 A 
ATOM     12  H   UNL     1       8.813  10.375  22.923  0.00  0.00    +0.000 HD
ENDROOT
BRANCH   1  23
ATOM     13  C   UNL     1       4.162  15.781  18.385  0.00  0.00    +0.000 A 
ATOM     14  C   UNL     1       5.061  14.912  17.764  0.00  0.00    +0.000 A 
ATOM     15  C   UNL     1       6.345  14.724  18.282  0.00  0.00    +0.000 A 
ATOM     16  C   UNL     1       6.733  15.377  19.457  0.00  0.00    +0.000 A 
ATOM     17  C   UNL     1       5.846  16.310  20.027  0.00  0.00    +0.000 A 
ATOM     18  C   UNL     1       4.562  16.495  19.514  0.00  0.00    +0.000 A 
ATOM     19  N   UNL     1       6.238  17.018  21.171  0.00  0.00    +0.000 N 
ATOM     20  C   UNL     1       7.529  16.996  21.641  0.00  0.00    +0.000 C 
ATOM     21  O   UNL     1       7.838  17.648  22.637  0.00  0.00    +0.000 OA
ATOM     22  C   UNL     1       8.545  16.221  20.798  0.00  0.00    +0.000 C 
ATOM     23  N   UNL     1       7.926  15.054  20.136  0.00  0.00    +0.000 N 
ATOM     24  H   UNL     1       5.586  17.603  21.675  0.00  0.00    +0.000 HD
BRANCH  13  26
ATOM     25  C   UNL     1       1.855  16.293  18.621  0.00  0.00    +0.000 C 
ATOM     26  O   UNL     1       2.925  15.835  17.803  0.00  0.00    +0.000 OA
ENDBRANCH  13  26
ENDBRANCH   1  23
BRANCH   4  27
ATOM     27  C   UNL     1       7.919  11.821  24.090  0.00  0.00    +0.000 A 
ATOM     28  C   UNL     1       8.727  12.734  24.775  0.00  0.00    +0.000 A 
ATOM     29  C   UNL     1       8.349  13.222  26.030  0.00  0.00    +0.000 A 
ATOM     30  C   UNL     1       7.150  12.809  26.611  0.00  0.00    +0.000 A 
ATOM     31  C   UNL     1       6.322  11.913  25.932  0.00  0.00    +0.000 A 
ATOM     32  C   UNL     1       6.711  11.424  24.682  0.00  0.00    +0.000 A 
BRANCH  31  33
ATOM     33  C   UNL     1       5.086  11.480  26.511  0.00  0.00    +0.000 C 
ATOM     34  N   UNL     1       4.082  11.130  26.978  0.00  0.00    +0.000 NA
ENDBRANCH  31  33
ENDBRANCH   4  27
TORSDOF 4
ENDMDL
MODEL 6
REMARK VINA RESULT:      -7.4      3.325      7.595
REMARK  Name = 
REMARK  5 active torsions:
REMARK  status: ('A' for Active; 'I' for Inactive)
REMARK    1  A    between atoms: C_1  and  O_2
REMARK    2  A    between atoms: O_2  and  C_3
REMARK    3  A    between atoms: N_13  and  C_14
REMARK    4  A    between atoms: N_17  and  C_18
REMARK    5  A    between atoms: C_22  and  C_23
REMARK                            x       y       z     vdW  Elec       q    Type
REMARK                         _______ _______ _______ _____ _____    ______ ____
ROOT
ATOM      1  C   UNL     1      -1.814  12.981  20.224  0.00  0.00    +0.000 A 
ATOM      2  N   UNL     1      -2.792  13.140  21.133  0.00  0.00    +0.000 NA
ATOM      3  C   UNL     1      -2.946  14.318  21.744  0.00  0.00    +0.000 A 
ATOM      4  N   UNL     1      -3.964  14.467  22.685  0.00  0.00    +0.000 N 
ATOM      5  N   UNL     1      -2.168  15.374  21.518  0.00  0.00    +0.000 NA
ATOM      6  C   UNL     1      -1.199  15.245  20.607  0.00  0.00    +0.000 A 
ATOM      7  C   UNL     1      -0.420  16.366  20.337  0.00  0.00    +0.000 A 
ATOM      8  C   UNL     1       0.610  16.353  19.393  0.00  0.00    +0.000 A 
ATOM      9  C   UNL     1       0.915  15.175  18.740  0.00  0.00    +0.000 A 
ATOM     10  C   UNL     1       0.182  14.030  19.037  0.00  0.00    +0.000 A 
ATOM     11  C   UNL     1      -0.936  14.049  19.923  0.00  0.00    +0.000 A 
ATOM     12  H   UNL     1      -3.918  15.377  23.119  0.00  0.00    +0.000 HD
ENDROOT
BRANCH   1  23
ATOM     13  C   UNL     1      -3.510  10.487  15.991  0.00  0.00    +0.000 A 
ATOM     14  C   UNL     1      -4.264  11.197  16.928  0.00  0.00    +0.000 A 
ATOM     15  C   UNL     1      -3.723  11.536  18.170  0.00  0.00    +0.000 A 
ATOM     16  C   UNL     1      -2.400  11.203  18.477  0.00  0.00    +0.000 A 
ATOM     17  C   UNL     1      -1.677  10.420  17.557  0.00  0.00    +0.000 A 
ATOM     18  C   UNL     1      -2.214  10.083  16.314  0.00  0.00    +0.000 A 
ATOM     19  N   UNL     1      -0.370  10.025  17.870  0.00  0.00    +0.000 N 
ATOM     20  C   UNL     1       0.166  10.193  19.124  0.00  0.00    +0.000 C 
ATOM     21  O   UNL     1       1.312   9.814  19.364  0.00  0.00    +0.000 OA
ATOM     22  C   UNL     1      -0.771  10.758  20.193  0.00  0.00    +0.000 C 
ATOM     23  N   UNL     1      -1.742  11.711  19.616  0.00  0.00    +0.000 N 
ATOM     24  H   UNL     1       0.218   9.568  17.187  0.00  0.00    +0.000 HD
BRANCH  13  26
ATOM     25  C   UNL     1      -3.313   9.957  13.685  0.00  0.00    +0.000 C 
ATOM     26  O   UNL     1      -4.142  10.263  14.799  0.00  0.00    +0.000 OA
ENDBRANCH  13  26
ENDBRANCH   1  23
BRANCH   4  27
ATOM     27  C   UNL     1      -5.208  13.819  22.720  0.00  0.00    +0.000 A 
ATOM     28  C   UNL     1      -6.039  13.981  23.833  0.00  0.00    +0.000 A 
ATOM     29  C   UNL     1      -7.243  13.276  23.935  0.00  0.00    +0.000 A 
ATOM     30  C   UNL     1      -7.636  12.409  22.915  0.00  0.00    +0.000 A 
ATOM     31  C   UNL     1      -6.828  12.251  21.789  0.00  0.00    +0.000 A 
ATOM     32  C   UNL     1      -5.623  12.952  21.699  0.00  0.00    +0.000 A 
BRANCH  31  33
ATOM     33  C   UNL     1      -7.216  11.367  20.731  0.00  0.00    +0.000 C 
ATOM     34  N   UNL     1      -7.529  10.651  19.872  0.00  0.00    +0.000 NA
ENDBRANCH  31  33
ENDBRANCH   4  27
TORSDOF 4
ENDMDL
MODEL 7
REMARK VINA RESULT:      -7.3      2.960      7.454
REMARK  Name = 
REMARK  5 active torsions:
REMARK  status: ('A' for Active; 'I' for Inactive)
REMARK    1  A    between atoms: C_1  and  O_2
REMARK    2  A    between atoms: O_2  and  C_3
REMARK    3  A    between atoms: N_13  and  C_14
REMARK    4  A    between atoms: N_17  and  C_18
REMARK    5  A    between atoms: C_22  and  C_23
REMARK                            x       y       z     vdW  Elec       q    Type
REMARK                         _______ _______ _______ _____ _____    ______ ____
ROOT
ATOM      1  C   UNL     1      -0.321  12.155  20.405  0.00  0.00    +0.000 A 
ATOM      2  N   UNL     1      -1.498  12.671  20.805  0.00  0.00    +0.000 NA
ATOM      3  C   UNL     1      -1.769  13.960  20.576  0.00  0.00    +0.000 A 
ATOM      4  N   UNL     1      -2.992  14.481  20.997  0.00  0.00    +0.000 N 
ATOM      5  N   UNL     1      -0.926  14.796  19.974  0.00  0.00    +0.000 NA
ATOM      6  C   UNL     1       0.242  14.302  19.554  0.00  0.00    +0.000 A 
ATOM      7  C   UNL     1       1.099  15.168  18.881  0.00  0.00    +0.000 A 
ATOM      8  C   UNL     1       2.338  14.758  18.383  0.00  0.00    +0.000 A 
ATOM      9  C   UNL     1       2.766  13.465  18.612  0.00  0.00    +0.000 A 
ATOM     10  C   UNL     1       1.946  12.601  19.331  0.00  0.00    +0.000 A 
ATOM     11  C   UNL     1       0.637  12.972  19.760  0.00  0.00    +0.000 A 
ATOM     12  H   UNL     1      -3.033  15.475  20.829  0.00  0.00    +0.000 HD
ENDROOT
BRANCH   1  23
ATOM     13  C   UNL     1       2.185   8.033  18.472  0.00  0.00    +0.000 A 
ATOM     14  C   UNL     1       1.314   8.897  17.804  0.00  0.00    +0.000 A 
ATOM     15  C   UNL     1       0.475   9.755  18.519  0.00  0.00    +0.000 A 
ATOM     16  C   UNL     1       0.525   9.788  19.917  0.00  0.00    +0.000 A 
ATOM     17  C   UNL     1       1.350   8.858  20.578  0.00  0.00    +0.000 A 
ATOM     18  C   UNL     1       2.192   8.003  19.866  0.00  0.00    +0.000 A 
ATOM     19  N   UNL     1       1.372   8.835  21.978  0.00  0.00    +0.000 N 
ATOM     20  C   UNL     1       0.469   9.540  22.738  0.00  0.00    +0.000 C 
ATOM     21  O   UNL     1       0.509   9.477  23.966  0.00  0.00    +0.000 OA
ATOM     22  C   UNL     1      -0.624  10.289  21.972  0.00  0.00    +0.000 C 
ATOM     23  N   UNL     1      -0.133  10.783  20.668  0.00  0.00    +0.000 N 
ATOM     24  H   UNL     1       2.037   8.267  22.483  0.00  0.00    +0.000 HD
BRANCH  13  26
ATOM     25  C   UNL     1       3.200   5.930  18.038  0.00  0.00    +0.000 C 
ATOM     26  O   UNL     1       2.984   7.282  17.653  0.00  0.00    +0.000 OA
ENDBRANCH  13  26
ENDBRANCH   1  23
BRANCH   4  27
ATOM     27  C   UNL     1      -4.221  13.813  21.108  0.00  0.00    +0.000 A 
ATOM     28  C   UNL     1      -4.921  13.855  22.318  0.00  0.00    +0.000 A 
ATOM     29  C   UNL     1      -6.103  13.126  22.485  0.00  0.00    +0.000 A 
ATOM     30  C   UNL     1      -6.605  12.354  21.437  0.00  0.00    +0.000 A 
ATOM     31  C   UNL     1      -5.929  12.317  20.217  0.00  0.00    +0.000 A 
ATOM     32  C   UNL     1      -4.744  13.042  20.061  0.00  0.00    +0.000 A 
BRANCH  31  33
ATOM     33  C   UNL     1      -6.430  11.532  19.128  0.00  0.00    +0.000 C 
ATOM     34  N   UNL     1      -6.838  10.898  18.245  0.00  0.00    +0.000 NA
ENDBRANCH  31  33
ENDBRANCH   4  27
TORSDOF 4
ENDMDL
MODEL 8
REMARK VINA RESULT:      -7.3      3.855      8.262
REMARK  Name = 
REMARK  5 active torsions:
REMARK  status: ('A' for Active; 'I' for Inactive)
REMARK    1  A    between atoms: C_1  and  O_2
REMARK    2  A    between atoms: O_2  and  C_3
REMARK    3  A    between atoms: N_13  and  C_14
REMARK    4  A    between atoms: N_17  and  C_18
REMARK    5  A    between atoms: C_22  and  C_23
REMARK                            x       y       z     vdW  Elec       q    Type
REMARK                         _______ _______ _______ _____ _____    ______ ____
ROOT
ATOM      1  C   UNL     1      -2.218  13.753  20.850  0.00  0.00    +0.000 A 
ATOM      2  N   UNL     1      -1.974  14.924  20.234  0.00  0.00    +0.000 NA
ATOM      3  C   UNL     1      -2.286  16.072  20.842  0.00  0.00    +0.000 A 
ATOM      4  N   UNL     1      -2.029  17.277  20.190  0.00  0.00    +0.000 N 
ATOM      5  N   UNL     1      -2.848  16.140  22.047  0.00  0.00    +0.000 NA
ATOM      6  C   UNL     1      -3.084  14.991  22.686  0.00  0.00    +0.000 A 
ATOM      7  C   UNL     1      -3.626  15.069  23.966  0.00  0.00    +0.000 A 
ATOM      8  C   UNL     1      -3.900  13.935  24.733  0.00  0.00    +0.000 A 
ATOM      9  C   UNL     1      -3.685  12.682  24.192  0.00  0.00    +0.000 A 
ATOM     10  C   UNL     1      -3.196  12.584  22.893  0.00  0.00    +0.000 A 
ATOM     11  C   UNL     1      -2.817  13.730  22.133  0.00  0.00    +0.000 A 
ATOM     12  H   UNL     1      -2.379  18.055  20.728  0.00  0.00    +0.000 HD
ENDROOT
BRANCH   1  23
ATOM     13  C   UNL     1      -3.554  11.046  16.620  0.00  0.00    +0.000 A 
ATOM     14  C   UNL     1      -4.376  11.446  17.676  0.00  0.00    +0.000 A 
ATOM     15  C   UNL     1      -3.824  11.882  18.883  0.00  0.00    +0.000 A 
ATOM     16  C   UNL     1      -2.435  11.960  19.036  0.00  0.00    +0.000 A 
ATOM     17  C   UNL     1      -1.620  11.479  17.994  0.00  0.00    +0.000 A 
ATOM     18  C   UNL     1      -2.169  11.048  16.785  0.00  0.00    +0.000 A 
ATOM     19  N   UNL     1      -0.228  11.493  18.149  0.00  0.00    +0.000 N 
ATOM     20  C   UNL     1       0.372  11.763  19.356  0.00  0.00    +0.000 C 
ATOM     21  O   UNL     1       1.599  11.746  19.455  0.00  0.00    +0.000 OA
ATOM     22  C   UNL     1      -0.563  11.965  20.550  0.00  0.00    +0.000 C 
ATOM     23  N   UNL     1      -1.836  12.596  20.143  0.00  0.00    +0.000 N 
ATOM     24  H   UNL     1       0.388  11.271  17.380  0.00  0.00    +0.000 HD
BRANCH  13  26
ATOM     25  C   UNL     1      -3.438  10.136  14.430  0.00  0.00    +0.000 C 
ATOM     26  O   UNL     1      -4.221  10.690  15.480  0.00  0.00    +0.000 OA
ENDBRANCH  13  26
ENDBRANCH   1  23
BRANCH   4  27
ATOM     27  C   UNL     1      -1.004  17.560  19.273  0.00  0.00    +0.000 A 
ATOM     28  C   UNL     1      -1.332  18.037  18.000  0.00  0.00    +0.000 A 
ATOM     29  C   UNL     1      -0.339  18.242  17.037  0.00  0.00    +0.000 A 
ATOM     30  C   UNL     1       0.998  17.982  17.341  0.00  0.00    +0.000 A 
ATOM     31  C   UNL     1       1.343  17.523  18.613  0.00  0.00    +0.000 A 
ATOM     32  C   UNL     1       0.344  17.314  19.567  0.00  0.00    +0.000 A 
BRANCH  31  33
ATOM     33  C   UNL     1       2.710  17.253  18.944  0.00  0.00    +0.000 C 
ATOM     34  N   UNL     1       3.819  17.035  19.210  0.00  0.00    +0.000 NA
ENDBRANCH  31  33
ENDBRANCH   4  27
TORSDOF 4
ENDMDL
MODEL 9
REMARK VINA RESULT:      -7.2      3.072      6.969
REMARK  Name = 
REMARK  5 active torsions:
REMARK  status: ('A' for Active; 'I' for Inactive)
REMARK    1  A    between atoms: C_1  and  O_2
REMARK    2  A    between atoms: O_2  and  C_3
REMARK    3  A    between atoms: N_13  and  C_14
REMARK    4  A    between atoms: N_17  and  C_18
REMARK    5  A    between atoms: C_22  and  C_23
REMARK                            x       y       z     vdW  Elec       q    Type
REMARK                         _______ _______ _______ _____ _____    ______ ____
ROOT
ATOM      1  C   UNL     1      -1.230  11.901  19.062  0.00  0.00    +0.000 A 
ATOM      2  N   UNL     1      -2.454  11.845  18.505  0.00  0.00    +0.000 NA
ATOM      3  C   UNL     1      -2.737  10.884  17.620  0.00  0.00    +0.000 A 
ATOM      4  N   UNL     1      -4.008  10.840  17.051  0.00  0.00    +0.000 N 
ATOM      5  N   UNL     1      -1.863   9.959  17.230  0.00  0.00    +0.000 NA
ATOM      6  C   UNL     1      -0.647   9.985  17.782  0.00  0.00    +0.000 A 
ATOM      7  C   UNL     1       0.248   8.985  17.410  0.00  0.00    +0.000 A 
ATOM      8  C   UNL     1       1.540   8.903  17.933  0.00  0.00    +0.000 A 
ATOM      9  C   UNL     1       1.979   9.877  18.808  0.00  0.00    +0.000 A 
ATOM     10  C   UNL     1       1.117  10.915  19.150  0.00  0.00    +0.000 A 
ATOM     11  C   UNL     1      -0.236  10.959  18.704  0.00  0.00    +0.000 A 
ATOM     12  H   UNL     1      -4.060  10.116  16.350  0.00  0.00    +0.000 HD
ENDROOT
BRANCH   1  23
ATOM     13  C   UNL     1      -0.964  17.087  19.287  0.00  0.00    +0.000 A 
ATOM     14  C   UNL     1      -0.243  16.227  18.455  0.00  0.00    +0.000 A 
ATOM     15  C   UNL     1      -0.183  14.857  18.726  0.00  0.00    +0.000 A 
ATOM     16  C   UNL     1      -0.879  14.323  19.815  0.00  0.00    +0.000 A 
ATOM     17  C   UNL     1      -1.535  15.210  20.690  0.00  0.00    +0.000 A 
ATOM     18  C   UNL     1      -1.600  16.577  20.419  0.00  0.00    +0.000 A 
ATOM     19  N   UNL     1      -2.189  14.702  21.819  0.00  0.00    +0.000 N 
ATOM     20  C   UNL     1      -2.043  13.397  22.225  0.00  0.00    +0.000 C 
ATOM     21  O   UNL     1      -2.619  12.994  23.236  0.00  0.00    +0.000 OA
ATOM     22  C   UNL     1      -1.058  12.542  21.426  0.00  0.00    +0.000 C 
ATOM     23  N   UNL     1      -1.031  12.933  20.000  0.00  0.00    +0.000 N 
ATOM     24  H   UNL     1      -2.768  15.291  22.400  0.00  0.00    +0.000 HD
BRANCH  13  26
ATOM     25  C   UNL     1      -0.828  18.630  17.488  0.00  0.00    +0.000 C 
ATOM     26  O   UNL     1      -0.981  18.393  18.882  0.00  0.00    +0.000 OA
ENDBRANCH  13  26
ENDBRANCH   1  23
BRANCH   4  27
ATOM     27  C   UNL     1      -5.224  11.246  17.622  0.00  0.00    +0.000 A 
ATOM     28  C   UNL     1      -5.876  12.378  17.123  0.00  0.00    +0.000 A 
ATOM     29  C   UNL     1      -7.041  12.857  17.730  0.00  0.00    +0.000 A 
ATOM     30  C   UNL     1      -7.575  12.201  18.840  0.00  0.00    +0.000 A 
ATOM     31  C   UNL     1      -6.947  11.059  19.339  0.00  0.00    +0.000 A 
ATOM     32  C   UNL     1      -5.779  10.591  18.731  0.00  0.00    +0.000 A 
BRANCH  31  33
ATOM     33  C   UNL     1      -7.481  10.371  20.476  0.00  0.00    +0.000 C 
ATOM     34  N   UNL     1      -7.916   9.813  21.396  0.00  0.00    +0.000 NA
ENDBRANCH  31  33
ENDBRANCH   4  27
TORSDOF 4
ENDMDL
