MODEL 1
REMARK VINA RESULT:      -8.3      0.000      0.000
REMARK  Name = 
REMARK  8 active torsions:
REMARK  status: ('A' for Active; 'I' for Inactive)
REMARK    1  A    between atoms: C_2  and  C_3
REMARK    2  A    between atoms: C_3  and  S_4
REMARK    3  A    between atoms: S_4  and  C_5
REMARK    4  A    between atoms: C_8  and  C_9
REMARK    5  A    between atoms: C_9  and  N_10
REMARK    6  A    between atoms: C_11  and  C_13
REMARK    7  A    between atoms: N_22  and  C_23
REMARK    8  A    between atoms: C_23  and  C_24
REMARK                            x       y       z     vdW  Elec       q    Type
REMARK                         _______ _______ _______ _____ _____    ______ ____
ROOT
ATOM      1  C   UNL     1       7.566   6.480  17.653  0.00  0.00    +0.000 A 
ATOM      2  N   UNL     1       6.991   7.347  16.841  0.00  0.00    +0.000 NA
ATOM      3  N   UNL     1       7.401   8.602  17.238  0.00  0.00    +0.000 NA
ATOM      4  C   UNL     1       8.180   8.422  18.287  0.00  0.00    +0.000 A 
ATOM      5  O   UNL     1       8.349   7.097  18.595  0.00  0.00    +0.000 OA
ENDROOT
BRANCH   1   6
ATOM      6  S   UNL     1       7.354   4.760  17.580  0.00  0.00    +0.000 S 
BRANCH   6   7
ATOM      7  C   UNL     1       6.981   4.515  15.820  0.00  0.00    +0.000 C 
BRANCH   7   9
ATOM      8  O   UNL     1       5.008   4.033  14.521  0.00  0.00    +0.000 OA
ATOM      9  C   UNL     1       5.512   4.172  15.632  0.00  0.00    +0.000 C 
ATOM     10  N   UNL     1       4.803   4.042  16.805  0.00  0.00    +0.000 N 
ATOM     11  H   UNL     1       5.243   4.314  17.679  0.00  0.00    +0.000 HD
BRANCH  10  12
ATOM     12  C   UNL     1       3.382   3.794  16.834  0.00  0.00    +0.000 C 
BRANCH  12  13
ATOM     13  C   UNL     1       2.916   3.587  18.251  0.00  0.00    +0.000 A 
ATOM     14  C   UNL     1       1.743   4.201  18.719  0.00  0.00    +0.000 A 
ATOM     15  C   UNL     1       1.327   4.008  20.038  0.00  0.00    +0.000 A 
ATOM     16  C   UNL     1       2.084   3.212  20.889  0.00  0.00    +0.000 A 
ATOM     17  F   UNL     1       1.677   3.023  22.150  0.00  0.00    +0.000 F 
ATOM     18  C   UNL     1       3.258   2.612  20.450  0.00  0.00    +0.000 A 
ATOM     19  C   UNL     1       3.678   2.803  19.134  0.00  0.00    +0.000 A 
ENDBRANCH  12  13
ENDBRANCH  10  12
ENDBRANCH   7   9
ENDBRANCH   6   7
ENDBRANCH   1   6
BRANCH   4  20
ATOM     20  C   UNL     1       8.796   9.427  19.187  0.00  0.00    +0.000 C 
BRANCH  20  21
ATOM     21  N   UNL     1       9.255  10.601  18.470  0.00  0.00    +0.000 N 
ATOM     22  C   UNL     1       9.933  11.591  19.158  0.00  0.00    +0.000 C 
ATOM     23  O   UNL     1      10.170  11.475  20.351  0.00  0.00    +0.000 OA
ATOM     24  H   UNL     1       9.043  10.706  17.483  0.00  0.00    +0.000 HD
BRANCH  22  25
ATOM     25  C   UNL     1      10.354  12.803  18.403  0.00  0.00    +0.000 A 
ATOM     26  C   UNL     1       9.601  13.980  18.391  0.00  0.00    +0.000 A 
ATOM     27  F   UNL     1       8.439  14.066  19.055  0.00  0.00    +0.000 F 
ATOM     28  C   UNL     1      10.030  15.113  17.694  0.00  0.00    +0.000 A 
ATOM     29  C   UNL     1      11.230  15.084  16.987  0.00  0.00    +0.000 A 
ATOM     30  C   UNL     1      11.989  13.918  16.979  0.00  0.00    +0.000 A 
ATOM     31  C   UNL     1      11.552  12.791  17.680  0.00  0.00    +0.000 A 
ATOM     32  F   UNL     1      12.333  11.703  17.631  0.00  0.00    +0.000 F 
ENDBRANCH  22  25
ENDBRANCH  20  21
ENDBRANCH   4  20
TORSDOF 8
ENDMDL
MODEL 2
REMARK VINA RESULT:      -8.1      5.753      7.128
REMARK  Name = 
REMARK  8 active torsions:
REMARK  status: ('A' for Active; 'I' for Inactive)
REMARK    1  A    between atoms: C_2  and  C_3
REMARK    2  A    between atoms: C_3  and  S_4
REMARK    3  A    between atoms: S_4  and  C_5
REMARK    4  A    between atoms: C_8  and  C_9
REMARK    5  A    between atoms: C_9  and  N_10
REMARK    6  A    between atoms: C_11  and  C_13
REMARK    7  A    between atoms: N_22  and  C_23
REMARK    8  A    between atoms: C_23  and  C_24
REMARK                            x       y       z     vdW  Elec       q    Type
REMARK                         _______ _______ _______ _____ _____    ______ ____
ROOT
ATOM      1  C   UNL     1       5.457   6.392  17.850  0.00  0.00    +0.000 A 
ATOM      2  N   UNL     1       4.997   5.849  18.961  0.00  0.00    +0.000 NA
ATOM      3  N   UNL     1       3.693   6.273  19.105  0.00  0.00    +0.000 NA
ATOM      4  C   UNL     1       3.449   7.073  18.085  0.00  0.00    +0.000 A 
ATOM      5  O   UNL     1       4.518   7.179  17.233  0.00  0.00    +0.000 OA
ENDROOT
BRANCH   1   6
ATOM      6  S   UNL     1       7.065   6.180  17.234  0.00  0.00    +0.000 S 
BRANCH   6   7
ATOM      7  C   UNL     1       7.012   4.454  16.673  0.00  0.00    +0.000 C 
BRANCH   7   9
ATOM      8  O   UNL     1       5.139   4.282  15.165  0.00  0.00    +0.000 OA
ATOM      9  C   UNL     1       5.596   4.065  16.285  0.00  0.00    +0.000 C 
ATOM     10  N   UNL     1       4.875   3.463  17.291  0.00  0.00    +0.000 N 
ATOM     11  H   UNL     1       5.260   3.447  18.231  0.00  0.00    +0.000 HD
BRANCH  10  12
ATOM     12  C   UNL     1       3.489   3.089  17.143  0.00  0.00    +0.000 C 
BRANCH  12  13
ATOM     13  C   UNL     1       2.830   2.974  18.492  0.00  0.00    +0.000 A 
ATOM     14  C   UNL     1       3.586   2.680  19.638  0.00  0.00    +0.000 A 
ATOM     15  C   UNL     1       2.962   2.567  20.882  0.00  0.00    +0.000 A 
ATOM     16  C   UNL     1       1.586   2.738  20.979  0.00  0.00    +0.000 A 
ATOM     17  F   UNL     1       0.991   2.637  22.174  0.00  0.00    +0.000 F 
ATOM     18  C   UNL     1       0.818   3.010  19.853  0.00  0.00    +0.000 A 
ATOM     19  C   UNL     1       1.438   3.122  18.609  0.00  0.00    +0.000 A 
ENDBRANCH  12  13
ENDBRANCH  10  12
ENDBRANCH   7   9
ENDBRANCH   6   7
ENDBRANCH   1   6
BRANCH   4  20
ATOM     20  C   UNL     1       2.253   7.903  17.802  0.00  0.00    +0.000 C 
BRANCH  20  21
ATOM     21  N   UNL     1       1.529   8.255  19.008  0.00  0.00    +0.000 N 
ATOM     22  C   UNL     1       1.286   9.588  19.286  0.00  0.00    +0.000 C 
ATOM     23  O   UNL     1       1.652  10.465  18.517  0.00  0.00    +0.000 OA
ATOM     24  H   UNL     1       1.240   7.528  19.655  0.00  0.00    +0.000 HD
BRANCH  22  25
ATOM     25  C   UNL     1       0.578   9.919  20.552  0.00  0.00    +0.000 A 
ATOM     26  C   UNL     1      -0.384  10.929  20.633  0.00  0.00    +0.000 A 
ATOM     27  F   UNL     1      -0.703  11.669  19.561  0.00  0.00    +0.000 F 
ATOM     28  C   UNL     1      -1.054  11.204  21.828  0.00  0.00    +0.000 A 
ATOM     29  C   UNL     1      -0.766  10.468  22.975  0.00  0.00    +0.000 A 
ATOM     30  C   UNL     1       0.196   9.464  22.918  0.00  0.00    +0.000 A 
ATOM     31  C   UNL     1       0.860   9.196  21.717  0.00  0.00    +0.000 A 
ATOM     32  F   UNL     1       1.773   8.214  21.732  0.00  0.00    +0.000 F 
ENDBRANCH  22  25
ENDBRANCH  20  21
ENDBRANCH   4  20
TORSDOF 8
ENDMDL
MODEL 3
REMARK VINA RESULT:      -8.0      2.364     11.414
REMARK  Name = 
REMARK  8 active torsions:
REMARK  status: ('A' for Active; 'I' for Inactive)
REMARK    1  A    between atoms: C_2  and  C_3
REMARK    2  A    between atoms: C_3  and  S_4
REMARK    3  A    between atoms: S_4  and  C_5
REMARK    4  A    between atoms: C_8  and  C_9
REMARK    5  A    between atoms: C_9  and  N_10
REMARK    6  A    between atoms: C_11  and  C_13
REMARK    7  A    between atoms: N_22  and  C_23
REMARK    8  A    between atoms: C_23  and  C_24
REMARK                            x       y       z     vdW  Elec       q    Type
REMARK                         _______ _______ _______ _____ _____    ______ ____
ROOT
ATOM      1  C   UNL     1       8.214   8.168  18.343  0.00  0.00    +0.000 A 
ATOM      2  N   UNL     1       7.763   8.284  17.108  0.00  0.00    +0.000 NA
ATOM      3  N   UNL     1       7.247   7.057  16.752  0.00  0.00    +0.000 NA
ATOM      4  C   UNL     1       7.440   6.260  17.784  0.00  0.00    +0.000 A 
ATOM      5  O   UNL     1       8.030   6.903  18.842  0.00  0.00    +0.000 OA
ENDROOT
BRANCH   1   6
ATOM      6  S   UNL     1       8.978   9.438  19.245  0.00  0.00    +0.000 S 
BRANCH   6   7
ATOM      7  C   UNL     1       9.350  10.639  17.935  0.00  0.00    +0.000 C 
BRANCH   7   9
ATOM      8  O   UNL     1      11.017  11.509  19.443  0.00  0.00    +0.000 OA
ATOM      9  C   UNL     1      10.582  11.453  18.296  0.00  0.00    +0.000 C 
ATOM     10  N   UNL     1      11.154  12.120  17.237  0.00  0.00    +0.000 N 
ATOM     11  H   UNL     1      10.661  12.149  16.349  0.00  0.00    +0.000 HD
BRANCH  10  12
ATOM     12  C   UNL     1      12.284  13.004  17.389  0.00  0.00    +0.000 C 
BRANCH  12  13
ATOM     13  C   UNL     1      11.825  14.368  17.836  0.00  0.00    +0.000 A 
ATOM     14  C   UNL     1      11.074  15.189  16.980  0.00  0.00    +0.000 A 
ATOM     15  C   UNL     1      10.664  16.455  17.403  0.00  0.00    +0.000 A 
ATOM     16  C   UNL     1      11.010  16.902  18.672  0.00  0.00    +0.000 A 
ATOM     17  F   UNL     1      10.608  18.113  19.077  0.00  0.00    +0.000 F 
ATOM     18  C   UNL     1      11.770  16.112  19.526  0.00  0.00    +0.000 A 
ATOM     19  C   UNL     1      12.183  14.847  19.107  0.00  0.00    +0.000 A 
ENDBRANCH  12  13
ENDBRANCH  10  12
ENDBRANCH   7   9
ENDBRANCH   6   7
ENDBRANCH   1   6
BRANCH   4  20
ATOM     20  C   UNL     1       7.194   4.803  17.911  0.00  0.00    +0.000 C 
BRANCH  20  21
ATOM     21  N   UNL     1       6.096   4.505  18.810  0.00  0.00    +0.000 N 
ATOM     22  C   UNL     1       4.844   4.242  18.285  0.00  0.00    +0.000 C 
ATOM     23  O   UNL     1       4.661   4.231  17.076  0.00  0.00    +0.000 OA
ATOM     24  H   UNL     1       6.244   4.531  19.814  0.00  0.00    +0.000 HD
BRANCH  22  25
ATOM     25  C   UNL     1       3.729   3.982  19.235  0.00  0.00    +0.000 A 
ATOM     26  C   UNL     1       3.737   2.906  20.127  0.00  0.00    +0.000 A 
ATOM     27  F   UNL     1       4.757   2.036  20.153  0.00  0.00    +0.000 F 
ATOM     28  C   UNL     1       2.689   2.697  21.027  0.00  0.00    +0.000 A 
ATOM     29  C   UNL     1       1.602   3.569  21.048  0.00  0.00    +0.000 A 
ATOM     30  C   UNL     1       1.571   4.641  20.161  0.00  0.00    +0.000 A 
ATOM     31  C   UNL     1       2.625   4.841  19.265  0.00  0.00    +0.000 A 
ATOM     32  F   UNL     1       2.531   5.894  18.441  0.00  0.00    +0.000 F 
ENDBRANCH  22  25
ENDBRANCH  20  21
ENDBRANCH   4  20
TORSDOF 8
ENDMDL
MODEL 4
REMARK VINA RESULT:      -7.9      7.633     11.037
REMARK  Name = 
REMARK  8 active torsions:
REMARK  status: ('A' for Active; 'I' for Inactive)
REMARK    1  A    between atoms: C_2  and  C_3
REMARK    2  A    between atoms: C_3  and  S_4
REMARK    3  A    between atoms: S_4  and  C_5
REMARK    4  A    between atoms: C_8  and  C_9
REMARK    5  A    between atoms: C_9  and  N_10
REMARK    6  A    between atoms: C_11  and  C_13
REMARK    7  A    between atoms: N_22  and  C_23
REMARK    8  A    between atoms: C_23  and  C_24
REMARK                            x       y       z     vdW  Elec       q    Type
REMARK                         _______ _______ _______ _____ _____    ______ ____
ROOT
ATOM      1  C   UNL     1      -0.332  10.582  22.532  0.00  0.00    +0.000 A 
ATOM      2  N   UNL     1       0.420   9.903  23.377  0.00  0.00    +0.000 NA
ATOM      3  N   UNL     1       1.282   9.137  22.621  0.00  0.00    +0.000 NA
ATOM      4  C   UNL     1       0.980   9.377  21.360  0.00  0.00    +0.000 A 
ATOM      5  O   UNL     1      -0.021  10.302  21.225  0.00  0.00    +0.000 OA
ENDROOT
BRANCH   1   6
ATOM      6  S   UNL     1      -1.593  11.683  22.989  0.00  0.00    +0.000 S 
BRANCH   6   7
ATOM      7  C   UNL     1      -1.093  13.191  22.110  0.00  0.00    +0.000 C 
BRANCH   7   9
ATOM      8  O   UNL     1      -1.979  14.497  20.288  0.00  0.00    +0.000 OA
ATOM      9  C   UNL     1      -2.024  13.456  20.939  0.00  0.00    +0.000 C 
ATOM     10  N   UNL     1      -2.917  12.441  20.681  0.00  0.00    +0.000 N 
ATOM     11  H   UNL     1      -2.999  11.677  21.345  0.00  0.00    +0.000 HD
BRANCH  10  12
ATOM     12  C   UNL     1      -3.931  12.535  19.659  0.00  0.00    +0.000 C 
BRANCH  12  13
ATOM     13  C   UNL     1      -3.555  11.693  18.468  0.00  0.00    +0.000 A 
ATOM     14  C   UNL     1      -4.399  11.614  17.349  0.00  0.00    +0.000 A 
ATOM     15  C   UNL     1      -4.043  10.822  16.255  0.00  0.00    +0.000 A 
ATOM     16  C   UNL     1      -2.854  10.103  16.284  0.00  0.00    +0.000 A 
ATOM     17  F   UNL     1      -2.512   9.351  15.231  0.00  0.00    +0.000 F 
ATOM     18  C   UNL     1      -2.015  10.153  17.391  0.00  0.00    +0.000 A 
ATOM     19  C   UNL     1      -2.368  10.942  18.486  0.00  0.00    +0.000 A 
ENDBRANCH  12  13
ENDBRANCH  10  12
ENDBRANCH   7   9
ENDBRANCH   6   7
ENDBRANCH   1   6
BRANCH   4  20
ATOM     20  C   UNL     1       1.502   8.737  20.128  0.00  0.00    +0.000 C 
BRANCH  20  21
ATOM     21  N   UNL     1       2.008   7.400  20.373  0.00  0.00    +0.000 N 
ATOM     22  C   UNL     1       2.404   6.620  19.301  0.00  0.00    +0.000 C 
ATOM     23  O   UNL     1       2.357   7.054  18.159  0.00  0.00    +0.000 OA
ATOM     24  H   UNL     1       2.032   7.033  21.319  0.00  0.00    +0.000 HD
BRANCH  22  25
ATOM     25  C   UNL     1       2.880   5.238  19.582  0.00  0.00    +0.000 A 
ATOM     26  C   UNL     1       4.161   4.800  19.239  0.00  0.00    +0.000 A 
ATOM     27  F   UNL     1       5.027   5.612  18.615  0.00  0.00    +0.000 F 
ATOM     28  C   UNL     1       4.593   3.504  19.535  0.00  0.00    +0.000 A 
ATOM     29  C   UNL     1       3.738   2.615  20.184  0.00  0.00    +0.000 A 
ATOM     30  C   UNL     1       2.454   3.030  20.525  0.00  0.00    +0.000 A 
ATOM     31  C   UNL     1       2.033   4.328  20.224  0.00  0.00    +0.000 A 
ATOM     32  F   UNL     1       0.785   4.661  20.583  0.00  0.00    +0.000 F 
ENDBRANCH  22  25
ENDBRANCH  20  21
ENDBRANCH   4  20
TORSDOF 8
ENDMDL
MODEL 5
REMARK VINA RESULT:      -7.9      1.594      1.826
REMARK  Name = 
REMARK  8 active torsions:
REMARK  status: ('A' for Active; 'I' for Inactive)
REMARK    1  A    between atoms: C_2  and  C_3
REMARK    2  A    between atoms: C_3  and  S_4
REMARK    3  A    between atoms: S_4  and  C_5
REMARK    4  A    between atoms: C_8  and  C_9
REMARK    5  A    between atoms: C_9  and  N_10
REMARK    6  A    between atoms: C_11  and  C_13
REMARK    7  A    between atoms: N_22  and  C_23
REMARK    8  A    between atoms: C_23  and  C_24
REMARK                            x       y       z     vdW  Elec       q    Type
REMARK                         _______ _______ _______ _____ _____    ______ ____
ROOT
ATOM      1  C   UNL     1       6.831   5.960  16.164  0.00  0.00    +0.000 A 
ATOM      2  N   UNL     1       5.885   6.878  16.113  0.00  0.00    +0.000 NA
ATOM      3  N   UNL     1       6.283   7.911  16.934  0.00  0.00    +0.000 NA
ATOM      4  C   UNL     1       7.437   7.544  17.457  0.00  0.00    +0.000 A 
ATOM      5  O   UNL     1       7.859   6.325  16.996  0.00  0.00    +0.000 OA
ENDROOT
BRANCH   1   6
ATOM      6  S   UNL     1       6.795   4.448  15.314  0.00  0.00    +0.000 S 
BRANCH   6   7
ATOM      7  C   UNL     1       5.615   3.498  16.314  0.00  0.00    +0.000 C 
BRANCH   7   9
ATOM      8  O   UNL     1       5.595   4.555  18.481  0.00  0.00    +0.000 OA
ATOM      9  C   UNL     1       5.024   4.371  17.409  0.00  0.00    +0.000 C 
ATOM     10  N   UNL     1       3.801   4.922  17.099  0.00  0.00    +0.000 N 
ATOM     11  H   UNL     1       3.319   4.612  16.260  0.00  0.00    +0.000 HD
BRANCH  10  12
ATOM     12  C   UNL     1       3.045   5.718  18.035  0.00  0.00    +0.000 C 
BRANCH  12  13
ATOM     13  C   UNL     1       2.427   4.839  19.092  0.00  0.00    +0.000 A 
ATOM     14  C   UNL     1       2.762   4.999  20.446  0.00  0.00    +0.000 A 
ATOM     15  C   UNL     1       2.190   4.172  21.414  0.00  0.00    +0.000 A 
ATOM     16  C   UNL     1       1.294   3.182  21.030  0.00  0.00    +0.000 A 
ATOM     17  F   UNL     1       0.741   2.395  21.962  0.00  0.00    +0.000 F 
ATOM     18  C   UNL     1       0.965   2.994  19.693  0.00  0.00    +0.000 A 
ATOM     19  C   UNL     1       1.535   3.818  18.722  0.00  0.00    +0.000 A 
ENDBRANCH  12  13
ENDBRANCH  10  12
ENDBRANCH   7   9
ENDBRANCH   6   7
ENDBRANCH   1   6
BRANCH   4  20
ATOM     20  C   UNL     1       8.255   8.212  18.499  0.00  0.00    +0.000 C 
BRANCH  20  21
ATOM     21  N   UNL     1       8.878   9.428  18.015  0.00  0.00    +0.000 N 
ATOM     22  C   UNL     1       9.304  10.379  18.925  0.00  0.00    +0.000 C 
ATOM     23  O   UNL     1       9.184  10.192  20.127  0.00  0.00    +0.000 OA
ATOM     24  H   UNL     1       8.963   9.591  17.016  0.00  0.00    +0.000 HD
BRANCH  22  25
ATOM     25  C   UNL     1       9.902  11.634  18.395  0.00  0.00    +0.000 A 
ATOM     26  C   UNL     1       9.153  12.589  17.703  0.00  0.00    +0.000 A 
ATOM     27  F   UNL     1       7.846  12.406  17.466  0.00  0.00    +0.000 F 
ATOM     28  C   UNL     1       9.733  13.772  17.236  0.00  0.00    +0.000 A 
ATOM     29  C   UNL     1      11.087  14.019  17.454  0.00  0.00    +0.000 A 
ATOM     30  C   UNL     1      11.852  13.076  18.133  0.00  0.00    +0.000 A 
ATOM     31  C   UNL     1      11.262  11.896  18.596  0.00  0.00    +0.000 A 
ATOM     32  F   UNL     1      12.057  11.032  19.244  0.00  0.00    +0.000 F 
ENDBRANCH  22  25
ENDBRANCH  20  21
ENDBRANCH   4  20
TORSDOF 8
ENDMDL
MODEL 6
REMARK VINA RESULT:      -7.8      2.780     10.367
REMARK  Name = 
REMARK  8 active torsions:
REMARK  status: ('A' for Active; 'I' for Inactive)
REMARK    1  A    between atoms: C_2  and  C_3
REMARK    2  A    between atoms: C_3  and  S_4
REMARK    3  A    between atoms: S_4  and  C_5
REMARK    4  A    between atoms: C_8  and  C_9
REMARK    5  A    between atoms: C_9  and  N_10
REMARK    6  A    between atoms: C_11  and  C_13
REMARK    7  A    between atoms: N_22  and  C_23
REMARK    8  A    between atoms: C_23  and  C_24
REMARK                            x       y       z     vdW  Elec       q    Type
REMARK                         _______ _______ _______ _____ _____    ______ ____
ROOT
ATOM      1  C   UNL     1       7.855   7.856  17.791  0.00  0.00    +0.000 A 
ATOM      2  N   UNL     1       8.223   7.030  18.752  0.00  0.00    +0.000 NA
ATOM      3  N   UNL     1       7.725   5.786  18.425  0.00  0.00    +0.000 NA
ATOM      4  C   UNL     1       7.060   5.939  17.297  0.00  0.00    +0.000 A 
ATOM      5  O   UNL     1       7.117   7.224  16.822  0.00  0.00    +0.000 OA
ENDROOT
BRANCH   1   6
ATOM      6  S   UNL     1       8.220   9.551  17.746  0.00  0.00    +0.000 S 
BRANCH   6   7
ATOM      7  C   UNL     1       9.195   9.753  19.265  0.00  0.00    +0.000 C 
BRANCH   7   9
ATOM      8  O   UNL     1      10.140  11.606  20.482  0.00  0.00    +0.000 OA
ATOM      9  C   UNL     1       9.542  11.216  19.482  0.00  0.00    +0.000 C 
ATOM     10  N   UNL     1       9.123  12.056  18.476  0.00  0.00    +0.000 N 
ATOM     11  H   UNL     1       8.508  11.692  17.754  0.00  0.00    +0.000 HD
BRANCH  10  12
ATOM     12  C   UNL     1       9.291  13.488  18.534  0.00  0.00    +0.000 C 
BRANCH  12  13
ATOM     13  C   UNL     1       7.959  14.164  18.729  0.00  0.00    +0.000 A 
ATOM     14  C   UNL     1       7.028  14.231  17.681  0.00  0.00    +0.000 A 
ATOM     15  C   UNL     1       5.800  14.869  17.872  0.00  0.00    +0.000 A 
ATOM     16  C   UNL     1       5.509  15.447  19.102  0.00  0.00    +0.000 A 
ATOM     17  F   UNL     1       4.329  16.051  19.283  0.00  0.00    +0.000 F 
ATOM     18  C   UNL     1       6.426  15.409  20.145  0.00  0.00    +0.000 A 
ATOM     19  C   UNL     1       7.654  14.773  19.958  0.00  0.00    +0.000 A 
ENDBRANCH  12  13
ENDBRANCH  10  12
ENDBRANCH   7   9
ENDBRANCH   6   7
ENDBRANCH   1   6
BRANCH   4  20
ATOM     20  C   UNL     1       6.223   4.964  16.556  0.00  0.00    +0.000 C 
BRANCH  20  21
ATOM     21  N   UNL     1       5.151   4.427  17.371  0.00  0.00    +0.000 N 
ATOM     22  C   UNL     1       3.997   5.169  17.546  0.00  0.00    +0.000 C 
ATOM     23  O   UNL     1       3.862   6.255  17.002  0.00  0.00    +0.000 OA
ATOM     24  H   UNL     1       5.270   3.532  17.837  0.00  0.00    +0.000 HD
BRANCH  22  25
ATOM     25  C   UNL     1       2.933   4.608  18.423  0.00  0.00    +0.000 A 
ATOM     26  C   UNL     1       2.614   5.162  19.665  0.00  0.00    +0.000 A 
ATOM     27  F   UNL     1       3.275   6.228  20.139  0.00  0.00    +0.000 F 
ATOM     28  C   UNL     1       1.594   4.632  20.460  0.00  0.00    +0.000 A 
ATOM     29  C   UNL     1       0.870   3.525  20.020  0.00  0.00    +0.000 A 
ATOM     30  C   UNL     1       1.179   2.953  18.789  0.00  0.00    +0.000 A 
ATOM     31  C   UNL     1       2.202   3.492  18.002  0.00  0.00    +0.000 A 
ATOM     32  F   UNL     1       2.445   2.893  16.828  0.00  0.00    +0.000 F 
ENDBRANCH  22  25
ENDBRANCH  20  21
ENDBRANCH   4  20
TORSDOF 8
ENDMDL
MODEL 7
REMARK VINA RESULT:      -7.8      5.959      8.610
REMARK  Name = 
REMARK  8 active torsions:
REMARK  status: ('A' for Active; 'I' for Inactive)
REMARK    1  A    between atoms: C_2  and  C_3
REMARK    2  A    between atoms: C_3  and  S_4
REMARK    3  A    between atoms: S_4  and  C_5
REMARK    4  A    between atoms: C_8  and  C_9
REMARK    5  A    between atoms: C_9  and  N_10
REMARK    6  A    between atoms: C_11  and  C_13
REMARK    7  A    between atoms: N_22  and  C_23
REMARK    8  A    between atoms: C_23  and  C_24
REMARK                            x       y       z     vdW  Elec       q    Type
REMARK                         _______ _______ _______ _____ _____    ______ ____
ROOT
ATOM      1  C   UNL     1       2.285   7.025  19.262  0.00  0.00    +0.000 A 
ATOM      2  N   UNL     1       2.945   7.033  18.120  0.00  0.00    +0.000 NA
ATOM      3  N   UNL     1       2.815   8.299  17.589  0.00  0.00    +0.000 NA
ATOM      4  C   UNL     1       2.058   8.976  18.431  0.00  0.00    +0.000 A 
ATOM      5  O   UNL     1       1.702   8.238  19.529  0.00  0.00    +0.000 OA
ENDROOT
BRANCH   1   6
ATOM      6  S   UNL     1       2.130   5.650  20.309  0.00  0.00    +0.000 S 
BRANCH   6   7
ATOM      7  C   UNL     1       2.041   4.290  19.110  0.00  0.00    +0.000 C 
BRANCH   7   9
ATOM      8  O   UNL     1       4.108   3.093  19.437  0.00  0.00    +0.000 OA
ATOM      9  C   UNL     1       3.437   3.833  18.722  0.00  0.00    +0.000 C 
ATOM     10  N   UNL     1       3.881   4.323  17.515  0.00  0.00    +0.000 N 
ATOM     11  H   UNL     1       3.339   5.043  17.046  0.00  0.00    +0.000 HD
BRANCH  10  12
ATOM     12  C   UNL     1       5.207   4.065  17.008  0.00  0.00    +0.000 C 
BRANCH  12  13
ATOM     13  C   UNL     1       6.163   5.133  17.474  0.00  0.00    +0.000 A 
ATOM     14  C   UNL     1       7.003   4.913  18.577  0.00  0.00    +0.000 A 
ATOM     15  C   UNL     1       7.878   5.914  19.004  0.00  0.00    +0.000 A 
ATOM     16  C   UNL     1       7.906   7.133  18.338  0.00  0.00    +0.000 A 
ATOM     17  F   UNL     1       8.752   8.088  18.745  0.00  0.00    +0.000 F 
ATOM     18  C   UNL     1       7.068   7.377  17.256  0.00  0.00    +0.000 A 
ATOM     19  C   UNL     1       6.192   6.380  16.827  0.00  0.00    +0.000 A 
ENDBRANCH  12  13
ENDBRANCH  10  12
ENDBRANCH   7   9
ENDBRANCH   6   7
ENDBRANCH   1   6
BRANCH   4  20
ATOM     20  C   UNL     1       1.497  10.344  18.304  0.00  0.00    +0.000 C 
BRANCH  20  21
ATOM     21  N   UNL     1       0.427  10.590  19.252  0.00  0.00    +0.000 N 
ATOM     22  C   UNL     1       0.573  11.599  20.188  0.00  0.00    +0.000 C 
ATOM     23  O   UNL     1       1.576  12.296  20.206  0.00  0.00    +0.000 OA
ATOM     24  H   UNL     1      -0.399  10.000  19.248  0.00  0.00    +0.000 HD
BRANCH  22  25
ATOM     25  C   UNL     1      -0.525  11.800  21.173  0.00  0.00    +0.000 A 
ATOM     26  C   UNL     1      -1.541  12.739  20.985  0.00  0.00    +0.000 A 
ATOM     27  F   UNL     1      -1.564  13.527  19.900  0.00  0.00    +0.000 F 
ATOM     28  C   UNL     1      -2.574  12.892  21.913  0.00  0.00    +0.000 A 
ATOM     29  C   UNL     1      -2.605  12.100  23.059  0.00  0.00    +0.000 A 
ATOM     30  C   UNL     1      -1.597  11.165  23.270  0.00  0.00    +0.000 A 
ATOM     31  C   UNL     1      -0.568  11.020  22.334  0.00  0.00    +0.000 A 
ATOM     32  F   UNL     1       0.370  10.099  22.599  0.00  0.00    +0.000 F 
ENDBRANCH  22  25
ENDBRANCH  20  21
ENDBRANCH   4  20
TORSDOF 8
ENDMDL
MODEL 8
REMARK VINA RESULT:      -7.8      5.148      8.187
REMARK  Name = 
REMARK  8 active torsions:
REMARK  status: ('A' for Active; 'I' for Inactive)
REMARK    1  A    between atoms: C_2  and  C_3
REMARK    2  A    between atoms: C_3  and  S_4
REMARK    3  A    between atoms: S_4  and  C_5
REMARK    4  A    between atoms: C_8  and  C_9
REMARK    5  A    between atoms: C_9  and  N_10
REMARK    6  A    between atoms: C_11  and  C_13
REMARK    7  A    between atoms: N_22  and  C_23
REMARK    8  A    between atoms: C_23  and  C_24
REMARK                            x       y       z     vdW  Elec       q    Type
REMARK                         _______ _______ _______ _____ _____    ______ ____
ROOT
ATOM      1  C   UNL     1       2.019   4.283  19.769  0.00  0.00    +0.000 A 
ATOM      2  N   UNL     1       1.534   4.061  18.562  0.00  0.00    +0.000 NA
ATOM      3  N   UNL     1       1.729   5.213  17.832  0.00  0.00    +0.000 NA
ATOM      4  C   UNL     1       2.297   6.078  18.650  0.00  0.00    +0.000 A 
ATOM      5  O   UNL     1       2.533   5.550  19.892  0.00  0.00    +0.000 OA
ENDROOT
BRANCH   1   6
ATOM      6  S   UNL     1       1.998   3.140  21.074  0.00  0.00    +0.000 S 
BRANCH   6   7
ATOM      7  C   UNL     1       3.611   2.331  20.873  0.00  0.00    +0.000 C 
BRANCH   7   9
ATOM      8  O   UNL     1       3.819   1.553  18.601  0.00  0.00    +0.000 OA
ATOM      9  C   UNL     1       4.075   2.424  19.429  0.00  0.00    +0.000 C 
ATOM     10  N   UNL     1       4.807   3.552  19.138  0.00  0.00    +0.000 N 
ATOM     11  H   UNL     1       5.107   4.155  19.898  0.00  0.00    +0.000 HD
BRANCH  10  12
ATOM     12  C   UNL     1       5.400   3.784  17.843  0.00  0.00    +0.000 C 
BRANCH  12  13
ATOM     13  C   UNL     1       6.197   5.063  17.853  0.00  0.00    +0.000 A 
ATOM     14  C   UNL     1       7.272   5.232  18.740  0.00  0.00    +0.000 A 
ATOM     15  C   UNL     1       7.997   6.425  18.747  0.00  0.00    +0.000 A 
ATOM     16  C   UNL     1       7.643   7.450  17.876  0.00  0.00    +0.000 A 
ATOM     17  F   UNL     1       8.345   8.589  17.880  0.00  0.00    +0.000 F 
ATOM     18  C   UNL     1       6.570   7.308  17.005  0.00  0.00    +0.000 A 
ATOM     19  C   UNL     1       5.843   6.118  16.996  0.00  0.00    +0.000 A 
ENDBRANCH  12  13
ENDBRANCH  10  12
ENDBRANCH   7   9
ENDBRANCH   6   7
ENDBRANCH   1   6
BRANCH   4  20
ATOM     20  C   UNL     1       2.618   7.510  18.434  0.00  0.00    +0.000 C 
BRANCH  20  21
ATOM     21  N   UNL     1       2.040   8.364  19.453  0.00  0.00    +0.000 N 
ATOM     22  C   UNL     1       1.099   9.310  19.088  0.00  0.00    +0.000 C 
ATOM     23  O   UNL     1       0.734   9.415  17.927  0.00  0.00    +0.000 OA
ATOM     24  H   UNL     1       2.356   8.289  20.416  0.00  0.00    +0.000 HD
BRANCH  22  25
ATOM     25  C   UNL     1       0.556  10.200  20.151  0.00  0.00    +0.000 A 
ATOM     26  C   UNL     1      -0.239   9.722  21.196  0.00  0.00    +0.000 A 
ATOM     27  F   UNL     1      -0.567   8.425  21.280  0.00  0.00    +0.000 F 
ATOM     28  C   UNL     1      -0.717  10.574  22.196  0.00  0.00    +0.000 A 
ATOM     29  C   UNL     1      -0.407  11.932  22.163  0.00  0.00    +0.000 A 
ATOM     30  C   UNL     1       0.375  12.428  21.125  0.00  0.00    +0.000 A 
ATOM     31  C   UNL     1       0.849  11.568  20.130  0.00  0.00    +0.000 A 
ATOM     32  F   UNL     1       1.599  12.113  19.161  0.00  0.00    +0.000 F 
ENDBRANCH  22  25
ENDBRANCH  20  21
ENDBRANCH   4  20
TORSDOF 8
ENDMDL
MODEL 9
REMARK VINA RESULT:      -7.8      6.378      9.042
REMARK  Name = 
REMARK  8 active torsions:
REMARK  status: ('A' for Active; 'I' for Inactive)
REMARK    1  A    between atoms: C_2  and  C_3
REMARK    2  A    between atoms: C_3  and  S_4
REMARK    3  A    between atoms: S_4  and  C_5
REMARK    4  A    between atoms: C_8  and  C_9
REMARK    5  A    between atoms: C_9  and  N_10
REMARK    6  A    between atoms: C_11  and  C_13
REMARK    7  A    between atoms: N_22  and  C_23
REMARK    8  A    between atoms: C_23  and  C_24
REMARK                            x       y       z     vdW  Elec       q    Type
REMARK                         _______ _______ _______ _____ _____    ______ ____
ROOT
ATOM      1  C   UNL     1       1.862   5.543  20.489  0.00  0.00    +0.000 A 
ATOM      2  N   UNL     1       0.983   4.600  20.768  0.00  0.00    +0.000 NA
ATOM      3  N   UNL     1       1.639   3.393  20.656  0.00  0.00    +0.000 NA
ATOM      4  C   UNL     1       2.873   3.676  20.287  0.00  0.00    +0.000 A 
ATOM      5  O   UNL     1       3.095   5.025  20.183  0.00  0.00    +0.000 OA
ENDROOT
BRANCH   1   6
ATOM      6  S   UNL     1       1.522   7.245  20.475  0.00  0.00    +0.000 S 
BRANCH   6   7
ATOM      7  C   UNL     1       2.214   7.739  18.871  0.00  0.00    +0.000 C 
BRANCH   7   9
ATOM      8  O   UNL     1       2.206   9.752  17.544  0.00  0.00    +0.000 OA
ATOM      9  C   UNL     1       1.730   9.128  18.490  0.00  0.00    +0.000 C 
ATOM     10  N   UNL     1       0.730   9.624  19.295  0.00  0.00    +0.000 N 
ATOM     11  H   UNL     1       0.487   9.121  20.144  0.00  0.00    +0.000 HD
BRANCH  10  12
ATOM     12  C   UNL     1       0.192  10.954  19.143  0.00  0.00    +0.000 C 
BRANCH  12  13
ATOM     13  C   UNL     1      -1.214  10.891  18.604  0.00  0.00    +0.000 A 
ATOM     14  C   UNL     1      -1.549  10.002  17.571  0.00  0.00    +0.000 A 
ATOM     15  C   UNL     1      -2.853   9.960  17.075  0.00  0.00    +0.000 A 
ATOM     16  C   UNL     1      -3.817  10.811  17.602  0.00  0.00    +0.000 A 
ATOM     17  F   UNL     1      -5.069  10.763  17.129  0.00  0.00    +0.000 F 
ATOM     18  C   UNL     1      -3.501  11.712  18.611  0.00  0.00    +0.000 A 
ATOM     19  C   UNL     1      -2.198  11.757  19.109  0.00  0.00    +0.000 A 
ENDBRANCH  12  13
ENDBRANCH  10  12
ENDBRANCH   7   9
ENDBRANCH   6   7
ENDBRANCH   1   6
BRANCH   4  20
ATOM     20  C   UNL     1       3.976   2.762  19.903  0.00  0.00    +0.000 C 
BRANCH  20  21
ATOM     21  N   UNL     1       4.470   3.025  18.565  0.00  0.00    +0.000 N 
ATOM     22  C   UNL     1       5.443   3.991  18.382  0.00  0.00    +0.000 C 
ATOM     23  O   UNL     1       5.906   4.602  19.334  0.00  0.00    +0.000 OA
ATOM     24  H   UNL     1       4.073   2.530  17.772  0.00  0.00    +0.000 HD
BRANCH  22  25
ATOM     25  C   UNL     1       5.899   4.268  16.993  0.00  0.00    +0.000 A 
ATOM     26  C   UNL     1       7.231   4.551  16.681  0.00  0.00    +0.000 A 
ATOM     27  F   UNL     1       8.170   4.605  17.638  0.00  0.00    +0.000 F 
ATOM     28  C   UNL     1       7.639   4.783  15.365  0.00  0.00    +0.000 A 
ATOM     29  C   UNL     1       6.709   4.739  14.328  0.00  0.00    +0.000 A 
ATOM     30  C   UNL     1       5.375   4.468  14.619  0.00  0.00    +0.000 A 
ATOM     31  C   UNL     1       4.978   4.237  15.939  0.00  0.00    +0.000 A 
ATOM     32  F   UNL     1       3.679   3.980  16.147  0.00  0.00    +0.000 F 
ENDBRANCH  22  25
ENDBRANCH  20  21
ENDBRANCH   4  20
TORSDOF 8
ENDMDL
