MODEL 1
REMARK VINA RESULT:      -7.4      0.000      0.000
REMARK  Name = 
REMARK  2 active torsions:
REMARK  status: ('A' for Active; 'I' for Inactive)
REMARK    1  A    between atoms: C_5  and  N_6
REMARK    2  A    between atoms: N_14  and  C_15
REMARK                            x       y       z     vdW  Elec       q    Type
REMARK                         _______ _______ _______ _____ _____    ______ ____
ROOT
ATOM      1  O   UNL     1       1.435   4.776  19.782  0.00  0.00    +0.000 OA
ATOM      2  C   UNL     1       2.357   5.144  19.067  0.00  0.00    +0.000 C 
ATOM      3  C   UNL     1       3.302   4.212  18.422  0.00  0.00    +0.000 C 
ATOM      4  I   UNL     1       3.043   2.217  18.458  0.00  0.00    +0.000 I 
ATOM      5  C   UNL     1       4.223   4.928  17.773  0.00  0.00    +0.000 C 
ATOM      6  C   UNL     1       3.888   6.374  18.014  0.00  0.00    +0.000 C 
ATOM      7  O   UNL     1       4.563   7.288  17.562  0.00  0.00    +0.000 OA
ATOM      8  N   UNL     1       2.743   6.419  18.753  0.00  0.00    +0.000 N 
ENDROOT
BRANCH   8   9
ATOM      9  C   UNL     1       2.044   7.601  19.130  0.00  0.00    +0.000 A 
ATOM     10  C   UNL     1       1.684   8.555  18.167  0.00  0.00    +0.000 A 
ATOM     11  C   UNL     1       1.030   9.741  18.521  0.00  0.00    +0.000 A 
ATOM     12  C   UNL     1       0.705   9.993  19.851  0.00  0.00    +0.000 A 
ATOM     13 CL   UNL     1      -0.102  11.474  20.217  0.00  0.00    +0.000 Cl
ATOM     14  C   UNL     1       1.043   9.053  20.827  0.00  0.00    +0.000 A 
ATOM     15 CL   UNL     1       0.657   9.283  22.496  0.00  0.00    +0.000 Cl
ATOM     16  C   UNL     1       1.715   7.872  20.468  0.00  0.00    +0.000 A 
ENDBRANCH   8   9
BRANCH   5  17
ATOM     17  N   UNL     1       5.296   4.558  16.978  0.00  0.00    +0.000 N 
ATOM     18  C   UNL     1       6.683   4.458  17.456  0.00  0.00    +0.000 C 
ATOM     19  C   UNL     1       7.616   5.197  16.481  0.00  0.00    +0.000 C 
ATOM     20  O   UNL     1       7.482   4.694  15.142  0.00  0.00    +0.000 OA
ATOM     21  C   UNL     1       6.134   4.879  14.676  0.00  0.00    +0.000 C 
ATOM     22  C   UNL     1       5.131   4.144  15.572  0.00  0.00    +0.000 C 
ENDBRANCH   5  17
TORSDOF 2
ENDMDL
MODEL 2
REMARK VINA RESULT:      -7.3      4.230      7.269
REMARK  Name = 
REMARK  2 active torsions:
REMARK  status: ('A' for Active; 'I' for Inactive)
REMARK    1  A    between atoms: C_5  and  N_6
REMARK    2  A    between atoms: N_14  and  C_15
REMARK                            x       y       z     vdW  Elec       q    Type
REMARK                         _______ _______ _______ _____ _____    ______ ____
ROOT
ATOM      1  O   UNL     1       1.686   6.805  21.075  0.00  0.00    +0.000 OA
ATOM      2  C   UNL     1       1.594   7.768  20.326  0.00  0.00    +0.000 C 
ATOM      3  C   UNL     1       0.892   9.014  20.693  0.00  0.00    +0.000 C 
ATOM      4  I   UNL     1       0.205   9.357  22.552  0.00  0.00    +0.000 I 
ATOM      5  C   UNL     1       0.912   9.833  19.640  0.00  0.00    +0.000 C 
ATOM      6  C   UNL     1       1.629   9.100  18.540  0.00  0.00    +0.000 C 
ATOM      7  O   UNL     1       1.796   9.583  17.429  0.00  0.00    +0.000 OA
ATOM      8  N   UNL     1       2.041   7.900  19.039  0.00  0.00    +0.000 N 
ENDROOT
BRANCH   8   9
ATOM      9  C   UNL     1       2.826   6.937  18.344  0.00  0.00    +0.000 A 
ATOM     10  C   UNL     1       4.062   7.294  17.782  0.00  0.00    +0.000 A 
ATOM     11  C   UNL     1       4.832   6.373  17.063  0.00  0.00    +0.000 A 
ATOM     12  C   UNL     1       4.389   5.063  16.902  0.00  0.00    +0.000 A 
ATOM     13 CL   UNL     1       5.389   3.979  16.005  0.00  0.00    +0.000 Cl
ATOM     14  C   UNL     1       3.169   4.680  17.462  0.00  0.00    +0.000 A 
ATOM     15 CL   UNL     1       2.561   3.068  17.324  0.00  0.00    +0.000 Cl
ATOM     16  C   UNL     1       2.391   5.613  18.169  0.00  0.00    +0.000 A 
ENDBRANCH   8   9
BRANCH   5  17
ATOM     17  N   UNL     1       0.444  11.125  19.460  0.00  0.00    +0.000 N 
ATOM     18  C   UNL     1      -0.959  11.465  19.178  0.00  0.00    +0.000 C 
ATOM     19  C   UNL     1      -1.022  12.440  17.990  0.00  0.00    +0.000 C 
ATOM     20  O   UNL     1      -0.233  13.616  18.233  0.00  0.00    +0.000 OA
ATOM     21  C   UNL     1       1.146  13.257  18.426  0.00  0.00    +0.000 C 
ATOM     22  C   UNL     1       1.311  12.308  19.619  0.00  0.00    +0.000 C 
ENDBRANCH   5  17
TORSDOF 2
ENDMDL
MODEL 3
REMARK VINA RESULT:      -7.2      4.261      7.361
REMARK  Name = 
REMARK  2 active torsions:
REMARK  status: ('A' for Active; 'I' for Inactive)
REMARK    1  A    between atoms: C_5  and  N_6
REMARK    2  A    between atoms: N_14  and  C_15
REMARK                            x       y       z     vdW  Elec       q    Type
REMARK                         _______ _______ _______ _____ _____    ______ ____
ROOT
ATOM      1  O   UNL     1       1.691   6.799  20.977  0.00  0.00    +0.000 OA
ATOM      2  C   UNL     1       1.643   7.743  20.200  0.00  0.00    +0.000 C 
ATOM      3  C   UNL     1       0.963   9.015  20.513  0.00  0.00    +0.000 C 
ATOM      4  I   UNL     1       0.236   9.427  22.344  0.00  0.00    +0.000 I 
ATOM      5  C   UNL     1       1.031   9.804  19.439  0.00  0.00    +0.000 C 
ATOM      6  C   UNL     1       1.759   9.023  18.379  0.00  0.00    +0.000 C 
ATOM      7  O   UNL     1       1.966   9.471  17.261  0.00  0.00    +0.000 OA
ATOM      8  N   UNL     1       2.127   7.828  18.922  0.00  0.00    +0.000 N 
ENDROOT
BRANCH   8   9
ATOM      9  C   UNL     1       2.906   6.827  18.275  0.00  0.00    +0.000 A 
ATOM     10  C   UNL     1       4.170   7.135  17.750  0.00  0.00    +0.000 A 
ATOM     11  C   UNL     1       4.936   6.176  17.077  0.00  0.00    +0.000 A 
ATOM     12  C   UNL     1       4.459   4.876  16.928  0.00  0.00    +0.000 A 
ATOM     13 CL   UNL     1       5.457   3.744  16.090  0.00  0.00    +0.000 Cl
ATOM     14  C   UNL     1       3.210   4.542  17.453  0.00  0.00    +0.000 A 
ATOM     15 CL   UNL     1       2.558   2.946  17.327  0.00  0.00    +0.000 Cl
ATOM     16  C   UNL     1       2.437   5.513  18.113  0.00  0.00    +0.000 A 
ENDBRANCH   8   9
BRANCH   5  17
ATOM     17  N   UNL     1       0.600  11.101  19.212  0.00  0.00    +0.000 N 
ATOM     18  C   UNL     1       1.428  12.297  19.423  0.00  0.00    +0.000 C 
ATOM     19  C   UNL     1       0.635  13.335  20.236  0.00  0.00    +0.000 C 
ATOM     20  O   UNL     1      -0.610  13.662  19.597  0.00  0.00    +0.000 OA
ATOM     21  C   UNL     1      -1.430  12.486  19.477  0.00  0.00    +0.000 C 
ATOM     22  C   UNL     1      -0.729  11.404  18.648  0.00  0.00    +0.000 C 
ENDBRANCH   5  17
TORSDOF 2
ENDMDL
MODEL 4
REMARK VINA RESULT:      -7.1      4.247      7.312
REMARK  Name = 
REMARK  2 active torsions:
REMARK  status: ('A' for Active; 'I' for Inactive)
REMARK    1  A    between atoms: C_5  and  N_6
REMARK    2  A    between atoms: N_14  and  C_15
REMARK                            x       y       z     vdW  Elec       q    Type
REMARK                         _______ _______ _______ _____ _____    ______ ____
ROOT
ATOM      1  O   UNL     1       1.603   6.814  21.100  0.00  0.00    +0.000 OA
ATOM      2  C   UNL     1       1.543   7.784  20.357  0.00  0.00    +0.000 C 
ATOM      3  C   UNL     1       0.850   9.037  20.718  0.00  0.00    +0.000 C 
ATOM      4  I   UNL     1       0.126   9.375  22.565  0.00  0.00    +0.000 I 
ATOM      5  C   UNL     1       0.905   9.865  19.673  0.00  0.00    +0.000 C 
ATOM      6  C   UNL     1       1.637   9.131  18.583  0.00  0.00    +0.000 C 
ATOM      7  O   UNL     1       1.835   9.620  17.480  0.00  0.00    +0.000 OA
ATOM      8  N   UNL     1       2.020   7.920  19.081  0.00  0.00    +0.000 N 
ENDROOT
BRANCH   8   9
ATOM      9  C   UNL     1       2.807   6.952  18.396  0.00  0.00    +0.000 A 
ATOM     10  C   UNL     1       2.294   5.673  18.131  0.00  0.00    +0.000 A 
ATOM     11  C   UNL     1       3.063   4.694  17.491  0.00  0.00    +0.000 A 
ATOM     12  C   UNL     1       4.364   4.980  17.085  0.00  0.00    +0.000 A 
ATOM     13 CL   UNL     1       5.255   3.727  16.300  0.00  0.00    +0.000 Cl
ATOM     14  C   UNL     1       4.893   6.249  17.326  0.00  0.00    +0.000 A 
ATOM     15 CL   UNL     1       6.491   6.686  16.835  0.00  0.00    +0.000 Cl
ATOM     16  C   UNL     1       4.122   7.222  17.984  0.00  0.00    +0.000 A 
ENDBRANCH   8   9
BRANCH   5  17
ATOM     17  N   UNL     1       0.459  11.165  19.494  0.00  0.00    +0.000 N 
ATOM     18  C   UNL     1      -0.943  11.532  19.249  0.00  0.00    +0.000 C 
ATOM     19  C   UNL     1      -1.021  12.497  18.054  0.00  0.00    +0.000 C 
ATOM     20  O   UNL     1      -0.200  13.658  18.261  0.00  0.00    +0.000 OA
ATOM     21  C   UNL     1       1.176  13.271  18.418  0.00  0.00    +0.000 C 
ATOM     22  C   UNL     1       1.356  12.330  19.614  0.00  0.00    +0.000 C 
ENDBRANCH   5  17
TORSDOF 2
ENDMDL
MODEL 5
REMARK VINA RESULT:      -7.0      4.292      7.420
REMARK  Name = 
REMARK  2 active torsions:
REMARK  status: ('A' for Active; 'I' for Inactive)
REMARK    1  A    between atoms: C_5  and  N_6
REMARK    2  A    between atoms: N_14  and  C_15
REMARK                            x       y       z     vdW  Elec       q    Type
REMARK                         _______ _______ _______ _____ _____    ______ ____
ROOT
ATOM      1  O   UNL     1       1.659   6.845  21.015  0.00  0.00    +0.000 OA
ATOM      2  C   UNL     1       1.609   7.786  20.234  0.00  0.00    +0.000 C 
ATOM      3  C   UNL     1       0.921   9.055  20.541  0.00  0.00    +0.000 C 
ATOM      4  I   UNL     1       0.185   9.470  22.367  0.00  0.00    +0.000 I 
ATOM      5  C   UNL     1       0.988   9.841  19.464  0.00  0.00    +0.000 C 
ATOM      6  C   UNL     1       1.723   9.060  18.409  0.00  0.00    +0.000 C 
ATOM      7  O   UNL     1       1.932   9.505  17.290  0.00  0.00    +0.000 OA
ATOM      8  N   UNL     1       2.096   7.869  18.958  0.00  0.00    +0.000 N 
ENDROOT
BRANCH   8   9
ATOM      9  C   UNL     1       2.882   6.870  18.317  0.00  0.00    +0.000 A 
ATOM     10  C   UNL     1       2.352   5.595  18.066  0.00  0.00    +0.000 A 
ATOM     11  C   UNL     1       3.119   4.587  17.471  0.00  0.00    +0.000 A 
ATOM     12  C   UNL     1       4.436   4.838  17.096  0.00  0.00    +0.000 A 
ATOM     13 CL   UNL     1       5.324   3.550  16.366  0.00  0.00    +0.000 Cl
ATOM     14  C   UNL     1       4.983   6.102  17.323  0.00  0.00    +0.000 A 
ATOM     15 CL   UNL     1       6.603   6.497  16.868  0.00  0.00    +0.000 Cl
ATOM     16  C   UNL     1       4.214   7.105  17.937  0.00  0.00    +0.000 A 
ENDBRANCH   8   9
BRANCH   5  17
ATOM     17  N   UNL     1       0.551  11.135  19.230  0.00  0.00    +0.000 N 
ATOM     18  C   UNL     1       1.367  12.337  19.456  0.00  0.00    +0.000 C 
ATOM     19  C   UNL     1       0.553  13.368  20.256  0.00  0.00    +0.000 C 
ATOM     20  O   UNL     1      -0.684  13.686  19.598  0.00  0.00    +0.000 OA
ATOM     21  C   UNL     1      -1.493  12.504  19.464  0.00  0.00    +0.000 C 
ATOM     22  C   UNL     1      -0.771  11.428  18.646  0.00  0.00    +0.000 C 
ENDBRANCH   5  17
TORSDOF 2
ENDMDL
MODEL 6
REMARK VINA RESULT:      -6.9      2.671      3.763
REMARK  Name = 
REMARK  2 active torsions:
REMARK  status: ('A' for Active; 'I' for Inactive)
REMARK    1  A    between atoms: C_5  and  N_6
REMARK    2  A    between atoms: N_14  and  C_15
REMARK                            x       y       z     vdW  Elec       q    Type
REMARK                         _______ _______ _______ _____ _____    ______ ____
ROOT
ATOM      1  O   UNL     1       3.111   8.899  17.768  0.00  0.00    +0.000 OA
ATOM      2  C   UNL     1       2.982   7.796  18.282  0.00  0.00    +0.000 C 
ATOM      3  C   UNL     1       3.651   6.583  17.771  0.00  0.00    +0.000 C 
ATOM      4  I   UNL     1       5.035   6.648  16.312  0.00  0.00    +0.000 I 
ATOM      5  C   UNL     1       3.251   5.541  18.503  0.00  0.00    +0.000 C 
ATOM      6  C   UNL     1       2.274   6.078  19.514  0.00  0.00    +0.000 C 
ATOM      7  O   UNL     1       1.710   5.361  20.327  0.00  0.00    +0.000 OA
ATOM      8  N   UNL     1       2.202   7.430  19.345  0.00  0.00    +0.000 N 
ENDROOT
BRANCH   8   9
ATOM      9  C   UNL     1       1.450   8.328  20.154  0.00  0.00    +0.000 A 
ATOM     10  C   UNL     1       1.573   8.304  21.552  0.00  0.00    +0.000 A 
ATOM     11  C   UNL     1       0.815   9.152  22.367  0.00  0.00    +0.000 A 
ATOM     12  C   UNL     1      -0.076  10.059  21.799  0.00  0.00    +0.000 A 
ATOM     13 CL   UNL     1      -0.977  11.076  22.864  0.00  0.00    +0.000 Cl
ATOM     14  C   UNL     1      -0.208  10.110  20.410  0.00  0.00    +0.000 A 
ATOM     15 CL   UNL     1      -1.277  11.221  19.629  0.00  0.00    +0.000 Cl
ATOM     16  C   UNL     1       0.543   9.245  19.597  0.00  0.00    +0.000 A 
ENDBRANCH   8   9
BRANCH   5  17
ATOM     17  N   UNL     1       3.600   4.201  18.479  0.00  0.00    +0.000 N 
ATOM     18  C   UNL     1       2.991   3.204  17.585  0.00  0.00    +0.000 C 
ATOM     19  C   UNL     1       2.587   1.963  18.399  0.00  0.00    +0.000 C 
ATOM     20  O   UNL     1       3.706   1.416  19.115  0.00  0.00    +0.000 OA
ATOM     21  C   UNL     1       4.229   2.389  20.037  0.00  0.00    +0.000 C 
ATOM     22  C   UNL     1       4.692   3.654  19.306  0.00  0.00    +0.000 C 
ENDBRANCH   5  17
TORSDOF 2
ENDMDL
MODEL 7
REMARK VINA RESULT:      -6.8      0.671      1.491
REMARK  Name = 
REMARK  2 active torsions:
REMARK  status: ('A' for Active; 'I' for Inactive)
REMARK    1  A    between atoms: C_5  and  N_6
REMARK    2  A    between atoms: N_14  and  C_15
REMARK                            x       y       z     vdW  Elec       q    Type
REMARK                         _______ _______ _______ _____ _____    ______ ____
ROOT
ATOM      1  O   UNL     1       1.407   4.528  19.877  0.00  0.00    +0.000 OA
ATOM      2  C   UNL     1       2.328   4.959  19.197  0.00  0.00    +0.000 C 
ATOM      3  C   UNL     1       3.248   4.090  18.437  0.00  0.00    +0.000 C 
ATOM      4  I   UNL     1       2.950   2.109  18.248  0.00  0.00    +0.000 I 
ATOM      5  C   UNL     1       4.175   4.858  17.863  0.00  0.00    +0.000 C 
ATOM      6  C   UNL     1       3.872   6.274  18.271  0.00  0.00    +0.000 C 
ATOM      7  O   UNL     1       4.560   7.221  17.919  0.00  0.00    +0.000 OA
ATOM      8  N   UNL     1       2.735   6.255  19.026  0.00  0.00    +0.000 N 
ENDROOT
BRANCH   8   9
ATOM      9  C   UNL     1       2.064   7.398  19.545  0.00  0.00    +0.000 A 
ATOM     10  C   UNL     1       1.652   7.437  20.885  0.00  0.00    +0.000 A 
ATOM     11  C   UNL     1       0.958   8.535  21.405  0.00  0.00    +0.000 A 
ATOM     12  C   UNL     1       0.674   9.632  20.596  0.00  0.00    +0.000 A 
ATOM     13 CL   UNL     1      -0.184  10.953  21.304  0.00  0.00    +0.000 Cl
ATOM     14  C   UNL     1       1.084   9.622  19.262  0.00  0.00    +0.000 A 
ATOM     15 CL   UNL     1       0.787  10.954  18.200  0.00  0.00    +0.000 Cl
ATOM     16  C   UNL     1       1.766   8.510  18.740  0.00  0.00    +0.000 A 
ENDBRANCH   8   9
BRANCH   5  17
ATOM     17  N   UNL     1       5.232   4.563  17.017  0.00  0.00    +0.000 N 
ATOM     18  C   UNL     1       6.622   4.382  17.462  0.00  0.00    +0.000 C 
ATOM     19  C   UNL     1       7.560   5.210  16.568  0.00  0.00    +0.000 C 
ATOM     20  O   UNL     1       7.401   4.869  15.181  0.00  0.00    +0.000 OA
ATOM     21  C   UNL     1       6.052   5.131  14.756  0.00  0.00    +0.000 C 
ATOM     22  C   UNL     1       5.044   4.317  15.575  0.00  0.00    +0.000 C 
ENDBRANCH   5  17
TORSDOF 2
ENDMDL
MODEL 8
REMARK VINA RESULT:      -6.7      0.763      1.292
REMARK  Name = 
REMARK  2 active torsions:
REMARK  status: ('A' for Active; 'I' for Inactive)
REMARK    1  A    between atoms: C_5  and  N_6
REMARK    2  A    between atoms: N_14  and  C_15
REMARK                            x       y       z     vdW  Elec       q    Type
REMARK                         _______ _______ _______ _____ _____    ______ ____
ROOT
ATOM      1  O   UNL     1       1.536   5.093  19.511  0.00  0.00    +0.000 OA
ATOM      2  C   UNL     1       2.400   5.653  18.850  0.00  0.00    +0.000 C 
ATOM      3  C   UNL     1       3.451   4.927  18.110  0.00  0.00    +0.000 C 
ATOM      4  I   UNL     1       3.445   2.924  17.918  0.00  0.00    +0.000 I 
ATOM      5  C   UNL     1       4.270   5.821  17.554  0.00  0.00    +0.000 C 
ATOM      6  C   UNL     1       3.758   7.178  17.955  0.00  0.00    +0.000 C 
ATOM      7  O   UNL     1       4.309   8.215  17.615  0.00  0.00    +0.000 OA
ATOM      8  N   UNL     1       2.620   6.994  18.686  0.00  0.00    +0.000 N 
ENDROOT
BRANCH   8   9
ATOM      9  C   UNL     1       1.781   8.028  19.189  0.00  0.00    +0.000 A 
ATOM     10  C   UNL     1       1.197   8.961  18.318  0.00  0.00    +0.000 A 
ATOM     11  C   UNL     1       0.400  10.007  18.795  0.00  0.00    +0.000 A 
ATOM     12  C   UNL     1       0.153  10.135  20.159  0.00  0.00    +0.000 A 
ATOM     13 CL   UNL     1      -0.841  11.448  20.678  0.00  0.00    +0.000 Cl
ATOM     14  C   UNL     1       0.713   9.212  21.044  0.00  0.00    +0.000 A 
ATOM     15 CL   UNL     1       0.437   9.292  22.749  0.00  0.00    +0.000 Cl
ATOM     16  C   UNL     1       1.527   8.174  20.562  0.00  0.00    +0.000 A 
ENDBRANCH   8   9
BRANCH   5  17
ATOM     17  N   UNL     1       5.376   5.682  16.731  0.00  0.00    +0.000 N 
ATOM     18  C   UNL     1       5.310   5.599  15.265  0.00  0.00    +0.000 C 
ATOM     19  C   UNL     1       6.158   4.412  14.778  0.00  0.00    +0.000 C 
ATOM     20  O   UNL     1       7.515   4.509  15.241  0.00  0.00    +0.000 OA
ATOM     21  C   UNL     1       7.550   4.508  16.679  0.00  0.00    +0.000 C 
ATOM     22  C   UNL     1       6.755   5.685  17.255  0.00  0.00    +0.000 C 
ENDBRANCH   5  17
TORSDOF 2
ENDMDL
MODEL 9
REMARK VINA RESULT:      -6.6      2.549      3.444
REMARK  Name = 
REMARK  2 active torsions:
REMARK  status: ('A' for Active; 'I' for Inactive)
REMARK    1  A    between atoms: C_5  and  N_6
REMARK    2  A    between atoms: N_14  and  C_15
REMARK                            x       y       z     vdW  Elec       q    Type
REMARK                         _______ _______ _______ _____ _____    ______ ____
ROOT
ATOM      1  O   UNL     1       3.304   8.818  17.345  0.00  0.00    +0.000 OA
ATOM      2  C   UNL     1       3.131   7.755  17.927  0.00  0.00    +0.000 C 
ATOM      3  C   UNL     1       3.827   6.508  17.556  0.00  0.00    +0.000 C 
ATOM      4  I   UNL     1       5.312   6.463  16.199  0.00  0.00    +0.000 I 
ATOM      5  C   UNL     1       3.368   5.523  18.331  0.00  0.00    +0.000 C 
ATOM      6  C   UNL     1       2.325   6.134  19.227  0.00  0.00    +0.000 C 
ATOM      7  O   UNL     1       1.699   5.479  20.047  0.00  0.00    +0.000 OA
ATOM      8  N   UNL     1       2.274   7.470  18.955  0.00  0.00    +0.000 N 
ENDROOT
BRANCH   8   9
ATOM      9  C   UNL     1       1.472   8.426  19.640  0.00  0.00    +0.000 A 
ATOM     10  C   UNL     1       0.792   9.427  18.930  0.00  0.00    +0.000 A 
ATOM     11  C   UNL     1       0.028  10.399  19.586  0.00  0.00    +0.000 A 
ATOM     12  C   UNL     1      -0.087  10.381  20.974  0.00  0.00    +0.000 A 
ATOM     13 CL   UNL     1      -1.047  11.608  21.718  0.00  0.00    +0.000 Cl
ATOM     14  C   UNL     1       0.569   9.387  21.702  0.00  0.00    +0.000 A 
ATOM     15 CL   UNL     1       0.458   9.285  23.424  0.00  0.00    +0.000 Cl
ATOM     16  C   UNL     1       1.349   8.424  21.039  0.00  0.00    +0.000 A 
ENDBRANCH   8   9
BRANCH   5  17
ATOM     17  N   UNL     1       3.708   4.184  18.430  0.00  0.00    +0.000 N 
ATOM     18  C   UNL     1       3.198   3.133  17.537  0.00  0.00    +0.000 C 
ATOM     19  C   UNL     1       2.696   1.945  18.376  0.00  0.00    +0.000 C 
ATOM     20  O   UNL     1       3.724   1.444  19.246  0.00  0.00    +0.000 OA
ATOM     21  C   UNL     1       4.146   2.473  20.159  0.00  0.00    +0.000 C 
ATOM     22  C   UNL     1       4.697   3.690  19.408  0.00  0.00    +0.000 C 
ENDBRANCH   5  17
TORSDOF 2
ENDMDL
