MODEL 1
REMARK VINA RESULT:      -8.2      0.000      0.000
REMARK  Name = 
REMARK  2 active torsions:
REMARK  status: ('A' for Active; 'I' for Inactive)
REMARK    1  A    between atoms: N_5  and  C_6
REMARK    2  A    between atoms: N_18  and  C_19
REMARK                            x       y       z     vdW  Elec       q    Type
REMARK                         _______ _______ _______ _____ _____    ______ ____
ROOT
ATOM      1  O   UNL     1       1.779   5.489  18.814  0.00  0.00    +0.000 OA
ATOM      2  C   UNL     1       2.803   5.974  18.343  0.00  0.00    +0.000 C 
ATOM      3  N   UNL     1       3.906   5.248  17.916  0.00  0.00    +0.000 N 
ATOM      4  C   UNL     1       3.980   3.871  17.823  0.00  0.00    +0.000 C 
ATOM      5  N   UNL     1       4.765   3.259  16.992  0.00  0.00    +0.000 NA
ATOM      6  N   UNL     1       3.217   3.167  18.707  0.00  0.00    +0.000 N 
ATOM      7  C   UNL     1       2.177   2.225  18.308  0.00  0.00    +0.000 C 
ATOM      8  C   UNL     1       0.999   2.346  19.297  0.00  0.00    +0.000 C 
ATOM      9  O   UNL     1       1.422   2.150  20.663  0.00  0.00    +0.000 OA
ATOM     10  C   UNL     1       2.425   3.121  21.016  0.00  0.00    +0.000 C 
ATOM     11  C   UNL     1       3.646   3.006  20.097  0.00  0.00    +0.000 C 
ATOM     12  N   UNL     1       2.963   7.338  18.139  0.00  0.00    +0.000 N 
ATOM     13  H   UNL     1       4.663   5.767  17.507  0.00  0.00    +0.000 HD
ATOM     14  H   UNL     1       3.416   7.597  17.275  0.00  0.00    +0.000 HD
ENDROOT
BRANCH   5  15
ATOM     15  C   UNL     1       5.632   3.854  16.064  0.00  0.00    +0.000 A 
ATOM     16  C   UNL     1       5.274   3.763  14.707  0.00  0.00    +0.000 A 
ATOM     17  C   UNL     1       6.066   4.336  13.705  0.00  0.00    +0.000 A 
ATOM     18  C   UNL     1       7.245   4.993  14.044  0.00  0.00    +0.000 A 
ATOM     19  C   UNL     1       7.601   5.121  15.382  0.00  0.00    +0.000 A 
ATOM     20  C   UNL     1       6.775   4.594  16.380  0.00  0.00    +0.000 A 
ENDBRANCH   5  15
BRANCH  12  21
ATOM     21  C   UNL     1       2.048   8.277  18.671  0.00  0.00    +0.000 A 
ATOM     22  C   UNL     1       1.761   8.321  20.041  0.00  0.00    +0.000 A 
ATOM     23  C   UNL     1       0.861   9.258  20.548  0.00  0.00    +0.000 A 
ATOM     24  C   UNL     1       0.228  10.149  19.684  0.00  0.00    +0.000 A 
ATOM     25  C   UNL     1       0.509  10.111  18.318  0.00  0.00    +0.000 A 
ATOM     26  C   UNL     1       1.434   9.193  17.813  0.00  0.00    +0.000 A 
ENDBRANCH  12  21
TORSDOF 2
ENDMDL
MODEL 2
REMARK VINA RESULT:      -8.1      0.301      1.418
REMARK  Name = 
REMARK  2 active torsions:
REMARK  status: ('A' for Active; 'I' for Inactive)
REMARK    1  A    between atoms: N_5  and  C_6
REMARK    2  A    between atoms: N_18  and  C_19
REMARK                            x       y       z     vdW  Elec       q    Type
REMARK                         _______ _______ _______ _____ _____    ______ ____
ROOT
ATOM      1  O   UNL     1       1.623   5.610  19.017  0.00  0.00    +0.000 OA
ATOM      2  C   UNL     1       2.637   6.075  18.507  0.00  0.00    +0.000 C 
ATOM      3  N   UNL     1       3.724   5.331  18.073  0.00  0.00    +0.000 N 
ATOM      4  C   UNL     1       3.788   3.951  18.016  0.00  0.00    +0.000 C 
ATOM      5  N   UNL     1       4.548   3.310  17.183  0.00  0.00    +0.000 NA
ATOM      6  N   UNL     1       3.043   3.277  18.940  0.00  0.00    +0.000 N 
ATOM      7  C   UNL     1       1.988   2.331  18.593  0.00  0.00    +0.000 C 
ATOM      8  C   UNL     1       0.836   2.487  19.608  0.00  0.00    +0.000 C 
ATOM      9  O   UNL     1       1.293   2.327  20.968  0.00  0.00    +0.000 OA
ATOM     10  C   UNL     1       2.311   3.300  21.268  0.00  0.00    +0.000 C 
ATOM     11  C   UNL     1       3.507   3.152  20.321  0.00  0.00    +0.000 C 
ATOM     12  N   UNL     1       2.800   7.432  18.261  0.00  0.00    +0.000 N 
ATOM     13  H   UNL     1       4.474   5.832  17.630  0.00  0.00    +0.000 HD
ATOM     14  H   UNL     1       3.232   7.664  17.379  0.00  0.00    +0.000 HD
ENDROOT
BRANCH   5  15
ATOM     15  C   UNL     1       5.394   3.874  16.217  0.00  0.00    +0.000 A 
ATOM     16  C   UNL     1       6.618   4.397  16.670  0.00  0.00    +0.000 A 
ATOM     17  C   UNL     1       7.538   4.970  15.783  0.00  0.00    +0.000 A 
ATOM     18  C   UNL     1       7.238   5.047  14.427  0.00  0.00    +0.000 A 
ATOM     19  C   UNL     1       6.047   4.507  13.954  0.00  0.00    +0.000 A 
ATOM     20  C   UNL     1       5.158   3.888  14.840  0.00  0.00    +0.000 A 
ENDBRANCH   5  15
BRANCH  12  21
ATOM     21  C   UNL     1       1.904   8.391  18.790  0.00  0.00    +0.000 A 
ATOM     22  C   UNL     1       1.235   9.300  17.962  0.00  0.00    +0.000 A 
ATOM     23  C   UNL     1       0.350  10.234  18.501  0.00  0.00    +0.000 A 
ATOM     24  C   UNL     1       0.140  10.275  19.878  0.00  0.00    +0.000 A 
ATOM     25  C   UNL     1       0.803   9.371  20.710  0.00  0.00    +0.000 A 
ATOM     26  C   UNL     1       1.666   8.415  20.167  0.00  0.00    +0.000 A 
ENDBRANCH  12  21
TORSDOF 2
ENDMDL
MODEL 3
REMARK VINA RESULT:      -7.5      2.102      2.509
REMARK  Name = 
REMARK  2 active torsions:
REMARK  status: ('A' for Active; 'I' for Inactive)
REMARK    1  A    between atoms: N_5  and  C_6
REMARK    2  A    between atoms: N_18  and  C_19
REMARK                            x       y       z     vdW  Elec       q    Type
REMARK                         _______ _______ _______ _____ _____    ______ ____
ROOT
ATOM      1  O   UNL     1       1.230   6.081  19.922  0.00  0.00    +0.000 OA
ATOM      2  C   UNL     1       2.293   6.672  20.077  0.00  0.00    +0.000 C 
ATOM      3  N   UNL     1       3.550   6.120  19.874  0.00  0.00    +0.000 N 
ATOM      4  C   UNL     1       3.807   4.872  19.335  0.00  0.00    +0.000 C 
ATOM      5  N   UNL     1       4.903   4.585  18.705  0.00  0.00    +0.000 NA
ATOM      6  N   UNL     1       2.859   3.917  19.555  0.00  0.00    +0.000 N 
ATOM      7  C   UNL     1       2.147   3.222  18.488  0.00  0.00    +0.000 C 
ATOM      8  C   UNL     1       0.685   3.008  18.930  0.00  0.00    +0.000 C 
ATOM      9  O   UNL     1       0.603   2.309  20.191  0.00  0.00    +0.000 OA
ATOM     10  C   UNL     1       1.294   3.048  21.215  0.00  0.00    +0.000 C 
ATOM     11  C   UNL     1       2.770   3.241  20.850  0.00  0.00    +0.000 C 
ATOM     12  N   UNL     1       2.363   8.010  20.445  0.00  0.00    +0.000 N 
ATOM     13  H   UNL     1       4.341   6.728  19.993  0.00  0.00    +0.000 HD
ATOM     14  H   UNL     1       3.066   8.554  19.968  0.00  0.00    +0.000 HD
ENDROOT
BRANCH   5  15
ATOM     15  C   UNL     1       5.975   5.452  18.450  0.00  0.00    +0.000 A 
ATOM     16  C   UNL     1       5.853   6.308  17.340  0.00  0.00    +0.000 A 
ATOM     17  C   UNL     1       6.862   7.220  17.009  0.00  0.00    +0.000 A 
ATOM     18  C   UNL     1       8.024   7.275  17.772  0.00  0.00    +0.000 A 
ATOM     19  C   UNL     1       8.152   6.460  18.891  0.00  0.00    +0.000 A 
ATOM     20  C   UNL     1       7.115   5.592  19.247  0.00  0.00    +0.000 A 
ENDBRANCH   5  15
BRANCH  12  21
ATOM     21  C   UNL     1       1.218   8.714  20.886  0.00  0.00    +0.000 A 
ATOM     22  C   UNL     1       0.753   8.603  22.201  0.00  0.00    +0.000 A 
ATOM     23  C   UNL     1      -0.374   9.311  22.619  0.00  0.00    +0.000 A 
ATOM     24  C   UNL     1      -1.054  10.125  21.716  0.00  0.00    +0.000 A 
ATOM     25  C   UNL     1      -0.596  10.242  20.403  0.00  0.00    +0.000 A 
ATOM     26  C   UNL     1       0.551   9.556  19.992  0.00  0.00    +0.000 A 
ENDBRANCH  12  21
TORSDOF 2
ENDMDL
MODEL 4
REMARK VINA RESULT:      -7.4      2.145      2.922
REMARK  Name = 
REMARK  2 active torsions:
REMARK  status: ('A' for Active; 'I' for Inactive)
REMARK    1  A    between atoms: N_5  and  C_6
REMARK    2  A    between atoms: N_18  and  C_19
REMARK                            x       y       z     vdW  Elec       q    Type
REMARK                         _______ _______ _______ _____ _____    ______ ____
ROOT
ATOM      1  O   UNL     1       1.194   6.232  20.079  0.00  0.00    +0.000 OA
ATOM      2  C   UNL     1       2.268   6.815  20.184  0.00  0.00    +0.000 C 
ATOM      3  N   UNL     1       3.507   6.263  19.893  0.00  0.00    +0.000 N 
ATOM      4  C   UNL     1       3.725   5.028  19.312  0.00  0.00    +0.000 C 
ATOM      5  N   UNL     1       4.780   4.751  18.610  0.00  0.00    +0.000 NA
ATOM      6  N   UNL     1       2.787   4.071  19.566  0.00  0.00    +0.000 N 
ATOM      7  C   UNL     1       2.009   3.404  18.527  0.00  0.00    +0.000 C 
ATOM      8  C   UNL     1       0.574   3.185  19.052  0.00  0.00    +0.000 C 
ATOM      9  O   UNL     1       0.564   2.457  20.298  0.00  0.00    +0.000 OA
ATOM     10  C   UNL     1       1.319   3.170  21.296  0.00  0.00    +0.000 C 
ATOM     11  C   UNL     1       2.772   3.366  20.848  0.00  0.00    +0.000 C 
ATOM     12  N   UNL     1       2.366   8.144  20.578  0.00  0.00    +0.000 N 
ATOM     13  H   UNL     1       4.307   6.865  19.979  0.00  0.00    +0.000 HD
ATOM     14  H   UNL     1       3.043   8.696  20.073  0.00  0.00    +0.000 HD
ENDROOT
BRANCH   5  15
ATOM     15  C   UNL     1       5.839   5.620  18.311  0.00  0.00    +0.000 A 
ATOM     16  C   UNL     1       6.956   5.581  19.165  0.00  0.00    +0.000 A 
ATOM     17  C   UNL     1       8.070   6.400  18.944  0.00  0.00    +0.000 A 
ATOM     18  C   UNL     1       8.076   7.289  17.874  0.00  0.00    +0.000 A 
ATOM     19  C   UNL     1       6.995   7.320  17.000  0.00  0.00    +0.000 A 
ATOM     20  C   UNL     1       5.910   6.460  17.196  0.00  0.00    +0.000 A 
ENDBRANCH   5  15
BRANCH  12  21
ATOM     21  C   UNL     1       1.253   8.842  21.103  0.00  0.00    +0.000 A 
ATOM     22  C   UNL     1       0.401   9.584  20.276  0.00  0.00    +0.000 A 
ATOM     23  C   UNL     1      -0.695  10.260  20.810  0.00  0.00    +0.000 A 
ATOM     24  C   UNL     1      -0.938  10.213  22.181  0.00  0.00    +0.000 A 
ATOM     25  C   UNL     1      -0.093   9.474  23.012  0.00  0.00    +0.000 A 
ATOM     26  C   UNL     1       0.988   8.771  22.472  0.00  0.00    +0.000 A 
ENDBRANCH  12  21
TORSDOF 2
ENDMDL
MODEL 5
REMARK VINA RESULT:      -7.0      1.542      6.502
REMARK  Name = 
REMARK  2 active torsions:
REMARK  status: ('A' for Active; 'I' for Inactive)
REMARK    1  A    between atoms: N_5  and  C_6
REMARK    2  A    between atoms: N_18  and  C_19
REMARK                            x       y       z     vdW  Elec       q    Type
REMARK                         _______ _______ _______ _____ _____    ______ ____
ROOT
ATOM      1  O   UNL     1       3.965   4.544  18.841  0.00  0.00    +0.000 OA
ATOM      2  C   UNL     1       3.544   5.629  18.454  0.00  0.00    +0.000 C 
ATOM      3  N   UNL     1       2.476   6.316  19.012  0.00  0.00    +0.000 N 
ATOM      4  C   UNL     1       1.805   5.964  20.169  0.00  0.00    +0.000 C 
ATOM      5  N   UNL     1       1.194   6.824  20.923  0.00  0.00    +0.000 NA
ATOM      6  N   UNL     1       1.761   4.631  20.456  0.00  0.00    +0.000 N 
ATOM      7  C   UNL     1       2.301   4.049  21.679  0.00  0.00    +0.000 C 
ATOM      8  C   UNL     1       2.938   2.686  21.335  0.00  0.00    +0.000 C 
ATOM      9  O   UNL     1       2.003   1.808  20.675  0.00  0.00    +0.000 OA
ATOM     10  C   UNL     1       1.523   2.415  19.460  0.00  0.00    +0.000 C 
ATOM     11  C   UNL     1       0.828   3.750  19.753  0.00  0.00    +0.000 C 
ATOM     12  N   UNL     1       4.131   6.333  17.410  0.00  0.00    +0.000 N 
ATOM     13  H   UNL     1       2.263   7.219  18.628  0.00  0.00    +0.000 HD
ATOM     14  H   UNL     1       4.207   7.329  17.548  0.00  0.00    +0.000 HD
ENDROOT
BRANCH   5  15
ATOM     15  C   UNL     1       1.120   8.211  20.723  0.00  0.00    +0.000 A 
ATOM     16  C   UNL     1       0.937   9.011  21.865  0.00  0.00    +0.000 A 
ATOM     17  C   UNL     1       0.863  10.406  21.773  0.00  0.00    +0.000 A 
ATOM     18  C   UNL     1       0.950  11.024  20.529  0.00  0.00    +0.000 A 
ATOM     19  C   UNL     1       1.163  10.253  19.392  0.00  0.00    +0.000 A 
ATOM     20  C   UNL     1       1.290   8.865  19.500  0.00  0.00    +0.000 A 
ENDBRANCH   5  15
BRANCH  12  21
ATOM     21  C   UNL     1       5.109   5.739  16.577  0.00  0.00    +0.000 A 
ATOM     22  C   UNL     1       4.755   4.863  15.545  0.00  0.00    +0.000 A 
ATOM     23  C   UNL     1       5.733   4.293  14.730  0.00  0.00    +0.000 A 
ATOM     24  C   UNL     1       7.077   4.585  14.954  0.00  0.00    +0.000 A 
ATOM     25  C   UNL     1       7.438   5.458  15.981  0.00  0.00    +0.000 A 
ATOM     26  C   UNL     1       6.455   6.053  16.778  0.00  0.00    +0.000 A 
ENDBRANCH  12  21
TORSDOF 2
ENDMDL
MODEL 6
REMARK VINA RESULT:      -6.9      0.951      1.419
REMARK  Name = 
REMARK  2 active torsions:
REMARK  status: ('A' for Active; 'I' for Inactive)
REMARK    1  A    between atoms: N_5  and  C_6
REMARK    2  A    between atoms: N_18  and  C_19
REMARK                            x       y       z     vdW  Elec       q    Type
REMARK                         _______ _______ _______ _____ _____    ______ ____
ROOT
ATOM      1  O   UNL     1       1.479   5.631  19.649  0.00  0.00    +0.000 OA
ATOM      2  C   UNL     1       2.440   6.148  19.090  0.00  0.00    +0.000 C 
ATOM      3  N   UNL     1       3.494   5.457  18.512  0.00  0.00    +0.000 N 
ATOM      4  C   UNL     1       3.569   4.085  18.349  0.00  0.00    +0.000 C 
ATOM      5  N   UNL     1       4.261   3.520  17.409  0.00  0.00    +0.000 NA
ATOM      6  N   UNL     1       2.915   3.334  19.280  0.00  0.00    +0.000 N 
ATOM      7  C   UNL     1       1.844   2.397  18.957  0.00  0.00    +0.000 C 
ATOM      8  C   UNL     1       0.783   2.459  20.075  0.00  0.00    +0.000 C 
ATOM      9  O   UNL     1       1.357   2.210  21.376  0.00  0.00    +0.000 OA
ATOM     10  C   UNL     1       2.386   3.177  21.658  0.00  0.00    +0.000 C 
ATOM     11  C   UNL     1       3.498   3.118  20.605  0.00  0.00    +0.000 C 
ATOM     12  N   UNL     1       2.566   7.523  18.931  0.00  0.00    +0.000 N 
ATOM     13  H   UNL     1       4.197   6.002  18.044  0.00  0.00    +0.000 HD
ATOM     14  H   UNL     1       2.917   7.824  18.034  0.00  0.00    +0.000 HD
ENDROOT
BRANCH   5  15
ATOM     15  C   UNL     1       5.015   4.166  16.418  0.00  0.00    +0.000 A 
ATOM     16  C   UNL     1       5.648   3.350  15.465  0.00  0.00    +0.000 A 
ATOM     17  C   UNL     1       6.412   3.899  14.428  0.00  0.00    +0.000 A 
ATOM     18  C   UNL     1       6.573   5.278  14.342  0.00  0.00    +0.000 A 
ATOM     19  C   UNL     1       5.930   6.105  15.256  0.00  0.00    +0.000 A 
ATOM     20  C   UNL     1       5.124   5.551  16.255  0.00  0.00    +0.000 A 
ENDBRANCH   5  15
BRANCH  12  21
ATOM     21  C   UNL     1       1.708   8.425  19.603  0.00  0.00    +0.000 A 
ATOM     22  C   UNL     1       1.076   9.474  18.925  0.00  0.00    +0.000 A 
ATOM     23  C   UNL     1       0.228  10.349  19.603  0.00  0.00    +0.000 A 
ATOM     24  C   UNL     1       0.019  10.190  20.971  0.00  0.00    +0.000 A 
ATOM     25  C   UNL     1       0.645   9.147  21.654  0.00  0.00    +0.000 A 
ATOM     26  C   UNL     1       1.471   8.251  20.969  0.00  0.00    +0.000 A 
ENDBRANCH  12  21
TORSDOF 2
ENDMDL
MODEL 7
REMARK VINA RESULT:      -6.9      3.105      5.215
REMARK  Name = 
REMARK  2 active torsions:
REMARK  status: ('A' for Active; 'I' for Inactive)
REMARK    1  A    between atoms: N_5  and  C_6
REMARK    2  A    between atoms: N_18  and  C_19
REMARK                            x       y       z     vdW  Elec       q    Type
REMARK                         _______ _______ _______ _____ _____    ______ ____
ROOT
ATOM      1  O   UNL     1       4.889   4.080  17.992  0.00  0.00    +0.000 OA
ATOM      2  C   UNL     1       4.257   3.958  16.948  0.00  0.00    +0.000 C 
ATOM      3  N   UNL     1       4.762   4.190  15.677  0.00  0.00    +0.000 N 
ATOM      4  C   UNL     1       6.083   4.460  15.370  0.00  0.00    +0.000 C 
ATOM      5  N   UNL     1       6.614   4.180  14.220  0.00  0.00    +0.000 NA
ATOM      6  N   UNL     1       6.804   5.105  16.332  0.00  0.00    +0.000 N 
ATOM      7  C   UNL     1       8.010   4.557  16.942  0.00  0.00    +0.000 C 
ATOM      8  C   UNL     1       8.019   4.934  18.438  0.00  0.00    +0.000 C 
ATOM      9  O   UNL     1       7.904   6.360  18.632  0.00  0.00    +0.000 OA
ATOM     10  C   UNL     1       6.685   6.846  18.038  0.00  0.00    +0.000 C 
ATOM     11  C   UNL     1       6.650   6.545  16.536  0.00  0.00    +0.000 C 
ATOM     12  N   UNL     1       2.938   3.521  16.915  0.00  0.00    +0.000 N 
ATOM     13  H   UNL     1       4.150   4.008  14.902  0.00  0.00    +0.000 HD
ATOM     14  H   UNL     1       2.714   2.876  16.173  0.00  0.00    +0.000 HD
ENDROOT
BRANCH   5  15
ATOM     15  C   UNL     1       5.980   3.565  13.131  0.00  0.00    +0.000 A 
ATOM     16  C   UNL     1       4.770   4.133  12.693  0.00  0.00    +0.000 A 
ATOM     17  C   UNL     1       4.066   3.600  11.607  0.00  0.00    +0.000 A 
ATOM     18  C   UNL     1       4.553   2.473  10.951  0.00  0.00    +0.000 A 
ATOM     19  C   UNL     1       5.763   1.915  11.348  0.00  0.00    +0.000 A 
ATOM     20  C   UNL     1       6.487   2.487  12.399  0.00  0.00    +0.000 A 
ENDBRANCH   5  15
BRANCH  12  21
ATOM     21  C   UNL     1       2.169   3.408  18.097  0.00  0.00    +0.000 A 
ATOM     22  C   UNL     1       1.796   4.536  18.837  0.00  0.00    +0.000 A 
ATOM     23  C   UNL     1       1.031   4.405  19.995  0.00  0.00    +0.000 A 
ATOM     24  C   UNL     1       0.647   3.139  20.432  0.00  0.00    +0.000 A 
ATOM     25  C   UNL     1       1.015   2.009  19.700  0.00  0.00    +0.000 A 
ATOM     26  C   UNL     1       1.755   2.143  18.522  0.00  0.00    +0.000 A 
ENDBRANCH  12  21
TORSDOF 2
ENDMDL
MODEL 8
REMARK VINA RESULT:      -6.9      3.091      5.192
REMARK  Name = 
REMARK  2 active torsions:
REMARK  status: ('A' for Active; 'I' for Inactive)
REMARK    1  A    between atoms: N_5  and  C_6
REMARK    2  A    between atoms: N_18  and  C_19
REMARK                            x       y       z     vdW  Elec       q    Type
REMARK                         _______ _______ _______ _____ _____    ______ ____
ROOT
ATOM      1  O   UNL     1       4.846   4.071  17.974  0.00  0.00    +0.000 OA
ATOM      2  C   UNL     1       4.198   3.980  16.937  0.00  0.00    +0.000 C 
ATOM      3  N   UNL     1       4.687   4.237  15.665  0.00  0.00    +0.000 N 
ATOM      4  C   UNL     1       6.006   4.501  15.345  0.00  0.00    +0.000 C 
ATOM      5  N   UNL     1       6.518   4.244  14.182  0.00  0.00    +0.000 NA
ATOM      6  N   UNL     1       6.747   5.116  16.311  0.00  0.00    +0.000 N 
ATOM      7  C   UNL     1       7.956   4.542  16.891  0.00  0.00    +0.000 C 
ATOM      8  C   UNL     1       7.990   4.884  18.395  0.00  0.00    +0.000 C 
ATOM      9  O   UNL     1       7.892   6.306  18.625  0.00  0.00    +0.000 OA
ATOM     10  C   UNL     1       6.670   6.818  18.060  0.00  0.00    +0.000 C 
ATOM     11  C   UNL     1       6.611   6.553  16.551  0.00  0.00    +0.000 C 
ATOM     12  N   UNL     1       2.875   3.556  16.913  0.00  0.00    +0.000 N 
ATOM     13  H   UNL     1       4.062   4.079  14.894  0.00  0.00    +0.000 HD
ATOM     14  H   UNL     1       2.634   2.931  16.159  0.00  0.00    +0.000 HD
ENDROOT
BRANCH   5  15
ATOM     15  C   UNL     1       5.863   3.660  13.088  0.00  0.00    +0.000 A 
ATOM     16  C   UNL     1       6.490   2.556  12.483  0.00  0.00    +0.000 A 
ATOM     17  C   UNL     1       5.911   1.896  11.393  0.00  0.00    +0.000 A 
ATOM     18  C   UNL     1       4.699   2.344  10.876  0.00  0.00    +0.000 A 
ATOM     19  C   UNL     1       4.047   3.413  11.479  0.00  0.00    +0.000 A 
ATOM     20  C   UNL     1       4.606   4.032  12.601  0.00  0.00    +0.000 A 
ENDBRANCH   5  15
BRANCH  12  21
ATOM     21  C   UNL     1       2.121   3.422  18.103  0.00  0.00    +0.000 A 
ATOM     22  C   UNL     1       1.672   2.173  18.546  0.00  0.00    +0.000 A 
ATOM     23  C   UNL     1       0.936   2.060  19.725  0.00  0.00    +0.000 A 
ATOM     24  C   UNL     1       0.629   3.201  20.462  0.00  0.00    +0.000 A 
ATOM     25  C   UNL     1       1.074   4.450  20.028  0.00  0.00    +0.000 A 
ATOM     26  C   UNL     1       1.838   4.560  18.862  0.00  0.00    +0.000 A 
ENDBRANCH  12  21
TORSDOF 2
ENDMDL
MODEL 9
REMARK VINA RESULT:      -6.8      1.539      6.380
REMARK  Name = 
REMARK  2 active torsions:
REMARK  status: ('A' for Active; 'I' for Inactive)
REMARK    1  A    between atoms: N_5  and  C_6
REMARK    2  A    between atoms: N_18  and  C_19
REMARK                            x       y       z     vdW  Elec       q    Type
REMARK                         _______ _______ _______ _____ _____    ______ ____
ROOT
ATOM      1  O   UNL     1       3.989   4.604  18.858  0.00  0.00    +0.000 OA
ATOM      2  C   UNL     1       3.583   5.696  18.476  0.00  0.00    +0.000 C 
ATOM      3  N   UNL     1       2.518   6.391  19.031  0.00  0.00    +0.000 N 
ATOM      4  C   UNL     1       1.835   6.038  20.180  0.00  0.00    +0.000 C 
ATOM      5  N   UNL     1       1.227   6.899  20.936  0.00  0.00    +0.000 NA
ATOM      6  N   UNL     1       1.774   4.704  20.456  0.00  0.00    +0.000 N 
ATOM      7  C   UNL     1       2.298   4.106  21.680  0.00  0.00    +0.000 C 
ATOM      8  C   UNL     1       2.923   2.740  21.331  0.00  0.00    +0.000 C 
ATOM      9  O   UNL     1       1.983   1.876  20.656  0.00  0.00    +0.000 OA
ATOM     10  C   UNL     1       1.520   2.497  19.443  0.00  0.00    +0.000 C 
ATOM     11  C   UNL     1       0.837   3.838  19.740  0.00  0.00    +0.000 C 
ATOM     12  N   UNL     1       4.186   6.401  17.442  0.00  0.00    +0.000 N 
ATOM     13  H   UNL     1       2.318   7.299  18.651  0.00  0.00    +0.000 HD
ATOM     14  H   UNL     1       4.272   7.396  17.588  0.00  0.00    +0.000 HD
ENDROOT
BRANCH   5  15
ATOM     15  C   UNL     1       1.169   8.288  20.746  0.00  0.00    +0.000 A 
ATOM     16  C   UNL     1       1.242   8.753  19.421  0.00  0.00    +0.000 A 
ATOM     17  C   UNL     1       1.180  10.120  19.124  0.00  0.00    +0.000 A 
ATOM     18  C   UNL     1       1.065  11.048  20.155  0.00  0.00    +0.000 A 
ATOM     19  C   UNL     1       0.960  10.607  21.469  0.00  0.00    +0.000 A 
ATOM     20  C   UNL     1       0.967   9.237  21.751  0.00  0.00    +0.000 A 
ENDBRANCH   5  15
BRANCH  12  21
ATOM     21  C   UNL     1       5.164   5.804  16.613  0.00  0.00    +0.000 A 
ATOM     22  C   UNL     1       6.530   6.041  16.807  0.00  0.00    +0.000 A 
ATOM     23  C   UNL     1       7.480   5.437  15.984  0.00  0.00    +0.000 A 
ATOM     24  C   UNL     1       7.068   4.602  14.948  0.00  0.00    +0.000 A 
ATOM     25  C   UNL     1       5.708   4.360  14.748  0.00  0.00    +0.000 A 
ATOM     26  C   UNL     1       4.757   4.941  15.592  0.00  0.00    +0.000 A 
ENDBRANCH  12  21
TORSDOF 2
ENDMDL
