MODEL 1
REMARK VINA RESULT:      -6.9      0.000      0.000
REMARK  Name = 
REMARK  13 active torsions:
REMARK  status: ('A' for Active; 'I' for Inactive)
REMARK    1  A    between atoms: C_1  and  O_2
REMARK    2  A    between atoms: O_2  and  C_3
REMARK    3  A    between atoms: C_5  and  N_6
REMARK    4  A    between atoms: N_6  and  C_7
REMARK    5  A    between atoms: C_7  and  C_8
REMARK    6  A    between atoms: C_7  and  C_9
REMARK    7  A    between atoms: C_9  and  C_10
REMARK    8  A    between atoms: C_10  and  C_11
REMARK    9  A    between atoms: C_11  and  C_12
REMARK   10  A    between atoms: C_12  and  N_13
REMARK   11  A    between atoms: C_18  and  C_19
REMARK   12  A    between atoms: C_21  and  O_22
REMARK   13  A    between atoms: O_22  and  C_23
REMARK                            x       y       z     vdW  Elec       q    Type
REMARK                         _______ _______ _______ _____ _____    ______ ____
ROOT
ATOM      1  C   UNL     1       3.531   3.292  19.024  0.00  0.00    +0.000 A 
ATOM      2  C   UNL     1       4.062   3.508  17.767  0.00  0.00    +0.000 A 
ATOM      3  C   UNL     1       4.185   4.796  17.257  0.00  0.00    +0.000 A 
ATOM      4  C   UNL     1       3.520   5.867  17.870  0.00  0.00    +0.000 A 
ATOM      5  N   UNL     1       3.539   7.039  17.201  0.00  0.00    +0.000 NA
ATOM      6  C   UNL     1       2.871   8.083  17.711  0.00  0.00    +0.000 A 
ATOM      7  C   UNL     1       2.220   8.044  18.920  0.00  0.00    +0.000 A 
ATOM      8  C   UNL     1       2.235   6.855  19.664  0.00  0.00    +0.000 A 
ATOM      9  C   UNL     1       1.502   6.876  20.979  0.00  0.00    +0.000 C 
ATOM     10  C   UNL     1       2.893   5.686  19.133  0.00  0.00    +0.000 A 
ATOM     11  C   UNL     1       2.998   4.382  19.743  0.00  0.00    +0.000 A 
ENDROOT
BRANCH   1  13
ATOM     12  C   UNL     1       4.657   1.645  20.272  0.00  0.00    +0.000 C 
ATOM     13  O   UNL     1       3.486   2.019  19.540  0.00  0.00    +0.000 OA
ENDBRANCH   1  13
BRANCH   3  14
ATOM     14  N   UNL     1       4.957   4.997  16.073  0.00  0.00    +0.000 N 
ATOM     15  H   UNL     1       5.143   6.005  16.003  0.00  0.00    +0.000 HD
BRANCH  14  16
ATOM     16  C   UNL     1       6.157   4.147  15.954  0.00  0.00    +0.000 C 
ATOM     17  C   UNL     1       6.578   4.134  14.485  0.00  0.00    +0.000 C 
BRANCH  16  18
ATOM     18  C   UNL     1       7.302   4.634  16.858  0.00  0.00    +0.000 C 
BRANCH  18  19
ATOM     19  C   UNL     1       7.352   6.164  16.967  0.00  0.00    +0.000 C 
BRANCH  19  20
ATOM     20  C   UNL     1       7.608   6.632  18.400  0.00  0.00    +0.000 C 
BRANCH  20  21
ATOM     21  C   UNL     1       7.173   5.559  19.400  0.00  0.00    +0.000 C 
BRANCH  21  22
ATOM     22  N   UNL     1       8.153   5.428  20.471  0.00  0.00    +0.000 NA
ATOM     23  H   UNL     1       7.772   4.851  21.219  0.00  0.00    +0.000 HD
ATOM     24  H   UNL     1       8.329   6.345  20.879  0.00  0.00    +0.000 HD
ENDBRANCH  21  22
ENDBRANCH  20  21
ENDBRANCH  19  20
ENDBRANCH  18  19
ENDBRANCH  16  18
ENDBRANCH  14  16
ENDBRANCH   3  14
BRANCH  11  25
ATOM     25  O   UNL     1       2.555   4.253  21.044  0.00  0.00    +0.000 OA
ATOM     26  C   UNL     1       1.384   3.447  21.212  0.00  0.00    +0.000 C 
ENDBRANCH  11  25
TORSDOF 9
ENDMDL
MODEL 2
REMARK VINA RESULT:      -6.4      1.211      1.333
REMARK  Name = 
REMARK  13 active torsions:
REMARK  status: ('A' for Active; 'I' for Inactive)
REMARK    1  A    between atoms: C_1  and  O_2
REMARK    2  A    between atoms: O_2  and  C_3
REMARK    3  A    between atoms: C_5  and  N_6
REMARK    4  A    between atoms: N_6  and  C_7
REMARK    5  A    between atoms: C_7  and  C_8
REMARK    6  A    between atoms: C_7  and  C_9
REMARK    7  A    between atoms: C_9  and  C_10
REMARK    8  A    between atoms: C_10  and  C_11
REMARK    9  A    between atoms: C_11  and  C_12
REMARK   10  A    between atoms: C_12  and  N_13
REMARK   11  A    between atoms: C_18  and  C_19
REMARK   12  A    between atoms: C_21  and  O_22
REMARK   13  A    between atoms: O_22  and  C_23
REMARK                            x       y       z     vdW  Elec       q    Type
REMARK                         _______ _______ _______ _____ _____    ______ ____
ROOT
ATOM      1  C   UNL     1       3.033   3.101  18.264  0.00  0.00    +0.000 A 
ATOM      2  C   UNL     1       3.742   3.512  17.153  0.00  0.00    +0.000 A 
ATOM      3  C   UNL     1       4.063   4.852  16.967  0.00  0.00    +0.000 A 
ATOM      4  C   UNL     1       3.439   5.843  17.737  0.00  0.00    +0.000 A 
ATOM      5  N   UNL     1       3.667   7.119  17.360  0.00  0.00    +0.000 NA
ATOM      6  C   UNL     1       3.050   8.107  18.024  0.00  0.00    +0.000 A 
ATOM      7  C   UNL     1       2.246   7.893  19.117  0.00  0.00    +0.000 A 
ATOM      8  C   UNL     1       2.041   6.581  19.567  0.00  0.00    +0.000 A 
ATOM      9  C   UNL     1       1.150   6.413  20.768  0.00  0.00    +0.000 C 
ATOM     10  C   UNL     1       2.638   5.478  18.853  0.00  0.00    +0.000 A 
ATOM     11  C   UNL     1       2.527   4.071  19.155  0.00  0.00    +0.000 A 
ENDROOT
BRANCH   1  13
ATOM     12  C   UNL     1       3.961   0.994  18.754  0.00  0.00    +0.000 C 
ATOM     13  O   UNL     1       2.789   1.764  18.468  0.00  0.00    +0.000 OA
ENDBRANCH   1  13
BRANCH   3  14
ATOM     14  N   UNL     1       5.000   5.201  15.947  0.00  0.00    +0.000 N 
ATOM     15  H   UNL     1       5.315   6.158  16.144  0.00  0.00    +0.000 HD
BRANCH  14  16
ATOM     16  C   UNL     1       6.091   4.231  15.738  0.00  0.00    +0.000 C 
ATOM     17  C   UNL     1       6.195   3.958  14.239  0.00  0.00    +0.000 C 
BRANCH  16  18
ATOM     18  C   UNL     1       7.429   4.735  16.307  0.00  0.00    +0.000 C 
BRANCH  18  19
ATOM     19  C   UNL     1       7.496   4.615  17.835  0.00  0.00    +0.000 C 
BRANCH  19  20
ATOM     20  C   UNL     1       7.512   5.983  18.520  0.00  0.00    +0.000 C 
BRANCH  20  21
ATOM     21  C   UNL     1       7.768   7.092  17.499  0.00  0.00    +0.000 C 
BRANCH  21  22
ATOM     22  N   UNL     1       6.532   7.799  17.188  0.00  0.00    +0.000 NA
ATOM     23  H   UNL     1       6.392   8.557  17.854  0.00  0.00    +0.000 HD
ATOM     24  H   UNL     1       5.744   7.165  17.307  0.00  0.00    +0.000 HD
ENDBRANCH  21  22
ENDBRANCH  20  21
ENDBRANCH  19  20
ENDBRANCH  18  19
ENDBRANCH  16  18
ENDBRANCH  14  16
ENDBRANCH   3  14
BRANCH  11  25
ATOM     25  O   UNL     1       1.907   3.724  20.339  0.00  0.00    +0.000 OA
ATOM     26  C   UNL     1       2.784   3.277  21.378  0.00  0.00    +0.000 C 
ENDBRANCH  11  25
TORSDOF 9
ENDMDL
MODEL 3
REMARK VINA RESULT:      -6.1      1.222      1.437
REMARK  Name = 
REMARK  13 active torsions:
REMARK  status: ('A' for Active; 'I' for Inactive)
REMARK    1  A    between atoms: C_1  and  O_2
REMARK    2  A    between atoms: O_2  and  C_3
REMARK    3  A    between atoms: C_5  and  N_6
REMARK    4  A    between atoms: N_6  and  C_7
REMARK    5  A    between atoms: C_7  and  C_8
REMARK    6  A    between atoms: C_7  and  C_9
REMARK    7  A    between atoms: C_9  and  C_10
REMARK    8  A    between atoms: C_10  and  C_11
REMARK    9  A    between atoms: C_11  and  C_12
REMARK   10  A    between atoms: C_12  and  N_13
REMARK   11  A    between atoms: C_18  and  C_19
REMARK   12  A    between atoms: C_21  and  O_22
REMARK   13  A    between atoms: O_22  and  C_23
REMARK                            x       y       z     vdW  Elec       q    Type
REMARK                         _______ _______ _______ _____ _____    ______ ____
ROOT
ATOM      1  C   UNL     1       3.538   3.438  19.047  0.00  0.00    +0.000 A 
ATOM      2  C   UNL     1       4.065   3.682  17.794  0.00  0.00    +0.000 A 
ATOM      3  C   UNL     1       4.164   4.980  17.303  0.00  0.00    +0.000 A 
ATOM      4  C   UNL     1       3.478   6.028  17.930  0.00  0.00    +0.000 A 
ATOM      5  N   UNL     1       3.475   7.211  17.279  0.00  0.00    +0.000 NA
ATOM      6  C   UNL     1       2.787   8.234  17.803  0.00  0.00    +0.000 A 
ATOM      7  C   UNL     1       2.135   8.165  19.010  0.00  0.00    +0.000 A 
ATOM      8  C   UNL     1       2.173   6.966  19.737  0.00  0.00    +0.000 A 
ATOM      9  C   UNL     1       1.438   6.953  21.052  0.00  0.00    +0.000 C 
ATOM     10  C   UNL     1       2.854   5.817  19.190  0.00  0.00    +0.000 A 
ATOM     11  C   UNL     1       2.983   4.507  19.781  0.00  0.00    +0.000 A 
ENDROOT
BRANCH   1  13
ATOM     12  C   UNL     1       4.677   1.808  20.306  0.00  0.00    +0.000 C 
ATOM     13  O   UNL     1       3.517   2.157  19.545  0.00  0.00    +0.000 OA
ENDBRANCH   1  13
BRANCH   3  14
ATOM     14  N   UNL     1       4.933   5.212  16.122  0.00  0.00    +0.000 N 
ATOM     15  H   UNL     1       4.602   6.097  15.718  0.00  0.00    +0.000 HD
BRANCH  14  16
ATOM     16  C   UNL     1       6.395   5.133  16.300  0.00  0.00    +0.000 C 
ATOM     17  C   UNL     1       7.013   4.782  14.948  0.00  0.00    +0.000 C 
BRANCH  16  18
ATOM     18  C   UNL     1       6.981   6.441  16.858  0.00  0.00    +0.000 C 
BRANCH  18  19
ATOM     19  C   UNL     1       7.632   6.250  18.234  0.00  0.00    +0.000 C 
BRANCH  19  20
ATOM     20  C   UNL     1       8.297   7.532  18.741  0.00  0.00    +0.000 C 
BRANCH  20  21
ATOM     21  C   UNL     1       8.089   8.673  17.745  0.00  0.00    +0.000 C 
BRANCH  21  22
ATOM     22  N   UNL     1       8.732   9.892  18.219  0.00  0.00    +0.000 NA
ATOM     23  H   UNL     1       9.067  10.436  17.425  0.00  0.00    +0.000 HD
ATOM     24  H   UNL     1       9.557   9.646  18.764  0.00  0.00    +0.000 HD
ENDBRANCH  21  22
ENDBRANCH  20  21
ENDBRANCH  19  20
ENDBRANCH  18  19
ENDBRANCH  16  18
ENDBRANCH  14  16
ENDBRANCH   3  14
BRANCH  11  25
ATOM     25  O   UNL     1       2.541   4.350  21.080  0.00  0.00    +0.000 OA
ATOM     26  C   UNL     1       1.416   3.482  21.240  0.00  0.00    +0.000 C 
ENDBRANCH  11  25
TORSDOF 9
ENDMDL
MODEL 4
REMARK VINA RESULT:      -6.1      2.686      6.245
REMARK  Name = 
REMARK  13 active torsions:
REMARK  status: ('A' for Active; 'I' for Inactive)
REMARK    1  A    between atoms: C_1  and  O_2
REMARK    2  A    between atoms: O_2  and  C_3
REMARK    3  A    between atoms: C_5  and  N_6
REMARK    4  A    between atoms: N_6  and  C_7
REMARK    5  A    between atoms: C_7  and  C_8
REMARK    6  A    between atoms: C_7  and  C_9
REMARK    7  A    between atoms: C_9  and  C_10
REMARK    8  A    between atoms: C_10  and  C_11
REMARK    9  A    between atoms: C_11  and  C_12
REMARK   10  A    between atoms: C_12  and  N_13
REMARK   11  A    between atoms: C_18  and  C_19
REMARK   12  A    between atoms: C_21  and  O_22
REMARK   13  A    between atoms: O_22  and  C_23
REMARK                            x       y       z     vdW  Elec       q    Type
REMARK                         _______ _______ _______ _____ _____    ______ ____
ROOT
ATOM      1  C   UNL     1       1.754   4.581  20.339  0.00  0.00    +0.000 A 
ATOM      2  C   UNL     1       1.648   5.928  20.627  0.00  0.00    +0.000 A 
ATOM      3  C   UNL     1       2.138   6.886  19.746  0.00  0.00    +0.000 A 
ATOM      4  C   UNL     1       2.994   6.515  18.701  0.00  0.00    +0.000 A 
ATOM      5  N   UNL     1       3.570   7.527  18.017  0.00  0.00    +0.000 NA
ATOM      6  C   UNL     1       4.444   7.232  17.044  0.00  0.00    +0.000 A 
ATOM      7  C   UNL     1       4.735   5.947  16.657  0.00  0.00    +0.000 A 
ATOM      8  C   UNL     1       4.105   4.878  17.310  0.00  0.00    +0.000 A 
ATOM      9  C   UNL     1       4.468   3.494  16.841  0.00  0.00    +0.000 C 
ATOM     10  C   UNL     1       3.198   5.140  18.402  0.00  0.00    +0.000 A 
ATOM     11  C   UNL     1       2.475   4.176  19.197  0.00  0.00    +0.000 A 
ENDROOT
BRANCH   1  13
ATOM     12  C   UNL     1       2.152   2.965  22.003  0.00  0.00    +0.000 C 
ATOM     13  O   UNL     1       1.199   3.653  21.186  0.00  0.00    +0.000 OA
ENDBRANCH   1  13
BRANCH   3  14
ATOM     14  N   UNL     1       1.792   8.256  19.956  0.00  0.00    +0.000 N 
ATOM     15  H   UNL     1       1.543   8.646  19.040  0.00  0.00    +0.000 HD
BRANCH  14  16
ATOM     16  C   UNL     1       0.791   8.496  21.012  0.00  0.00    +0.000 C 
ATOM     17  C   UNL     1       1.515   9.091  22.218  0.00  0.00    +0.000 C 
BRANCH  16  18
ATOM     18  C   UNL     1      -0.345   9.416  20.534  0.00  0.00    +0.000 C 
BRANCH  18  19
ATOM     19  C   UNL     1       0.091  10.333  19.383  0.00  0.00    +0.000 C 
BRANCH  19  20
ATOM     20  C   UNL     1      -0.945  10.379  18.259  0.00  0.00    +0.000 C 
BRANCH  20  21
ATOM     21  C   UNL     1      -1.734  11.688  18.309  0.00  0.00    +0.000 C 
BRANCH  21  22
ATOM     22  N   UNL     1      -1.179  12.658  17.373  0.00  0.00    +0.000 NA
ATOM     23  H   UNL     1      -0.196  12.450  17.203  0.00  0.00    +0.000 HD
ATOM     24  H   UNL     1      -1.204  13.585  17.796  0.00  0.00    +0.000 HD
ENDBRANCH  21  22
ENDBRANCH  20  21
ENDBRANCH  19  20
ENDBRANCH  18  19
ENDBRANCH  16  18
ENDBRANCH  14  16
ENDBRANCH   3  14
BRANCH  11  25
ATOM     25  O   UNL     1       2.525   2.857  18.793  0.00  0.00    +0.000 OA
ATOM     26  C   UNL     1       1.277   2.301  18.370  0.00  0.00    +0.000 C 
ENDBRANCH  11  25
TORSDOF 9
ENDMDL
MODEL 5
REMARK VINA RESULT:      -6.0      3.104      6.709
REMARK  Name = 
REMARK  13 active torsions:
REMARK  status: ('A' for Active; 'I' for Inactive)
REMARK    1  A    between atoms: C_1  and  O_2
REMARK    2  A    between atoms: O_2  and  C_3
REMARK    3  A    between atoms: C_5  and  N_6
REMARK    4  A    between atoms: N_6  and  C_7
REMARK    5  A    between atoms: C_7  and  C_8
REMARK    6  A    between atoms: C_7  and  C_9
REMARK    7  A    between atoms: C_9  and  C_10
REMARK    8  A    between atoms: C_10  and  C_11
REMARK    9  A    between atoms: C_11  and  C_12
REMARK   10  A    between atoms: C_12  and  N_13
REMARK   11  A    between atoms: C_18  and  C_19
REMARK   12  A    between atoms: C_21  and  O_22
REMARK   13  A    between atoms: O_22  and  C_23
REMARK                            x       y       z     vdW  Elec       q    Type
REMARK                         _______ _______ _______ _____ _____    ______ ____
ROOT
ATOM      1  C   UNL     1       3.795   6.412  17.570  0.00  0.00    +0.000 A 
ATOM      2  C   UNL     1       3.197   7.240  18.500  0.00  0.00    +0.000 A 
ATOM      3  C   UNL     1       2.472   6.712  19.563  0.00  0.00    +0.000 A 
ATOM      4  C   UNL     1       2.091   5.364  19.560  0.00  0.00    +0.000 A 
ATOM      5  N   UNL     1       1.232   4.987  20.531  0.00  0.00    +0.000 NA
ATOM      6  C   UNL     1       0.788   3.722  20.543  0.00  0.00    +0.000 A 
ATOM      7  C   UNL     1       1.214   2.765  19.655  0.00  0.00    +0.000 A 
ATOM      8  C   UNL     1       2.153   3.115  18.673  0.00  0.00    +0.000 A 
ATOM      9  C   UNL     1       2.578   2.021  17.730  0.00  0.00    +0.000 C 
ATOM     10  C   UNL     1       2.620   4.477  18.583  0.00  0.00    +0.000 A 
ATOM     11  C   UNL     1       3.564   5.022  17.636  0.00  0.00    +0.000 A 
ENDROOT
BRANCH   1  13
ATOM     12  C   UNL     1       5.910   7.250  16.966  0.00  0.00    +0.000 C 
ATOM     13  O   UNL     1       4.568   6.950  16.569  0.00  0.00    +0.000 OA
ENDBRANCH   1  13
BRANCH   3  14
ATOM     14  N   UNL     1       2.083   7.579  20.629  0.00  0.00    +0.000 N 
ATOM     15  H   UNL     1       2.899   8.161  20.855  0.00  0.00    +0.000 HD
BRANCH  14  16
ATOM     16  C   UNL     1       0.840   8.338  20.399  0.00  0.00    +0.000 C 
ATOM     17  C   UNL     1       0.225   8.654  21.762  0.00  0.00    +0.000 C 
BRANCH  16  18
ATOM     18  C   UNL     1       1.087   9.621  19.588  0.00  0.00    +0.000 C 
BRANCH  18  19
ATOM     19  C   UNL     1      -0.169  10.496  19.479  0.00  0.00    +0.000 C 
BRANCH  19  20
ATOM     20  C   UNL     1      -0.914  10.274  18.162  0.00  0.00    +0.000 C 
BRANCH  20  21
ATOM     21  C   UNL     1      -1.880  11.428  17.891  0.00  0.00    +0.000 C 
BRANCH  21  22
ATOM     22  N   UNL     1      -1.147  12.649  17.577  0.00  0.00    +0.000 NA
ATOM     23  H   UNL     1      -0.598  12.939  18.385  0.00  0.00    +0.000 HD
ATOM     24  H   UNL     1      -1.810  13.401  17.397  0.00  0.00    +0.000 HD
ENDBRANCH  21  22
ENDBRANCH  20  21
ENDBRANCH  19  20
ENDBRANCH  18  19
ENDBRANCH  16  18
ENDBRANCH  14  16
ENDBRANCH   3  14
BRANCH  11  25
ATOM     25  O   UNL     1       4.218   4.132  16.808  0.00  0.00    +0.000 OA
ATOM     26  C   UNL     1       5.578   3.860  17.159  0.00  0.00    +0.000 C 
ENDBRANCH  11  25
TORSDOF 9
ENDMDL
MODEL 6
REMARK VINA RESULT:      -6.0      1.462      3.122
REMARK  Name = 
REMARK  13 active torsions:
REMARK  status: ('A' for Active; 'I' for Inactive)
REMARK    1  A    between atoms: C_1  and  O_2
REMARK    2  A    between atoms: O_2  and  C_3
REMARK    3  A    between atoms: C_5  and  N_6
REMARK    4  A    between atoms: N_6  and  C_7
REMARK    5  A    between atoms: C_7  and  C_8
REMARK    6  A    between atoms: C_7  and  C_9
REMARK    7  A    between atoms: C_9  and  C_10
REMARK    8  A    between atoms: C_10  and  C_11
REMARK    9  A    between atoms: C_11  and  C_12
REMARK   10  A    between atoms: C_12  and  N_13
REMARK   11  A    between atoms: C_18  and  C_19
REMARK   12  A    between atoms: C_21  and  O_22
REMARK   13  A    between atoms: O_22  and  C_23
REMARK                            x       y       z     vdW  Elec       q    Type
REMARK                         _______ _______ _______ _____ _____    ______ ____
ROOT
ATOM      1  C   UNL     1       3.685   3.943  18.972  0.00  0.00    +0.000 A 
ATOM      2  C   UNL     1       4.218   4.306  17.750  0.00  0.00    +0.000 A 
ATOM      3  C   UNL     1       4.207   5.632  17.332  0.00  0.00    +0.000 A 
ATOM      4  C   UNL     1       3.411   6.576  17.995  0.00  0.00    +0.000 A 
ATOM      5  N   UNL     1       3.314   7.788  17.408  0.00  0.00    +0.000 NA
ATOM      6  C   UNL     1       2.520   8.713  17.966  0.00  0.00    +0.000 A 
ATOM      7  C   UNL     1       1.849   8.516  19.149  0.00  0.00    +0.000 A 
ATOM      8  C   UNL     1       1.980   7.286  19.811  0.00  0.00    +0.000 A 
ATOM      9  C   UNL     1       1.219   7.132  21.100  0.00  0.00    +0.000 C 
ATOM     10  C   UNL     1       2.779   6.238  19.223  0.00  0.00    +0.000 A 
ATOM     11  C   UNL     1       3.016   4.914  19.746  0.00  0.00    +0.000 A 
ENDROOT
BRANCH   1  13
ATOM     12  C   UNL     1       3.400   1.676  18.409  0.00  0.00    +0.000 C 
ATOM     13  O   UNL     1       3.772   2.640  19.399  0.00  0.00    +0.000 OA
ENDBRANCH   1  13
BRANCH   3  14
ATOM     14  N   UNL     1       4.979   6.001  16.189  0.00  0.00    +0.000 N 
ATOM     15  H   UNL     1       4.586   6.880  15.833  0.00  0.00    +0.000 HD
BRANCH  14  16
ATOM     16  C   UNL     1       6.439   6.027  16.399  0.00  0.00    +0.000 C 
ATOM     17  C   UNL     1       6.695   6.038  17.905  0.00  0.00    +0.000 C 
BRANCH  16  18
ATOM     18  C   UNL     1       7.142   4.838  15.722  0.00  0.00    +0.000 C 
BRANCH  18  19
ATOM     19  C   UNL     1       6.908   4.807  14.206  0.00  0.00    +0.000 C 
BRANCH  19  20
ATOM     20  C   UNL     1       5.884   3.744  13.803  0.00  0.00    +0.000 C 
BRANCH  20  21
ATOM     21  C   UNL     1       6.064   3.356  12.335  0.00  0.00    +0.000 C 
BRANCH  21  22
ATOM     22  N   UNL     1       4.770   3.206  11.681  0.00  0.00    +0.000 NA
ATOM     23  H   UNL     1       4.905   3.018  10.689  0.00  0.00    +0.000 HD
ATOM     24  H   UNL     1       4.261   4.087  11.738  0.00  0.00    +0.000 HD
ENDBRANCH  21  22
ENDBRANCH  20  21
ENDBRANCH  19  20
ENDBRANCH  18  19
ENDBRANCH  16  18
ENDBRANCH  14  16
ENDBRANCH   3  14
BRANCH  11  25
ATOM     25  O   UNL     1       2.559   4.644  21.020  0.00  0.00    +0.000 OA
ATOM     26  C   UNL     1       1.476   3.713  21.096  0.00  0.00    +0.000 C 
ENDBRANCH  11  25
TORSDOF 9
ENDMDL
MODEL 7
REMARK VINA RESULT:      -5.9      2.290      5.794
REMARK  Name = 
REMARK  13 active torsions:
REMARK  status: ('A' for Active; 'I' for Inactive)
REMARK    1  A    between atoms: C_1  and  O_2
REMARK    2  A    between atoms: O_2  and  C_3
REMARK    3  A    between atoms: C_5  and  N_6
REMARK    4  A    between atoms: N_6  and  C_7
REMARK    5  A    between atoms: C_7  and  C_8
REMARK    6  A    between atoms: C_7  and  C_9
REMARK    7  A    between atoms: C_9  and  C_10
REMARK    8  A    between atoms: C_10  and  C_11
REMARK    9  A    between atoms: C_11  and  C_12
REMARK   10  A    between atoms: C_12  and  N_13
REMARK   11  A    between atoms: C_18  and  C_19
REMARK   12  A    between atoms: C_21  and  O_22
REMARK   13  A    between atoms: O_22  and  C_23
REMARK                            x       y       z     vdW  Elec       q    Type
REMARK                         _______ _______ _______ _____ _____    ______ ____
ROOT
ATOM      1  C   UNL     1       1.752   4.297  19.999  0.00  0.00    +0.000 A 
ATOM      2  C   UNL     1       1.679   5.595  20.464  0.00  0.00    +0.000 A 
ATOM      3  C   UNL     1       2.204   6.649  19.723  0.00  0.00    +0.000 A 
ATOM      4  C   UNL     1       3.062   6.397  18.645  0.00  0.00    +0.000 A 
ATOM      5  N   UNL     1       3.673   7.474  18.107  0.00  0.00    +0.000 NA
ATOM      6  C   UNL     1       4.550   7.288  17.111  0.00  0.00    +0.000 A 
ATOM      7  C   UNL     1       4.811   6.058  16.557  0.00  0.00    +0.000 A 
ATOM      8  C   UNL     1       4.145   4.929  17.056  0.00  0.00    +0.000 A 
ATOM      9  C   UNL     1       4.476   3.612  16.408  0.00  0.00    +0.000 C 
ATOM     10  C   UNL     1       3.233   5.069  18.166  0.00  0.00    +0.000 A 
ATOM     11  C   UNL     1       2.475   4.028  18.818  0.00  0.00    +0.000 A 
ENDROOT
BRANCH   1  13
ATOM     12  C   UNL     1       1.877   2.900  21.889  0.00  0.00    +0.000 C 
ATOM     13  O   UNL     1       1.162   3.279  20.709  0.00  0.00    +0.000 OA
ENDBRANCH   1  13
BRANCH   3  14
ATOM     14  N   UNL     1       1.893   7.987  20.113  0.00  0.00    +0.000 N 
ATOM     15  H   UNL     1       1.578   8.480  19.268  0.00  0.00    +0.000 HD
BRANCH  14  16
ATOM     16  C   UNL     1       0.980   8.110  21.265  0.00  0.00    +0.000 C 
ATOM     17  C   UNL     1       1.667   8.981  22.316  0.00  0.00    +0.000 C 
BRANCH  16  18
ATOM     18  C   UNL     1      -0.384   8.694  20.861  0.00  0.00    +0.000 C 
BRANCH  18  19
ATOM     19  C   UNL     1      -0.324  10.207  20.618  0.00  0.00    +0.000 C 
BRANCH  19  20
ATOM     20  C   UNL     1      -0.381  10.554  19.129  0.00  0.00    +0.000 C 
BRANCH  20  21
ATOM     21  C   UNL     1       0.963  11.113  18.657  0.00  0.00    +0.000 C 
BRANCH  21  22
ATOM     22  N   UNL     1       1.696  10.111  17.893  0.00  0.00    +0.000 NA
ATOM     23  H   UNL     1       1.460  10.190  16.906  0.00  0.00    +0.000 HD
ATOM     24  H   UNL     1       1.397   9.182  18.185  0.00  0.00    +0.000 HD
ENDBRANCH  21  22
ENDBRANCH  20  21
ENDBRANCH  19  20
ENDBRANCH  18  19
ENDBRANCH  16  18
ENDBRANCH  14  16
ENDBRANCH   3  14
BRANCH  11  25
ATOM     25  O   UNL     1       2.494   2.774  18.242  0.00  0.00    +0.000 OA
ATOM     26  C   UNL     1       3.372   1.831  18.864  0.00  0.00    +0.000 C 
ENDBRANCH  11  25
TORSDOF 9
ENDMDL
MODEL 8
REMARK VINA RESULT:      -5.9      2.619      6.093
REMARK  Name = 
REMARK  13 active torsions:
REMARK  status: ('A' for Active; 'I' for Inactive)
REMARK    1  A    between atoms: C_1  and  O_2
REMARK    2  A    between atoms: O_2  and  C_3
REMARK    3  A    between atoms: C_5  and  N_6
REMARK    4  A    between atoms: N_6  and  C_7
REMARK    5  A    between atoms: C_7  and  C_8
REMARK    6  A    between atoms: C_7  and  C_9
REMARK    7  A    between atoms: C_9  and  C_10
REMARK    8  A    between atoms: C_10  and  C_11
REMARK    9  A    between atoms: C_11  and  C_12
REMARK   10  A    between atoms: C_12  and  N_13
REMARK   11  A    between atoms: C_18  and  C_19
REMARK   12  A    between atoms: C_21  and  O_22
REMARK   13  A    between atoms: O_22  and  C_23
REMARK                            x       y       z     vdW  Elec       q    Type
REMARK                         _______ _______ _______ _____ _____    ______ ____
ROOT
ATOM      1  C   UNL     1       2.092   3.859  19.711  0.00  0.00    +0.000 A 
ATOM      2  C   UNL     1       2.080   5.076  20.363  0.00  0.00    +0.000 A 
ATOM      3  C   UNL     1       2.631   6.208  19.772  0.00  0.00    +0.000 A 
ATOM      4  C   UNL     1       3.455   6.087  18.645  0.00  0.00    +0.000 A 
ATOM      5  N   UNL     1       4.097   7.210  18.255  0.00  0.00    +0.000 NA
ATOM      6  C   UNL     1       4.944   7.141  17.219  0.00  0.00    +0.000 A 
ATOM      7  C   UNL     1       5.144   5.998  16.483  0.00  0.00    +0.000 A 
ATOM      8  C   UNL     1       4.444   4.833  16.829  0.00  0.00    +0.000 A 
ATOM      9  C   UNL     1       4.709   3.614  15.986  0.00  0.00    +0.000 C 
ATOM     10  C   UNL     1       3.563   4.840  17.971  0.00  0.00    +0.000 A 
ATOM     11  C   UNL     1       2.778   3.742  18.484  0.00  0.00    +0.000 A 
ENDROOT
BRANCH   1  13
ATOM     12  C   UNL     1       1.624   2.694  21.701  0.00  0.00    +0.000 C 
ATOM     13  O   UNL     1       1.477   2.770  20.280  0.00  0.00    +0.000 OA
ENDBRANCH   1  13
BRANCH   3  14
ATOM     14  N   UNL     1       2.382   7.484  20.362  0.00  0.00    +0.000 N 
ATOM     15  H   UNL     1       3.190   8.079  20.142  0.00  0.00    +0.000 HD
BRANCH  14  16
ATOM     16  C   UNL     1       1.076   8.085  20.033  0.00  0.00    +0.000 C 
ATOM     17  C   UNL     1       0.426   8.537  21.338  0.00  0.00    +0.000 C 
BRANCH  16  18
ATOM     18  C   UNL     1       1.211   9.254  19.042  0.00  0.00    +0.000 C 
BRANCH  18  19
ATOM     19  C   UNL     1       0.036  10.235  19.132  0.00  0.00    +0.000 C 
BRANCH  19  20
ATOM     20  C   UNL     1      -0.909  10.116  17.935  0.00  0.00    +0.000 C 
BRANCH  20  21
ATOM     21  C   UNL     1      -1.958  11.228  17.966  0.00  0.00    +0.000 C 
BRANCH  21  22
ATOM     22  N   UNL     1      -1.456  12.426  17.306  0.00  0.00    +0.000 NA
ATOM     23  H   UNL     1      -2.160  13.161  17.342  0.00  0.00    +0.000 HD
ATOM     24  H   UNL     1      -1.303  12.226  16.318  0.00  0.00    +0.000 HD
ENDBRANCH  21  22
ENDBRANCH  20  21
ENDBRANCH  19  20
ENDBRANCH  18  19
ENDBRANCH  16  18
ENDBRANCH  14  16
ENDBRANCH   3  14
BRANCH  11  25
ATOM     25  O   UNL     1       2.735   2.587  17.730  0.00  0.00    +0.000 OA
ATOM     26  C   UNL     1       3.477   1.485  18.260  0.00  0.00    +0.000 C 
ENDBRANCH  11  25
TORSDOF 9
ENDMDL
MODEL 9
REMARK VINA RESULT:      -5.8      2.070      4.756
REMARK  Name = 
REMARK  13 active torsions:
REMARK  status: ('A' for Active; 'I' for Inactive)
REMARK    1  A    between atoms: C_1  and  O_2
REMARK    2  A    between atoms: O_2  and  C_3
REMARK    3  A    between atoms: C_5  and  N_6
REMARK    4  A    between atoms: N_6  and  C_7
REMARK    5  A    between atoms: C_7  and  C_8
REMARK    6  A    between atoms: C_7  and  C_9
REMARK    7  A    between atoms: C_9  and  C_10
REMARK    8  A    between atoms: C_10  and  C_11
REMARK    9  A    between atoms: C_11  and  C_12
REMARK   10  A    between atoms: C_12  and  N_13
REMARK   11  A    between atoms: C_18  and  C_19
REMARK   12  A    between atoms: C_21  and  O_22
REMARK   13  A    between atoms: O_22  and  C_23
REMARK                            x       y       z     vdW  Elec       q    Type
REMARK                         _______ _______ _______ _____ _____    ______ ____
ROOT
ATOM      1  C   UNL     1       2.685   6.283  18.243  0.00  0.00    +0.000 A 
ATOM      2  C   UNL     1       3.667   5.885  17.358  0.00  0.00    +0.000 A 
ATOM      3  C   UNL     1       4.213   4.607  17.425  0.00  0.00    +0.000 A 
ATOM      4  C   UNL     1       3.994   3.803  18.551  0.00  0.00    +0.000 A 
ATOM      5  N   UNL     1       4.714   2.662  18.616  0.00  0.00    +0.000 NA
ATOM      6  C   UNL     1       4.590   1.882  19.699  0.00  0.00    +0.000 A 
ATOM      7  C   UNL     1       3.713   2.147  20.723  0.00  0.00    +0.000 A 
ATOM      8  C   UNL     1       2.909   3.294  20.652  0.00  0.00    +0.000 A 
ATOM      9  C   UNL     1       1.971   3.530  21.806  0.00  0.00    +0.000 C 
ATOM     10  C   UNL     1       3.045   4.196  19.534  0.00  0.00    +0.000 A 
ATOM     11  C   UNL     1       2.322   5.423  19.300  0.00  0.00    +0.000 A 
ENDROOT
BRANCH   1  13
ATOM     12  C   UNL     1       3.003   8.540  17.656  0.00  0.00    +0.000 C 
ATOM     13  O   UNL     1       2.107   7.523  18.114  0.00  0.00    +0.000 OA
ENDBRANCH   1  13
BRANCH   3  14
ATOM     14  N   UNL     1       5.037   4.152  16.351  0.00  0.00    +0.000 N 
ATOM     15  H   UNL     1       4.418   3.984  15.549  0.00  0.00    +0.000 HD
BRANCH  14  16
ATOM     16  C   UNL     1       6.204   5.002  16.051  0.00  0.00    +0.000 C 
ATOM     17  C   UNL     1       7.275   4.714  17.101  0.00  0.00    +0.000 C 
BRANCH  16  18
ATOM     18  C   UNL     1       6.739   4.767  14.628  0.00  0.00    +0.000 C 
BRANCH  18  19
ATOM     19  C   UNL     1       5.960   3.676  13.882  0.00  0.00    +0.000 C 
BRANCH  19  20
ATOM     20  C   UNL     1       6.346   3.600  12.404  0.00  0.00    +0.000 C 
BRANCH  20  21
ATOM     21  C   UNL     1       5.432   2.625  11.661  0.00  0.00    +0.000 C 
BRANCH  21  22
ATOM     22  N   UNL     1       6.107   1.351  11.446  0.00  0.00    +0.000 NA
ATOM     23  H   UNL     1       6.612   1.373  10.563  0.00  0.00    +0.000 HD
ATOM     24  H   UNL     1       5.409   0.613  11.358  0.00  0.00    +0.000 HD
ENDBRANCH  21  22
ENDBRANCH  20  21
ENDBRANCH  19  20
ENDBRANCH  18  19
ENDBRANCH  16  18
ENDBRANCH  14  16
ENDBRANCH   3  14
BRANCH  11  25
ATOM     25  O   UNL     1       1.274   5.714  20.151  0.00  0.00    +0.000 OA
ATOM     26  C   UNL     1       1.440   6.895  20.941  0.00  0.00    +0.000 C 
ENDBRANCH  11  25
TORSDOF 9
ENDMDL
