MODEL 1
REMARK VINA RESULT:      -8.6      0.000      0.000
REMARK  Name = 
REMARK  8 active torsions:
REMARK  status: ('A' for Active; 'I' for Inactive)
REMARK    1  A    between atoms: C_1  and  C_2
REMARK    2  A    between atoms: C_2  and  O_3
REMARK    3  A    between atoms: O_3  and  C_4
REMARK    4  A    between atoms: C_7  and  N_8
REMARK    5  A    between atoms: N_8  and  S_9
REMARK    6  A    between atoms: S_9  and  C_12
REMARK    7  A    between atoms: C_15  and  C_16
REMARK    8  A    between atoms: C_22  and  C_23
REMARK                            x       y       z     vdW  Elec       q    Type
REMARK                         _______ _______ _______ _____ _____    ______ ____
ROOT
ATOM      1  C   UNL     1       2.630   4.665  19.058  0.00  0.00    +0.000 A 
ATOM      2  C   UNL     1       2.740   5.564  20.125  0.00  0.00    +0.000 A 
ATOM      3  C   UNL     1       2.439   6.916  19.924  0.00  0.00    +0.000 A 
ATOM      4  C   UNL     1       2.041   7.372  18.658  0.00  0.00    +0.000 A 
ATOM      5  C   UNL     1       2.008   6.472  17.584  0.00  0.00    +0.000 A 
ATOM      6  C   UNL     1       2.270   5.117  17.787  0.00  0.00    +0.000 A 
ENDROOT
BRANCH   4   7
ATOM      7  C   UNL     1       1.778   8.826  18.457  0.00  0.00    +0.000 C 
ATOM      8  O   UNL     1       2.074   9.317  17.369  0.00  0.00    +0.000 OA
ATOM      9  N   UNL     1       1.167   9.565  19.468  0.00  0.00    +0.000 N 
ATOM     10  C   UNL     1       0.689  10.920  19.174  0.00  0.00    +0.000 C 
ATOM     11  C   UNL     1      -0.671  11.202  19.851  0.00  0.00    +0.000 C 
ATOM     12  N   UNL     1      -0.676  10.806  21.273  0.00  0.00    +0.000 N 
ATOM     13  C   UNL     1      -1.142  11.533  22.350  0.00  0.00    +0.000 C 
ATOM     14  C   UNL     1      -1.677  12.927  22.151  0.00  0.00    +0.000 C 
ATOM     15  O   UNL     1      -1.111  11.078  23.498  0.00  0.00    +0.000 OA
ATOM     16  C   UNL     1      -0.189   9.441  21.517  0.00  0.00    +0.000 C 
ATOM     17  C   UNL     1       1.203   9.254  20.905  0.00  0.00    +0.000 C 
ENDBRANCH   4   7
BRANCH   1  18
ATOM     18  S   UNL     1       3.075   2.956  19.267  0.00  0.00    +0.000 S 
ATOM     19  O   UNL     1       2.083   2.163  18.580  0.00  0.00    +0.000 OA
ATOM     20  O   UNL     1       3.375   2.723  20.663  0.00  0.00    +0.000 OA
BRANCH  18  21
ATOM     21  N   UNL     1       4.493   2.814  18.364  0.00  0.00    +0.000 N 
ATOM     22  H   UNL     1       5.034   2.002  18.664  0.00  0.00    +0.000 HD
BRANCH  21  26
ATOM     23  C   UNL     1       6.754   6.200  17.279  0.00  0.00    +0.000 A 
ATOM     24  C   UNL     1       6.637   5.844  18.626  0.00  0.00    +0.000 A 
ATOM     25  C   UNL     1       5.877   4.732  19.003  0.00  0.00    +0.000 A 
ATOM     26  C   UNL     1       5.223   3.985  18.029  0.00  0.00    +0.000 A 
ATOM     27  C   UNL     1       5.296   4.363  16.689  0.00  0.00    +0.000 A 
ATOM     28  C   UNL     1       6.055   5.475  16.314  0.00  0.00    +0.000 A 
BRANCH  23  29
ATOM     29  O   UNL     1       7.566   7.272  17.028  0.00  0.00    +0.000 OA
BRANCH  29  31
ATOM     30  C   UNL     1       8.233   9.392  17.894  0.00  0.00    +0.000 C 
ATOM     31  C   UNL     1       8.154   7.901  18.169  0.00  0.00    +0.000 C 
ENDBRANCH  29  31
ENDBRANCH  23  29
ENDBRANCH  21  26
ENDBRANCH  18  21
ENDBRANCH   1  18
TORSDOF 6
ENDMDL
MODEL 2
REMARK VINA RESULT:      -8.4      0.214      1.266
REMARK  Name = 
REMARK  8 active torsions:
REMARK  status: ('A' for Active; 'I' for Inactive)
REMARK    1  A    between atoms: C_1  and  C_2
REMARK    2  A    between atoms: C_2  and  O_3
REMARK    3  A    between atoms: O_3  and  C_4
REMARK    4  A    between atoms: C_7  and  N_8
REMARK    5  A    between atoms: N_8  and  S_9
REMARK    6  A    between atoms: S_9  and  C_12
REMARK    7  A    between atoms: C_15  and  C_16
REMARK    8  A    between atoms: C_22  and  C_23
REMARK                            x       y       z     vdW  Elec       q    Type
REMARK                         _______ _______ _______ _____ _____    ______ ____
ROOT
ATOM      1  C   UNL     1       2.568   4.758  19.053  0.00  0.00    +0.000 A 
ATOM      2  C   UNL     1       2.240   5.249  17.784  0.00  0.00    +0.000 A 
ATOM      3  C   UNL     1       1.997   6.617  17.613  0.00  0.00    +0.000 A 
ATOM      4  C   UNL     1       2.067   7.491  18.709  0.00  0.00    +0.000 A 
ATOM      5  C   UNL     1       2.324   6.971  19.985  0.00  0.00    +0.000 A 
ATOM      6  C   UNL     1       2.605   5.615  20.155  0.00  0.00    +0.000 A 
ENDROOT
BRANCH   4   7
ATOM      7  C   UNL     1       1.751   8.935  18.511  0.00  0.00    +0.000 C 
ATOM      8  O   UNL     1       2.036   9.440  17.427  0.00  0.00    +0.000 OA
ATOM      9  N   UNL     1       1.106   9.646  19.521  0.00  0.00    +0.000 N 
ATOM     10  C   UNL     1       0.579  10.983  19.228  0.00  0.00    +0.000 C 
ATOM     11  C   UNL     1      -0.795  11.211  19.897  0.00  0.00    +0.000 C 
ATOM     12  N   UNL     1      -0.795  10.809  21.316  0.00  0.00    +0.000 N 
ATOM     13  C   UNL     1      -1.296  11.514  22.393  0.00  0.00    +0.000 C 
ATOM     14  C   UNL     1      -1.882  12.889  22.195  0.00  0.00    +0.000 C 
ATOM     15  O   UNL     1      -1.257  11.057  23.539  0.00  0.00    +0.000 OA
ATOM     16  C   UNL     1      -0.260   9.463  21.559  0.00  0.00    +0.000 C 
ATOM     17  C   UNL     1       1.143   9.331  20.956  0.00  0.00    +0.000 C 
ENDBRANCH   4   7
BRANCH   1  18
ATOM     18  S   UNL     1       2.811   3.015  19.313  0.00  0.00    +0.000 S 
ATOM     19  O   UNL     1       1.788   2.319  18.569  0.00  0.00    +0.000 OA
ATOM     20  O   UNL     1       2.990   2.780  20.729  0.00  0.00    +0.000 OA
BRANCH  18  21
ATOM     21  N   UNL     1       4.263   2.706  18.512  0.00  0.00    +0.000 N 
ATOM     22  H   UNL     1       4.725   1.884  18.904  0.00  0.00    +0.000 HD
BRANCH  21  26
ATOM     23  C   UNL     1       6.640   6.029  17.482  0.00  0.00    +0.000 A 
ATOM     24  C   UNL     1       5.980   5.309  16.483  0.00  0.00    +0.000 A 
ATOM     25  C   UNL     1       5.200   4.195  16.806  0.00  0.00    +0.000 A 
ATOM     26  C   UNL     1       5.094   3.793  18.135  0.00  0.00    +0.000 A 
ATOM     27  C   UNL     1       5.789   4.478  19.131  0.00  0.00    +0.000 A 
ATOM     28  C   UNL     1       6.568   5.591  18.804  0.00  0.00    +0.000 A 
BRANCH  23  29
ATOM     29  O   UNL     1       7.326   7.131  17.051  0.00  0.00    +0.000 OA
BRANCH  29  31
ATOM     30  C   UNL     1       8.068   9.278  17.777  0.00  0.00    +0.000 C 
ATOM     31  C   UNL     1       8.150   7.782  18.020  0.00  0.00    +0.000 C 
ENDBRANCH  29  31
ENDBRANCH  23  29
ENDBRANCH  21  26
ENDBRANCH  18  21
ENDBRANCH   1  18
TORSDOF 6
ENDMDL
MODEL 3
REMARK VINA RESULT:      -8.1      1.733      2.442
REMARK  Name = 
REMARK  8 active torsions:
REMARK  status: ('A' for Active; 'I' for Inactive)
REMARK    1  A    between atoms: C_1  and  C_2
REMARK    2  A    between atoms: C_2  and  O_3
REMARK    3  A    between atoms: O_3  and  C_4
REMARK    4  A    between atoms: C_7  and  N_8
REMARK    5  A    between atoms: N_8  and  S_9
REMARK    6  A    between atoms: S_9  and  C_12
REMARK    7  A    between atoms: C_15  and  C_16
REMARK    8  A    between atoms: C_22  and  C_23
REMARK                            x       y       z     vdW  Elec       q    Type
REMARK                         _______ _______ _______ _____ _____    ______ ____
ROOT
ATOM      1  C   UNL     1       2.232   4.872  18.940  0.00  0.00    +0.000 A 
ATOM      2  C   UNL     1       2.478   6.123  18.364  0.00  0.00    +0.000 A 
ATOM      3  C   UNL     1       2.263   7.285  19.115  0.00  0.00    +0.000 A 
ATOM      4  C   UNL     1       1.791   7.198  20.434  0.00  0.00    +0.000 A 
ATOM      5  C   UNL     1       1.481   5.940  20.970  0.00  0.00    +0.000 A 
ATOM      6  C   UNL     1       1.729   4.778  20.240  0.00  0.00    +0.000 A 
ENDROOT
BRANCH   4   7
ATOM      7  C   UNL     1       1.519   8.451  21.195  0.00  0.00    +0.000 C 
ATOM      8  O   UNL     1       1.910   8.510  22.359  0.00  0.00    +0.000 OA
ATOM      9  N   UNL     1       0.889   9.521  20.563  0.00  0.00    +0.000 N 
ATOM     10  C   UNL     1       0.849  10.825  21.233  0.00  0.00    +0.000 C 
ATOM     11  C   UNL     1       1.079  11.983  20.237  0.00  0.00    +0.000 C 
ATOM     12  N   UNL     1       0.244  11.849  19.028  0.00  0.00    +0.000 N 
ATOM     13  C   UNL     1      -0.515  12.826  18.414  0.00  0.00    +0.000 C 
ATOM     14  C   UNL     1      -0.602  14.207  19.010  0.00  0.00    +0.000 C 
ATOM     15  O   UNL     1      -1.156  12.593  17.385  0.00  0.00    +0.000 OA
ATOM     16  C   UNL     1       0.317  10.527  18.391  0.00  0.00    +0.000 C 
ATOM     17  C   UNL     1      -0.015   9.427  19.406  0.00  0.00    +0.000 C 
ENDBRANCH   4   7
BRANCH   1  18
ATOM     18  S   UNL     1       2.427   3.383  17.986  0.00  0.00    +0.000 S 
ATOM     19  O   UNL     1       2.131   3.708  16.611  0.00  0.00    +0.000 OA
ATOM     20  O   UNL     1       1.734   2.307  18.661  0.00  0.00    +0.000 OA
BRANCH  18  21
ATOM     21  N   UNL     1       4.088   3.099  18.052  0.00  0.00    +0.000 N 
ATOM     22  H   UNL     1       4.320   2.482  18.831  0.00  0.00    +0.000 HD
BRANCH  21  26
ATOM     23  C   UNL     1       6.837   6.169  17.171  0.00  0.00    +0.000 A 
ATOM     24  C   UNL     1       6.647   5.764  18.495  0.00  0.00    +0.000 A 
ATOM     25  C   UNL     1       5.728   4.757  18.805  0.00  0.00    +0.000 A 
ATOM     26  C   UNL     1       4.986   4.166  17.786  0.00  0.00    +0.000 A 
ATOM     27  C   UNL     1       5.135   4.600  16.470  0.00  0.00    +0.000 A 
ATOM     28  C   UNL     1       6.055   5.606  16.163  0.00  0.00    +0.000 A 
BRANCH  23  29
ATOM     29  O   UNL     1       7.801   7.121  16.985  0.00  0.00    +0.000 OA
BRANCH  29  31
ATOM     30  C   UNL     1       8.637   8.808  18.450  0.00  0.00    +0.000 C 
ATOM     31  C   UNL     1       7.514   8.422  17.504  0.00  0.00    +0.000 C 
ENDBRANCH  29  31
ENDBRANCH  23  29
ENDBRANCH  21  26
ENDBRANCH  18  21
ENDBRANCH   1  18
TORSDOF 6
ENDMDL
MODEL 4
REMARK VINA RESULT:      -8.1      3.028      4.303
REMARK  Name = 
REMARK  8 active torsions:
REMARK  status: ('A' for Active; 'I' for Inactive)
REMARK    1  A    between atoms: C_1  and  C_2
REMARK    2  A    between atoms: C_2  and  O_3
REMARK    3  A    between atoms: O_3  and  C_4
REMARK    4  A    between atoms: C_7  and  N_8
REMARK    5  A    between atoms: N_8  and  S_9
REMARK    6  A    between atoms: S_9  and  C_12
REMARK    7  A    between atoms: C_15  and  C_16
REMARK    8  A    between atoms: C_22  and  C_23
REMARK                            x       y       z     vdW  Elec       q    Type
REMARK                         _______ _______ _______ _____ _____    ______ ____
ROOT
ATOM      1  C   UNL     1       2.131   7.183  19.612  0.00  0.00    +0.000 A 
ATOM      2  C   UNL     1       2.039   7.955  18.448  0.00  0.00    +0.000 A 
ATOM      3  C   UNL     1       1.408   9.203  18.493  0.00  0.00    +0.000 A 
ATOM      4  C   UNL     1       0.859   9.675  19.696  0.00  0.00    +0.000 A 
ATOM      5  C   UNL     1       0.896   8.858  20.834  0.00  0.00    +0.000 A 
ATOM      6  C   UNL     1       1.557   7.630  20.804  0.00  0.00    +0.000 A 
ENDROOT
BRANCH   4   7
ATOM      7  C   UNL     1       0.145  10.984  19.706  0.00  0.00    +0.000 C 
ATOM      8  O   UNL     1      -0.976  11.021  20.210  0.00  0.00    +0.000 OA
ATOM      9  N   UNL     1       0.776  12.120  19.202  0.00  0.00    +0.000 N 
ATOM     10  C   UNL     1       0.174  13.436  19.440  0.00  0.00    +0.000 C 
ATOM     11  C   UNL     1       1.246  14.501  19.762  0.00  0.00    +0.000 C 
ATOM     12  N   UNL     1       2.369  14.464  18.806  0.00  0.00    +0.000 N 
ATOM     13  C   UNL     1       2.966  15.530  18.163  0.00  0.00    +0.000 C 
ATOM     14  C   UNL     1       2.439  16.928  18.360  0.00  0.00    +0.000 C 
ATOM     15  O   UNL     1       3.922  15.370  17.397  0.00  0.00    +0.000 OA
ATOM     16  C   UNL     1       2.939  13.125  18.601  0.00  0.00    +0.000 C 
ATOM     17  C   UNL     1       1.842  12.136  18.191  0.00  0.00    +0.000 C 
ENDBRANCH   4   7
BRANCH   1  18
ATOM     18  S   UNL     1       2.863   5.563  19.567  0.00  0.00    +0.000 S 
ATOM     19  O   UNL     1       2.416   4.919  18.355  0.00  0.00    +0.000 OA
ATOM     20  O   UNL     1       2.673   4.934  20.856  0.00  0.00    +0.000 OA
BRANCH  18  21
ATOM     21  N   UNL     1       4.504   5.887  19.346  0.00  0.00    +0.000 N 
ATOM     22  H   UNL     1       4.772   6.743  19.832  0.00  0.00    +0.000 HD
BRANCH  21  26
ATOM     23  C   UNL     1       6.104   5.188  15.511  0.00  0.00    +0.000 A 
ATOM     24  C   UNL     1       6.424   4.328  16.566  0.00  0.00    +0.000 A 
ATOM     25  C   UNL     1       5.914   4.556  17.848  0.00  0.00    +0.000 A 
ATOM     26  C   UNL     1       5.092   5.656  18.074  0.00  0.00    +0.000 A 
ATOM     27  C   UNL     1       4.808   6.543  17.038  0.00  0.00    +0.000 A 
ATOM     28  C   UNL     1       5.320   6.314  15.758  0.00  0.00    +0.000 A 
BRANCH  23  29
ATOM     29  O   UNL     1       6.617   4.832  14.294  0.00  0.00    +0.000 OA
BRANCH  29  31
ATOM     30  C   UNL     1       6.552   3.646  12.226  0.00  0.00    +0.000 C 
ATOM     31  C   UNL     1       5.955   3.762  13.617  0.00  0.00    +0.000 C 
ENDBRANCH  29  31
ENDBRANCH  23  29
ENDBRANCH  21  26
ENDBRANCH  18  21
ENDBRANCH   1  18
TORSDOF 6
ENDMDL
MODEL 5
REMARK VINA RESULT:      -8.0      3.228      4.336
REMARK  Name = 
REMARK  8 active torsions:
REMARK  status: ('A' for Active; 'I' for Inactive)
REMARK    1  A    between atoms: C_1  and  C_2
REMARK    2  A    between atoms: C_2  and  O_3
REMARK    3  A    between atoms: O_3  and  C_4
REMARK    4  A    between atoms: C_7  and  N_8
REMARK    5  A    between atoms: N_8  and  S_9
REMARK    6  A    between atoms: S_9  and  C_12
REMARK    7  A    between atoms: C_15  and  C_16
REMARK    8  A    between atoms: C_22  and  C_23
REMARK                            x       y       z     vdW  Elec       q    Type
REMARK                         _______ _______ _______ _____ _____    ______ ____
ROOT
ATOM      1  C   UNL     1       2.136   7.406  19.116  0.00  0.00    +0.000 A 
ATOM      2  C   UNL     1       1.952   8.010  17.867  0.00  0.00    +0.000 A 
ATOM      3  C   UNL     1       1.308   9.250  17.786  0.00  0.00    +0.000 A 
ATOM      4  C   UNL     1       0.838   9.881  18.948  0.00  0.00    +0.000 A 
ATOM      5  C   UNL     1       0.966   9.228  20.182  0.00  0.00    +0.000 A 
ATOM      6  C   UNL     1       1.640   8.010  20.273  0.00  0.00    +0.000 A 
ENDROOT
BRANCH   4   7
ATOM      7  C   UNL     1       0.109  11.176  18.830  0.00  0.00    +0.000 C 
ATOM      8  O   UNL     1      -1.120  11.139  18.788  0.00  0.00    +0.000 OA
ATOM      9  N   UNL     1       0.822  12.373  18.824  0.00  0.00    +0.000 N 
ATOM     10  C   UNL     1       0.094  13.639  18.958  0.00  0.00    +0.000 C 
ATOM     11  C   UNL     1       0.848  14.634  19.868  0.00  0.00    +0.000 C 
ATOM     12  N   UNL     1       2.275  14.741  19.510  0.00  0.00    +0.000 N 
ATOM     13  C   UNL     1       3.023  15.892  19.355  0.00  0.00    +0.000 C 
ATOM     14  C   UNL     1       2.374  17.244  19.497  0.00  0.00    +0.000 C 
ATOM     15  O   UNL     1       4.225  15.848  19.075  0.00  0.00    +0.000 OA
ATOM     16  C   UNL     1       2.962  13.448  19.388  0.00  0.00    +0.000 C 
ATOM     17  C   UNL     1       2.219  12.542  18.400  0.00  0.00    +0.000 C 
ENDBRANCH   4   7
BRANCH   1  18
ATOM     18  S   UNL     1       2.885   5.798  19.242  0.00  0.00    +0.000 S 
ATOM     19  O   UNL     1       2.360   4.990  18.166  0.00  0.00    +0.000 OA
ATOM     20  O   UNL     1       2.798   5.353  20.616  0.00  0.00    +0.000 OA
BRANCH  18  21
ATOM     21  N   UNL     1       4.501   6.094  18.857  0.00  0.00    +0.000 N 
ATOM     22  H   UNL     1       4.801   6.998  19.225  0.00  0.00    +0.000 HD
BRANCH  21  26
ATOM     23  C   UNL     1       6.092   4.995  15.113  0.00  0.00    +0.000 A 
ATOM     24  C   UNL     1       5.425   6.215  15.255  0.00  0.00    +0.000 A 
ATOM     25  C   UNL     1       4.877   6.587  16.487  0.00  0.00    +0.000 A 
ATOM     26  C   UNL     1       4.988   5.727  17.575  0.00  0.00    +0.000 A 
ATOM     27  C   UNL     1       5.610   4.488  17.429  0.00  0.00    +0.000 A 
ATOM     28  C   UNL     1       6.156   4.118  16.196  0.00  0.00    +0.000 A 
BRANCH  23  29
ATOM     29  O   UNL     1       6.632   4.766  13.878  0.00  0.00    +0.000 OA
BRANCH  29  31
ATOM     30  C   UNL     1       5.025   3.702  12.474  0.00  0.00    +0.000 C 
ATOM     31  C   UNL     1       6.306   3.516  13.267  0.00  0.00    +0.000 C 
ENDBRANCH  29  31
ENDBRANCH  23  29
ENDBRANCH  21  26
ENDBRANCH  18  21
ENDBRANCH   1  18
TORSDOF 6
ENDMDL
MODEL 6
REMARK VINA RESULT:      -8.0      3.115      4.017
REMARK  Name = 
REMARK  8 active torsions:
REMARK  status: ('A' for Active; 'I' for Inactive)
REMARK    1  A    between atoms: C_1  and  C_2
REMARK    2  A    between atoms: C_2  and  O_3
REMARK    3  A    between atoms: O_3  and  C_4
REMARK    4  A    between atoms: C_7  and  N_8
REMARK    5  A    between atoms: N_8  and  S_9
REMARK    6  A    between atoms: S_9  and  C_12
REMARK    7  A    between atoms: C_15  and  C_16
REMARK    8  A    between atoms: C_22  and  C_23
REMARK                            x       y       z     vdW  Elec       q    Type
REMARK                         _______ _______ _______ _____ _____    ______ ____
ROOT
ATOM      1  C   UNL     1       2.185   7.407  19.159  0.00  0.00    +0.000 A 
ATOM      2  C   UNL     1       2.047   8.028  17.913  0.00  0.00    +0.000 A 
ATOM      3  C   UNL     1       1.375   9.252  17.821  0.00  0.00    +0.000 A 
ATOM      4  C   UNL     1       0.831   9.849  18.969  0.00  0.00    +0.000 A 
ATOM      5  C   UNL     1       0.915   9.177  20.196  0.00  0.00    +0.000 A 
ATOM      6  C   UNL     1       1.617   7.976  20.300  0.00  0.00    +0.000 A 
ENDROOT
BRANCH   4   7
ATOM      7  C   UNL     1       0.073  11.127  18.837  0.00  0.00    +0.000 C 
ATOM      8  O   UNL     1      -1.109  11.059  18.507  0.00  0.00    +0.000 OA
ATOM      9  N   UNL     1       0.698  12.335  19.136  0.00  0.00    +0.000 N 
ATOM     10  C   UNL     1      -0.114  13.552  19.244  0.00  0.00    +0.000 C 
ATOM     11  C   UNL     1       0.355  14.446  20.414  0.00  0.00    +0.000 C 
ATOM     12  N   UNL     1       1.818  14.639  20.412  0.00  0.00    +0.000 N 
ATOM     13  C   UNL     1       2.513  15.822  20.571  0.00  0.00    +0.000 C 
ATOM     14  C   UNL     1       1.771  17.126  20.715  0.00  0.00    +0.000 C 
ATOM     15  O   UNL     1       3.748  15.850  20.574  0.00  0.00    +0.000 OA
ATOM     16  C   UNL     1       2.588  13.393  20.303  0.00  0.00    +0.000 C 
ATOM     17  C   UNL     1       2.143  12.598  19.070  0.00  0.00    +0.000 C 
ENDBRANCH   4   7
BRANCH   1  18
ATOM     18  S   UNL     1       2.971   5.817  19.295  0.00  0.00    +0.000 S 
ATOM     19  O   UNL     1       2.586   5.043  18.137  0.00  0.00    +0.000 OA
ATOM     20  O   UNL     1       2.758   5.308  20.632  0.00  0.00    +0.000 OA
BRANCH  18  21
ATOM     21  N   UNL     1       4.607   6.176  19.093  0.00  0.00    +0.000 N 
ATOM     22  H   UNL     1       4.820   7.107  19.455  0.00  0.00    +0.000 HD
BRANCH  21  26
ATOM     23  C   UNL     1       6.410   4.962  15.483  0.00  0.00    +0.000 A 
ATOM     24  C   UNL     1       6.857   4.433  16.697  0.00  0.00    +0.000 A 
ATOM     25  C   UNL     1       6.280   4.837  17.905  0.00  0.00    +0.000 A 
ATOM     26  C   UNL     1       5.261   5.785  17.895  0.00  0.00    +0.000 A 
ATOM     27  C   UNL     1       4.844   6.353  16.692  0.00  0.00    +0.000 A 
ATOM     28  C   UNL     1       5.423   5.947  15.486  0.00  0.00    +0.000 A 
BRANCH  23  29
ATOM     29  O   UNL     1       7.013   4.450  14.367  0.00  0.00    +0.000 OA
BRANCH  29  31
ATOM     30  C   UNL     1       6.822   3.808  12.078  0.00  0.00    +0.000 C 
ATOM     31  C   UNL     1       6.159   3.772  13.443  0.00  0.00    +0.000 C 
ENDBRANCH  29  31
ENDBRANCH  23  29
ENDBRANCH  21  26
ENDBRANCH  18  21
ENDBRANCH   1  18
TORSDOF 6
ENDMDL
MODEL 7
REMARK VINA RESULT:      -8.0      3.387      9.495
REMARK  Name = 
REMARK  8 active torsions:
REMARK  status: ('A' for Active; 'I' for Inactive)
REMARK    1  A    between atoms: C_1  and  C_2
REMARK    2  A    between atoms: C_2  and  O_3
REMARK    3  A    between atoms: O_3  and  C_4
REMARK    4  A    between atoms: C_7  and  N_8
REMARK    5  A    between atoms: N_8  and  S_9
REMARK    6  A    between atoms: S_9  and  C_12
REMARK    7  A    between atoms: C_15  and  C_16
REMARK    8  A    between atoms: C_22  and  C_23
REMARK                            x       y       z     vdW  Elec       q    Type
REMARK                         _______ _______ _______ _____ _____    ______ ____
ROOT
ATOM      1  C   UNL     1       0.910   9.743  20.457  0.00  0.00    +0.000 A 
ATOM      2  C   UNL     1       0.877   8.774  21.467  0.00  0.00    +0.000 A 
ATOM      3  C   UNL     1       1.371   7.490  21.209  0.00  0.00    +0.000 A 
ATOM      4  C   UNL     1       1.885   7.169  19.943  0.00  0.00    +0.000 A 
ATOM      5  C   UNL     1       1.843   8.130  18.923  0.00  0.00    +0.000 A 
ATOM      6  C   UNL     1       1.387   9.422  19.184  0.00  0.00    +0.000 A 
ENDROOT
BRANCH   4   7
ATOM      7  C   UNL     1       2.356   5.780  19.678  0.00  0.00    +0.000 C 
ATOM      8  O   UNL     1       1.791   4.861  20.269  0.00  0.00    +0.000 OA
ATOM      9  N   UNL     1       3.368   5.558  18.747  0.00  0.00    +0.000 N 
ATOM     10  C   UNL     1       3.651   4.186  18.311  0.00  0.00    +0.000 C 
ATOM     11  C   UNL     1       3.945   4.121  16.796  0.00  0.00    +0.000 C 
ATOM     12  N   UNL     1       4.915   5.149  16.374  0.00  0.00    +0.000 N 
ATOM     13  C   UNL     1       6.019   4.985  15.560  0.00  0.00    +0.000 C 
ATOM     14  C   UNL     1       6.382   3.618  15.039  0.00  0.00    +0.000 C 
ATOM     15  O   UNL     1       6.746   5.936  15.258  0.00  0.00    +0.000 OA
ATOM     16  C   UNL     1       4.589   6.506  16.833  0.00  0.00    +0.000 C 
ATOM     17  C   UNL     1       4.405   6.524  18.354  0.00  0.00    +0.000 C 
ENDBRANCH   4   7
BRANCH   1  18
ATOM     18  S   UNL     1       0.224  11.360  20.734  0.00  0.00    +0.000 S 
ATOM     19  O   UNL     1       1.314  12.238  21.091  0.00  0.00    +0.000 OA
ATOM     20  O   UNL     1      -0.936  11.231  21.589  0.00  0.00    +0.000 OA
BRANCH  18  21
ATOM     21  N   UNL     1      -0.273  11.836  19.194  0.00  0.00    +0.000 N 
ATOM     22  H   UNL     1       0.096  12.759  18.963  0.00  0.00    +0.000 HD
BRANCH  21  26
ATOM     23  C   UNL     1      -4.245  10.958  18.094  0.00  0.00    +0.000 A 
ATOM     24  C   UNL     1      -3.194  10.197  17.574  0.00  0.00    +0.000 A 
ATOM     25  C   UNL     1      -1.869  10.485  17.917  0.00  0.00    +0.000 A 
ATOM     26  C   UNL     1      -1.598  11.549  18.772  0.00  0.00    +0.000 A 
ATOM     27  C   UNL     1      -2.638  12.342  19.256  0.00  0.00    +0.000 A 
ATOM     28  C   UNL     1      -3.961  12.051  18.911  0.00  0.00    +0.000 A 
BRANCH  23  29
ATOM     29  O   UNL     1      -5.498  10.546  17.731  0.00  0.00    +0.000 OA
BRANCH  29  31
ATOM     30  C   UNL     1      -6.908   9.616  19.414  0.00  0.00    +0.000 C 
ATOM     31  C   UNL     1      -6.556  10.870  18.635  0.00  0.00    +0.000 C 
ENDBRANCH  29  31
ENDBRANCH  23  29
ENDBRANCH  21  26
ENDBRANCH  18  21
ENDBRANCH   1  18
TORSDOF 6
ENDMDL
MODEL 8
REMARK VINA RESULT:      -8.0      3.127      4.092
REMARK  Name = 
REMARK  8 active torsions:
REMARK  status: ('A' for Active; 'I' for Inactive)
REMARK    1  A    between atoms: C_1  and  C_2
REMARK    2  A    between atoms: C_2  and  O_3
REMARK    3  A    between atoms: O_3  and  C_4
REMARK    4  A    between atoms: C_7  and  N_8
REMARK    5  A    between atoms: N_8  and  S_9
REMARK    6  A    between atoms: S_9  and  C_12
REMARK    7  A    between atoms: C_15  and  C_16
REMARK    8  A    between atoms: C_22  and  C_23
REMARK                            x       y       z     vdW  Elec       q    Type
REMARK                         _______ _______ _______ _____ _____    ______ ____
ROOT
ATOM      1  C   UNL     1       2.271   7.366  19.310  0.00  0.00    +0.000 A 
ATOM      2  C   UNL     1       2.105   7.973  18.060  0.00  0.00    +0.000 A 
ATOM      3  C   UNL     1       1.400   9.178  17.964  0.00  0.00    +0.000 A 
ATOM      4  C   UNL     1       0.850   9.770  19.112  0.00  0.00    +0.000 A 
ATOM      5  C   UNL     1       0.963   9.111  20.344  0.00  0.00    +0.000 A 
ATOM      6  C   UNL     1       1.698   7.930  20.451  0.00  0.00    +0.000 A 
ENDROOT
BRANCH   4   7
ATOM      7  C   UNL     1       0.058  11.026  18.976  0.00  0.00    +0.000 C 
ATOM      8  O   UNL     1      -1.168  10.934  19.002  0.00  0.00    +0.000 OA
ATOM      9  N   UNL     1       0.714  12.251  18.879  0.00  0.00    +0.000 N 
ATOM     10  C   UNL     1      -0.063  13.489  18.997  0.00  0.00    +0.000 C 
ATOM     11  C   UNL     1       0.691  14.557  19.820  0.00  0.00    +0.000 C 
ATOM     12  N   UNL     1       2.092  14.709  19.382  0.00  0.00    +0.000 N 
ATOM     13  C   UNL     1       2.777  15.882  19.136  0.00  0.00    +0.000 C 
ATOM     14  C   UNL     1       2.076  17.210  19.253  0.00  0.00    +0.000 C 
ATOM     15  O   UNL     1       3.964  15.877  18.794  0.00  0.00    +0.000 OA
ATOM     16  C   UNL     1       2.829  13.442  19.279  0.00  0.00    +0.000 C 
ATOM     17  C   UNL     1       2.079  12.460  18.373  0.00  0.00    +0.000 C 
ENDBRANCH   4   7
BRANCH   1  18
ATOM     18  S   UNL     1       3.101   5.799  19.451  0.00  0.00    +0.000 S 
ATOM     19  O   UNL     1       2.295   4.958  20.304  0.00  0.00    +0.000 OA
ATOM     20  O   UNL     1       4.496   6.039  19.749  0.00  0.00    +0.000 OA
BRANCH  18  21
ATOM     21  N   UNL     1       2.969   5.152  17.899  0.00  0.00    +0.000 N 
ATOM     22  H   UNL     1       2.395   4.308  17.906  0.00  0.00    +0.000 HD
BRANCH  21  26
ATOM     23  C   UNL     1       6.426   5.074  15.490  0.00  0.00    +0.000 A 
ATOM     24  C   UNL     1       5.837   6.297  15.822  0.00  0.00    +0.000 A 
ATOM     25  C   UNL     1       4.681   6.339  16.608  0.00  0.00    +0.000 A 
ATOM     26  C   UNL     1       4.107   5.150  17.049  0.00  0.00    +0.000 A 
ATOM     27  C   UNL     1       4.661   3.926  16.680  0.00  0.00    +0.000 A 
ATOM     28  C   UNL     1       5.817   3.887  15.894  0.00  0.00    +0.000 A 
BRANCH  23  29
ATOM     29  O   UNL     1       7.582   5.162  14.765  0.00  0.00    +0.000 OA
BRANCH  29  31
ATOM     30  C   UNL     1       8.298   5.808  12.583  0.00  0.00    +0.000 C 
ATOM     31  C   UNL     1       7.493   4.802  13.385  0.00  0.00    +0.000 C 
ENDBRANCH  29  31
ENDBRANCH  23  29
ENDBRANCH  21  26
ENDBRANCH  18  21
ENDBRANCH   1  18
TORSDOF 6
ENDMDL
MODEL 9
REMARK VINA RESULT:      -8.0      3.649      9.156
REMARK  Name = 
REMARK  8 active torsions:
REMARK  status: ('A' for Active; 'I' for Inactive)
REMARK    1  A    between atoms: C_1  and  C_2
REMARK    2  A    between atoms: C_2  and  O_3
REMARK    3  A    between atoms: O_3  and  C_4
REMARK    4  A    between atoms: C_7  and  N_8
REMARK    5  A    between atoms: N_8  and  S_9
REMARK    6  A    between atoms: S_9  and  C_12
REMARK    7  A    between atoms: C_15  and  C_16
REMARK    8  A    between atoms: C_22  and  C_23
REMARK                            x       y       z     vdW  Elec       q    Type
REMARK                         _______ _______ _______ _____ _____    ______ ____
ROOT
ATOM      1  C   UNL     1       0.866  10.240  19.823  0.00  0.00    +0.000 A 
ATOM      2  C   UNL     1       0.841   9.425  20.960  0.00  0.00    +0.000 A 
ATOM      3  C   UNL     1       1.392   8.140  20.902  0.00  0.00    +0.000 A 
ATOM      4  C   UNL     1       1.956   7.664  19.708  0.00  0.00    +0.000 A 
ATOM      5  C   UNL     1       1.907   8.467  18.559  0.00  0.00    +0.000 A 
ATOM      6  C   UNL     1       1.393   9.762  18.621  0.00  0.00    +0.000 A 
ENDROOT
BRANCH   4   7
ATOM      7  C   UNL     1       2.488   6.272  19.657  0.00  0.00    +0.000 C 
ATOM      8  O   UNL     1       1.998   5.444  20.422  0.00  0.00    +0.000 OA
ATOM      9  N   UNL     1       3.471   5.942  18.726  0.00  0.00    +0.000 N 
ATOM     10  C   UNL     1       3.808   4.530  18.514  0.00  0.00    +0.000 C 
ATOM     11  C   UNL     1       4.041   4.220  17.019  0.00  0.00    +0.000 C 
ATOM     12  N   UNL     1       4.937   5.204  16.381  0.00  0.00    +0.000 N 
ATOM     13  C   UNL     1       6.013   4.954  15.552  0.00  0.00    +0.000 C 
ATOM     14  C   UNL     1       6.426   3.537  15.251  0.00  0.00    +0.000 C 
ATOM     15  O   UNL     1       6.675   5.872  15.059  0.00  0.00    +0.000 OA
ATOM     16  C   UNL     1       4.559   6.604  16.621  0.00  0.00    +0.000 C 
ATOM     17  C   UNL     1       4.437   6.873  18.125  0.00  0.00    +0.000 C 
ENDBRANCH   4   7
BRANCH   1  18
ATOM     18  S   UNL     1       0.109  11.850  19.847  0.00  0.00    +0.000 S 
ATOM     19  O   UNL     1       0.335  12.454  18.555  0.00  0.00    +0.000 OA
ATOM     20  O   UNL     1       0.502  12.528  21.063  0.00  0.00    +0.000 OA
BRANCH  18  21
ATOM     21  N   UNL     1      -1.540  11.499  19.916  0.00  0.00    +0.000 N 
ATOM     22  H   UNL     1      -1.761  10.962  20.755  0.00  0.00    +0.000 HD
BRANCH  21  26
ATOM     23  C   UNL     1      -3.437  10.454  16.301  0.00  0.00    +0.000 A 
ATOM     24  C   UNL     1      -3.858  11.585  17.007  0.00  0.00    +0.000 A 
ATOM     25  C   UNL     1      -3.249  11.936  18.216  0.00  0.00    +0.000 A 
ATOM     26  C   UNL     1      -2.225  11.143  18.725  0.00  0.00    +0.000 A 
ATOM     27  C   UNL     1      -1.833   9.988  18.051  0.00  0.00    +0.000 A 
ATOM     28  C   UNL     1      -2.444   9.638  16.843  0.00  0.00    +0.000 A 
BRANCH  23  29
ATOM     29  O   UNL     1      -4.068  10.244  15.106  0.00  0.00    +0.000 OA
BRANCH  29  31
ATOM     30  C   UNL     1      -4.108   9.848  12.755  0.00  0.00    +0.000 C 
ATOM     31  C   UNL     1      -3.224  10.004  13.979  0.00  0.00    +0.000 C 
ENDBRANCH  29  31
ENDBRANCH  23  29
ENDBRANCH  21  26
ENDBRANCH  18  21
ENDBRANCH   1  18
TORSDOF 6
ENDMDL
