MODEL 1
REMARK VINA RESULT:      -7.8      0.000      0.000
REMARK  Name = 
REMARK  9 active torsions:
REMARK  status: ('A' for Active; 'I' for Inactive)
REMARK    1  A    between atoms: C_1  and  C_2
REMARK    2  A    between atoms: C_2  and  C_3
REMARK    3  A    between atoms: C_2  and  O_22
REMARK    4  A    between atoms: C_3  and  N_4
REMARK    5  A    between atoms: C_5  and  C_7
REMARK    6  A    between atoms: C_9  and  C_10
REMARK    7  A    between atoms: C_10  and  O_11
REMARK    8  A    between atoms: O_11  and  C_12
REMARK    9  A    between atoms: O_22  and  C_23
REMARK                            x       y       z     vdW  Elec       q    Type
REMARK                         _______ _______ _______ _____ _____    ______ ____
ROOT
ATOM      1  C   UNL     1       7.454   6.323  17.798  0.00  0.00    +0.000 A 
ATOM      2  C   UNL     1       7.391   7.647  17.302  0.00  0.00    +0.000 A 
ATOM      3  C   UNL     1       8.166   8.370  18.169  0.00  0.00    +0.000 A 
ATOM      4  O   UNL     1       8.664   7.544  19.127  0.00  0.00    +0.000 OA
ATOM      5  N   UNL     1       8.190   6.259  18.920  0.00  0.00    +0.000 NA
ENDROOT
BRANCH   1   7
ATOM      6  N   UNL     1       5.578   4.846  17.699  0.00  0.00    +0.000 N 
ATOM      7  C   UNL     1       6.826   5.157  17.197  0.00  0.00    +0.000 C 
ATOM      8  O   UNL     1       7.352   4.530  16.286  0.00  0.00    +0.000 OA
ATOM      9  H   UNL     1       5.149   5.503  18.343  0.00  0.00    +0.000 HD
BRANCH   6  10
ATOM     10  C   UNL     1       4.826   3.716  17.200  0.00  0.00    +0.000 C 
BRANCH  10  12
ATOM     11  C   UNL     1       2.916   2.074  17.652  0.00  0.00    +0.000 C 
ATOM     12  C   UNL     1       3.498   3.457  17.939  0.00  0.00    +0.000 C 
BRANCH  12  13
ATOM     13  O   UNL     1       2.518   4.437  17.568  0.00  0.00    +0.000 OA
BRANCH  13  14
ATOM     14  C   UNL     1       2.327   5.509  18.398  0.00  0.00    +0.000 A 
ATOM     15  C   UNL     1       2.418   6.854  18.044  0.00  0.00    +0.000 A 
ATOM     16  C   UNL     1       2.206   7.839  19.004  0.00  0.00    +0.000 A 
ATOM     17  C   UNL     1       1.898   7.452  20.294  0.00  0.00    +0.000 A 
ATOM     18  N   UNL     1       1.793   6.162  20.677  0.00  0.00    +0.000 NA
ATOM     19  C   UNL     1       2.013   5.225  19.722  0.00  0.00    +0.000 A 
ENDBRANCH  13  14
ENDBRANCH  12  13
ENDBRANCH  10  12
ENDBRANCH   6  10
ENDBRANCH   1   7
BRANCH   3  20
ATOM     20  C   UNL     1       8.537   9.795  18.249  0.00  0.00    +0.000 C 
BRANCH  20  21
ATOM     21  O   UNL     1       9.420   9.910  19.360  0.00  0.00    +0.000 OA
BRANCH  21  22
ATOM     22  C   UNL     1       9.931  11.153  19.615  0.00  0.00    +0.000 A 
ATOM     23  C   UNL     1      10.791  11.885  18.793  0.00  0.00    +0.000 A 
ATOM     24  F   UNL     1      11.219  11.400  17.619  0.00  0.00    +0.000 F 
ATOM     25  C   UNL     1      11.241  13.152  19.164  0.00  0.00    +0.000 A 
ATOM     26  C   UNL     1      10.835  13.710  20.374  0.00  0.00    +0.000 A 
ATOM     27  C   UNL     1       9.984  12.993  21.211  0.00  0.00    +0.000 A 
ATOM     28  C   UNL     1       9.544  11.726  20.829  0.00  0.00    +0.000 A 
ATOM     29  F   UNL     1       8.725  11.060  21.657  0.00  0.00    +0.000 F 
ENDBRANCH  21  22
ENDBRANCH  20  21
ENDBRANCH   3  20
TORSDOF 8
ENDMDL
MODEL 2
REMARK VINA RESULT:      -7.5      4.339      7.410
REMARK  Name = 
REMARK  9 active torsions:
REMARK  status: ('A' for Active; 'I' for Inactive)
REMARK    1  A    between atoms: C_1  and  C_2
REMARK    2  A    between atoms: C_2  and  C_3
REMARK    3  A    between atoms: C_2  and  O_22
REMARK    4  A    between atoms: C_3  and  N_4
REMARK    5  A    between atoms: C_5  and  C_7
REMARK    6  A    between atoms: C_9  and  C_10
REMARK    7  A    between atoms: C_10  and  O_11
REMARK    8  A    between atoms: O_11  and  C_12
REMARK    9  A    between atoms: O_22  and  C_23
REMARK                            x       y       z     vdW  Elec       q    Type
REMARK                         _______ _______ _______ _____ _____    ______ ____
ROOT
ATOM      1  C   UNL     1       2.707   3.835  18.591  0.00  0.00    +0.000 A 
ATOM      2  C   UNL     1       3.024   5.035  19.271  0.00  0.00    +0.000 A 
ATOM      3  C   UNL     1       1.911   5.303  20.022  0.00  0.00    +0.000 A 
ATOM      4  O   UNL     1       0.980   4.334  19.812  0.00  0.00    +0.000 OA
ATOM      5  N   UNL     1       1.462   3.425  18.884  0.00  0.00    +0.000 NA
ENDROOT
BRANCH   1   7
ATOM      6  N   UNL     1       4.268   3.890  16.782  0.00  0.00    +0.000 N 
ATOM      7  C   UNL     1       3.588   3.106  17.693  0.00  0.00    +0.000 C 
ATOM      8  O   UNL     1       3.743   1.893  17.773  0.00  0.00    +0.000 OA
ATOM      9  H   UNL     1       4.201   4.898  16.882  0.00  0.00    +0.000 HD
BRANCH   6  10
ATOM     10  C   UNL     1       5.184   3.310  15.825  0.00  0.00    +0.000 C 
BRANCH  10  12
ATOM     11  C   UNL     1       5.971   3.900  13.463  0.00  0.00    +0.000 C 
ATOM     12  C   UNL     1       5.900   4.336  14.925  0.00  0.00    +0.000 C 
BRANCH  12  13
ATOM     13  O   UNL     1       7.241   4.560  15.388  0.00  0.00    +0.000 OA
BRANCH  13  14
ATOM     14  C   UNL     1       7.415   5.216  16.576  0.00  0.00    +0.000 A 
ATOM     15  C   UNL     1       7.262   6.584  16.794  0.00  0.00    +0.000 A 
ATOM     16  C   UNL     1       7.483   7.112  18.063  0.00  0.00    +0.000 A 
ATOM     17  C   UNL     1       7.842   6.255  19.084  0.00  0.00    +0.000 A 
ATOM     18  N   UNL     1       7.994   4.924  18.919  0.00  0.00    +0.000 NA
ATOM     19  C   UNL     1       7.780   4.440  17.670  0.00  0.00    +0.000 A 
ENDBRANCH  13  14
ENDBRANCH  12  13
ENDBRANCH  10  12
ENDBRANCH   6  10
ENDBRANCH   1   7
BRANCH   3  20
ATOM     20  C   UNL     1       1.558   6.384  20.960  0.00  0.00    +0.000 C 
BRANCH  20  21
ATOM     21  O   UNL     1       2.215   7.552  20.479  0.00  0.00    +0.000 OA
BRANCH  21  22
ATOM     22  C   UNL     1       1.420   8.537  19.959  0.00  0.00    +0.000 A 
ATOM     23  C   UNL     1       0.456   9.278  20.646  0.00  0.00    +0.000 A 
ATOM     24  F   UNL     1       0.207   9.069  21.947  0.00  0.00    +0.000 F 
ATOM     25  C   UNL     1      -0.290  10.265  20.003  0.00  0.00    +0.000 A 
ATOM     26  C   UNL     1      -0.083  10.528  18.651  0.00  0.00    +0.000 A 
ATOM     27  C   UNL     1       0.869   9.795  17.947  0.00  0.00    +0.000 A 
ATOM     28  C   UNL     1       1.607   8.809  18.602  0.00  0.00    +0.000 A 
ATOM     29  F   UNL     1       2.516   8.120  17.896  0.00  0.00    +0.000 F 
ENDBRANCH  21  22
ENDBRANCH  20  21
ENDBRANCH   3  20
TORSDOF 8
ENDMDL
MODEL 3
REMARK VINA RESULT:      -7.4      4.759      8.613
REMARK  Name = 
REMARK  9 active torsions:
REMARK  status: ('A' for Active; 'I' for Inactive)
REMARK    1  A    between atoms: C_1  and  C_2
REMARK    2  A    between atoms: C_2  and  C_3
REMARK    3  A    between atoms: C_2  and  O_22
REMARK    4  A    between atoms: C_3  and  N_4
REMARK    5  A    between atoms: C_5  and  C_7
REMARK    6  A    between atoms: C_9  and  C_10
REMARK    7  A    between atoms: C_10  and  O_11
REMARK    8  A    between atoms: O_11  and  C_12
REMARK    9  A    between atoms: O_22  and  C_23
REMARK                            x       y       z     vdW  Elec       q    Type
REMARK                         _______ _______ _______ _____ _____    ______ ____
ROOT
ATOM      1  C   UNL     1       2.116   7.783  18.662  0.00  0.00    +0.000 A 
ATOM      2  C   UNL     1       1.353   8.473  19.633  0.00  0.00    +0.000 A 
ATOM      3  C   UNL     1       1.213   9.736  19.120  0.00  0.00    +0.000 A 
ATOM      4  O   UNL     1       1.849   9.808  17.920  0.00  0.00    +0.000 OA
ATOM      5  N   UNL     1       2.451   8.592  17.643  0.00  0.00    +0.000 NA
ENDROOT
BRANCH   1   7
ATOM      6  N   UNL     1       3.227   6.023  19.838  0.00  0.00    +0.000 N 
ATOM      7  C   UNL     1       2.501   6.382  18.718  0.00  0.00    +0.000 C 
ATOM      8  O   UNL     1       2.166   5.578  17.857  0.00  0.00    +0.000 OA
ATOM      9  H   UNL     1       3.331   6.712  20.576  0.00  0.00    +0.000 HD
BRANCH   6  10
ATOM     10  C   UNL     1       3.679   4.664  20.037  0.00  0.00    +0.000 C 
BRANCH  10  12
ATOM     11  C   UNL     1       4.086   2.594  18.589  0.00  0.00    +0.000 C 
ATOM     12  C   UNL     1       4.433   4.060  18.835  0.00  0.00    +0.000 C 
BRANCH  12  13
ATOM     13  O   UNL     1       5.851   4.154  19.034  0.00  0.00    +0.000 OA
BRANCH  13  14
ATOM     14  C   UNL     1       6.496   5.273  18.579  0.00  0.00    +0.000 A 
ATOM     15  C   UNL     1       7.613   5.875  19.158  0.00  0.00    +0.000 A 
ATOM     16  C   UNL     1       8.157   7.020  18.585  0.00  0.00    +0.000 A 
ATOM     17  C   UNL     1       7.575   7.530  17.441  0.00  0.00    +0.000 A 
ATOM     18  N   UNL     1       6.498   6.976  16.845  0.00  0.00    +0.000 NA
ATOM     19  C   UNL     1       5.985   5.865  17.430  0.00  0.00    +0.000 A 
ENDBRANCH  13  14
ENDBRANCH  12  13
ENDBRANCH  10  12
ENDBRANCH   6  10
ENDBRANCH   1   7
BRANCH   3  20
ATOM     20  C   UNL     1       0.540  10.956  19.600  0.00  0.00    +0.000 C 
BRANCH  20  21
ATOM     21  O   UNL     1      -0.119  11.513  18.468  0.00  0.00    +0.000 OA
BRANCH  21  22
ATOM     22  C   UNL     1      -1.478  11.363  18.410  0.00  0.00    +0.000 A 
ATOM     23  C   UNL     1      -2.431  12.146  19.066  0.00  0.00    +0.000 A 
ATOM     24  F   UNL     1      -2.074  13.164  19.861  0.00  0.00    +0.000 F 
ATOM     25  C   UNL     1      -3.795  11.895  18.922  0.00  0.00    +0.000 A 
ATOM     26  C   UNL     1      -4.231  10.849  18.113  0.00  0.00    +0.000 A 
ATOM     27  C   UNL     1      -3.296  10.052  17.456  0.00  0.00    +0.000 A 
ATOM     28  C   UNL     1      -1.935  10.313  17.611  0.00  0.00    +0.000 A 
ATOM     29  F   UNL     1      -1.060   9.527  16.965  0.00  0.00    +0.000 F 
ENDBRANCH  21  22
ENDBRANCH  20  21
ENDBRANCH   3  20
TORSDOF 8
ENDMDL
MODEL 4
REMARK VINA RESULT:      -7.4      6.516     10.030
REMARK  Name = 
REMARK  9 active torsions:
REMARK  status: ('A' for Active; 'I' for Inactive)
REMARK    1  A    between atoms: C_1  and  C_2
REMARK    2  A    between atoms: C_2  and  C_3
REMARK    3  A    between atoms: C_2  and  O_22
REMARK    4  A    between atoms: C_3  and  N_4
REMARK    5  A    between atoms: C_5  and  C_7
REMARK    6  A    between atoms: C_9  and  C_10
REMARK    7  A    between atoms: C_10  and  O_11
REMARK    8  A    between atoms: O_11  and  C_12
REMARK    9  A    between atoms: O_22  and  C_23
REMARK                            x       y       z     vdW  Elec       q    Type
REMARK                         _______ _______ _______ _____ _____    ______ ____
ROOT
ATOM      1  C   UNL     1       1.103   9.468  18.889  0.00  0.00    +0.000 A 
ATOM      2  C   UNL     1       1.824   8.796  17.874  0.00  0.00    +0.000 A 
ATOM      3  C   UNL     1       2.469   7.782  18.531  0.00  0.00    +0.000 A 
ATOM      4  O   UNL     1       2.163   7.835  19.855  0.00  0.00    +0.000 OA
ATOM      5  N   UNL     1       1.331   8.917  20.093  0.00  0.00    +0.000 NA
ENDROOT
BRANCH   1   7
ATOM      6  N   UNL     1      -0.834  10.379  17.825  0.00  0.00    +0.000 N 
ATOM      7  C   UNL     1       0.215  10.603  18.695  0.00  0.00    +0.000 C 
ATOM      8  O   UNL     1       0.367  11.660  19.295  0.00  0.00    +0.000 OA
ATOM      9  H   UNL     1      -0.976   9.432  17.489  0.00  0.00    +0.000 HD
BRANCH   6  10
ATOM     10  C   UNL     1      -1.803  11.412  17.533  0.00  0.00    +0.000 C 
BRANCH  10  12
ATOM     11  C   UNL     1      -3.568   9.559  17.571  0.00  0.00    +0.000 C 
ATOM     12  C   UNL     1      -3.261  11.027  17.857  0.00  0.00    +0.000 C 
BRANCH  12  13
ATOM     13  O   UNL     1      -4.173  11.830  17.093  0.00  0.00    +0.000 OA
BRANCH  13  14
ATOM     14  C   UNL     1      -5.352  12.206  17.679  0.00  0.00    +0.000 A 
ATOM     15  C   UNL     1      -5.773  11.884  18.968  0.00  0.00    +0.000 A 
ATOM     16  C   UNL     1      -7.008  12.333  19.425  0.00  0.00    +0.000 A 
ATOM     17  C   UNL     1      -7.787  13.103  18.583  0.00  0.00    +0.000 A 
ATOM     18  N   UNL     1      -7.415  13.444  17.331  0.00  0.00    +0.000 NA
ATOM     19  C   UNL     1      -6.210  12.985  16.910  0.00  0.00    +0.000 A 
ENDBRANCH  13  14
ENDBRANCH  12  13
ENDBRANCH  10  12
ENDBRANCH   6  10
ENDBRANCH   1   7
BRANCH   3  20
ATOM     20  C   UNL     1       3.379   6.708  18.092  0.00  0.00    +0.000 C 
BRANCH  20  21
ATOM     21  O   UNL     1       3.447   5.785  19.174  0.00  0.00    +0.000 OA
BRANCH  21  22
ATOM     22  C   UNL     1       2.777   4.602  19.019  0.00  0.00    +0.000 A 
ATOM     23  C   UNL     1       2.937   3.684  17.979  0.00  0.00    +0.000 A 
ATOM     24  F   UNL     1       3.805   3.902  16.980  0.00  0.00    +0.000 F 
ATOM     25  C   UNL     1       2.195   2.505  17.935  0.00  0.00    +0.000 A 
ATOM     26  C   UNL     1       1.274   2.222  18.941  0.00  0.00    +0.000 A 
ATOM     27  C   UNL     1       1.095   3.128  19.983  0.00  0.00    +0.000 A 
ATOM     28  C   UNL     1       1.842   4.305  20.013  0.00  0.00    +0.000 A 
ATOM     29  F   UNL     1       1.646   5.157  21.030  0.00  0.00    +0.000 F 
ENDBRANCH  21  22
ENDBRANCH  20  21
ENDBRANCH   3  20
TORSDOF 8
ENDMDL
MODEL 5
REMARK VINA RESULT:      -7.4      6.416      9.859
REMARK  Name = 
REMARK  9 active torsions:
REMARK  status: ('A' for Active; 'I' for Inactive)
REMARK    1  A    between atoms: C_1  and  C_2
REMARK    2  A    between atoms: C_2  and  C_3
REMARK    3  A    between atoms: C_2  and  O_22
REMARK    4  A    between atoms: C_3  and  N_4
REMARK    5  A    between atoms: C_5  and  C_7
REMARK    6  A    between atoms: C_9  and  C_10
REMARK    7  A    between atoms: C_10  and  O_11
REMARK    8  A    between atoms: O_11  and  C_12
REMARK    9  A    between atoms: O_22  and  C_23
REMARK                            x       y       z     vdW  Elec       q    Type
REMARK                         _______ _______ _______ _____ _____    ______ ____
ROOT
ATOM      1  C   UNL     1       1.528   9.662  18.864  0.00  0.00    +0.000 A 
ATOM      2  C   UNL     1       1.812   8.374  19.376  0.00  0.00    +0.000 A 
ATOM      3  C   UNL     1       2.454   7.735  18.348  0.00  0.00    +0.000 A 
ATOM      4  O   UNL     1       2.552   8.576  17.284  0.00  0.00    +0.000 OA
ATOM      5  N   UNL     1       1.938   9.780  17.590  0.00  0.00    +0.000 NA
ENDROOT
BRANCH   1   7
ATOM      6  N   UNL     1      -0.303  10.409  20.206  0.00  0.00    +0.000 N 
ATOM      7  C   UNL     1       0.887  10.746  19.591  0.00  0.00    +0.000 C 
ATOM      8  O   UNL     1       1.391  11.858  19.684  0.00  0.00    +0.000 OA
ATOM      9  H   UNL     1      -0.574   9.431  20.209  0.00  0.00    +0.000 HD
BRANCH   6  10
ATOM     10  C   UNL     1      -1.057  11.379  20.969  0.00  0.00    +0.000 C 
BRANCH  10  12
ATOM     11  C   UNL     1      -1.766  13.835  20.868  0.00  0.00    +0.000 C 
ATOM     12  C   UNL     1      -1.686  12.504  20.124  0.00  0.00    +0.000 C 
BRANCH  12  13
ATOM     13  O   UNL     1      -3.014  12.143  19.716  0.00  0.00    +0.000 OA
BRANCH  13  14
ATOM     14  C   UNL     1      -3.204  11.726  18.426  0.00  0.00    +0.000 A 
ATOM     15  C   UNL     1      -2.207  11.412  17.504  0.00  0.00    +0.000 A 
ATOM     16  C   UNL     1      -2.555  11.008  16.219  0.00  0.00    +0.000 A 
ATOM     17  C   UNL     1      -3.893  10.918  15.891  0.00  0.00    +0.000 A 
ATOM     18  N   UNL     1      -4.890  11.206  16.754  0.00  0.00    +0.000 NA
ATOM     19  C   UNL     1      -4.521  11.605  17.997  0.00  0.00    +0.000 A 
ENDBRANCH  13  14
ENDBRANCH  12  13
ENDBRANCH  10  12
ENDBRANCH   6  10
ENDBRANCH   1   7
BRANCH   3  20
ATOM     20  C   UNL     1       3.025   6.384  18.193  0.00  0.00    +0.000 C 
BRANCH  20  21
ATOM     21  O   UNL     1       1.921   5.516  17.960  0.00  0.00    +0.000 OA
BRANCH  21  22
ATOM     22  C   UNL     1       1.798   4.438  18.792  0.00  0.00    +0.000 A 
ATOM     23  C   UNL     1       1.431   4.462  20.139  0.00  0.00    +0.000 A 
ATOM     24  F   UNL     1       1.162   5.614  20.770  0.00  0.00    +0.000 F 
ATOM     25  C   UNL     1       1.335   3.287  20.884  0.00  0.00    +0.000 A 
ATOM     26  C   UNL     1       1.606   2.058  20.287  0.00  0.00    +0.000 A 
ATOM     27  C   UNL     1       1.980   2.013  18.946  0.00  0.00    +0.000 A 
ATOM     28  C   UNL     1       2.075   3.196  18.214  0.00  0.00    +0.000 A 
ATOM     29  F   UNL     1       2.438   3.119  16.925  0.00  0.00    +0.000 F 
ENDBRANCH  21  22
ENDBRANCH  20  21
ENDBRANCH   3  20
TORSDOF 8
ENDMDL
MODEL 6
REMARK VINA RESULT:      -7.3      6.022      9.817
REMARK  Name = 
REMARK  9 active torsions:
REMARK  status: ('A' for Active; 'I' for Inactive)
REMARK    1  A    between atoms: C_1  and  C_2
REMARK    2  A    between atoms: C_2  and  C_3
REMARK    3  A    between atoms: C_2  and  O_22
REMARK    4  A    between atoms: C_3  and  N_4
REMARK    5  A    between atoms: C_5  and  C_7
REMARK    6  A    between atoms: C_9  and  C_10
REMARK    7  A    between atoms: C_10  and  O_11
REMARK    8  A    between atoms: O_11  and  C_12
REMARK    9  A    between atoms: O_22  and  C_23
REMARK                            x       y       z     vdW  Elec       q    Type
REMARK                         _______ _______ _______ _____ _____    ______ ____
ROOT
ATOM      1  C   UNL     1       1.175   9.279  19.021  0.00  0.00    +0.000 A 
ATOM      2  C   UNL     1       1.869   8.145  19.503  0.00  0.00    +0.000 A 
ATOM      3  C   UNL     1       2.600   7.712  18.428  0.00  0.00    +0.000 A 
ATOM      4  O   UNL     1       2.364   8.526  17.365  0.00  0.00    +0.000 OA
ATOM      5  N   UNL     1       1.439   9.494  17.721  0.00  0.00    +0.000 NA
ENDROOT
BRANCH   1   7
ATOM      6  N   UNL     1       0.206  11.438  19.358  0.00  0.00    +0.000 N 
ATOM      7  C   UNL     1       0.289  10.131  19.798  0.00  0.00    +0.000 C 
ATOM      8  O   UNL     1      -0.363   9.705  20.743  0.00  0.00    +0.000 OA
ATOM      9  H   UNL     1       0.657  11.671  18.480  0.00  0.00    +0.000 HD
BRANCH   6  10
ATOM     10  C   UNL     1      -0.637  12.404  20.027  0.00  0.00    +0.000 C 
BRANCH  10  12
ATOM     11  C   UNL     1       1.586  13.337  20.886  0.00  0.00    +0.000 C 
ATOM     12  C   UNL     1       0.080  13.229  21.115  0.00  0.00    +0.000 C 
BRANCH  12  13
ATOM     13  O   UNL     1      -0.133  12.645  22.409  0.00  0.00    +0.000 OA
BRANCH  13  14
ATOM     14  C   UNL     1      -1.304  12.923  23.060  0.00  0.00    +0.000 A 
ATOM     15  C   UNL     1      -1.654  14.137  23.649  0.00  0.00    +0.000 A 
ATOM     16  C   UNL     1      -2.883  14.268  24.288  0.00  0.00    +0.000 A 
ATOM     17  C   UNL     1      -3.737  13.182  24.312  0.00  0.00    +0.000 A 
ATOM     18  N   UNL     1      -3.441  11.992  23.749  0.00  0.00    +0.000 NA
ATOM     19  C   UNL     1      -2.233  11.892  23.141  0.00  0.00    +0.000 A 
ENDBRANCH  13  14
ENDBRANCH  12  13
ENDBRANCH  10  12
ENDBRANCH   6  10
ENDBRANCH   1   7
BRANCH   3  20
ATOM     20  C   UNL     1       3.538   6.593  18.225  0.00  0.00    +0.000 C 
BRANCH  20  21
ATOM     21  O   UNL     1       3.343   5.713  19.326  0.00  0.00    +0.000 OA
BRANCH  21  22
ATOM     22  C   UNL     1       2.701   4.533  19.066  0.00  0.00    +0.000 A 
ATOM     23  C   UNL     1       3.083   3.564  18.135  0.00  0.00    +0.000 A 
ATOM     24  F   UNL     1       4.170   3.722  17.366  0.00  0.00    +0.000 F 
ATOM     25  C   UNL     1       2.345   2.394  17.965  0.00  0.00    +0.000 A 
ATOM     26  C   UNL     1       1.202   2.172  18.731  0.00  0.00    +0.000 A 
ATOM     27  C   UNL     1       0.801   3.129  19.660  0.00  0.00    +0.000 A 
ATOM     28  C   UNL     1       1.548   4.296  19.817  0.00  0.00    +0.000 A 
ATOM     29  F   UNL     1       1.135   5.198  20.720  0.00  0.00    +0.000 F 
ENDBRANCH  21  22
ENDBRANCH  20  21
ENDBRANCH   3  20
TORSDOF 8
ENDMDL
MODEL 7
REMARK VINA RESULT:      -7.3      6.453     10.051
REMARK  Name = 
REMARK  9 active torsions:
REMARK  status: ('A' for Active; 'I' for Inactive)
REMARK    1  A    between atoms: C_1  and  C_2
REMARK    2  A    between atoms: C_2  and  C_3
REMARK    3  A    between atoms: C_2  and  O_22
REMARK    4  A    between atoms: C_3  and  N_4
REMARK    5  A    between atoms: C_5  and  C_7
REMARK    6  A    between atoms: C_9  and  C_10
REMARK    7  A    between atoms: C_10  and  O_11
REMARK    8  A    between atoms: O_11  and  C_12
REMARK    9  A    between atoms: O_22  and  C_23
REMARK                            x       y       z     vdW  Elec       q    Type
REMARK                         _______ _______ _______ _____ _____    ______ ____
ROOT
ATOM      1  C   UNL     1       0.779   9.542  19.668  0.00  0.00    +0.000 A 
ATOM      2  C   UNL     1       1.521   8.844  18.688  0.00  0.00    +0.000 A 
ATOM      3  C   UNL     1       2.074   7.791  19.368  0.00  0.00    +0.000 A 
ATOM      4  O   UNL     1       1.696   7.847  20.672  0.00  0.00    +0.000 OA
ATOM      5  N   UNL     1       0.909   8.969  20.877  0.00  0.00    +0.000 NA
ENDROOT
BRANCH   1   7
ATOM      6  N   UNL     1      -1.183  10.505  18.700  0.00  0.00    +0.000 N 
ATOM      7  C   UNL     1      -0.036  10.724  19.439  0.00  0.00    +0.000 C 
ATOM      8  O   UNL     1       0.255  11.819  19.905  0.00  0.00    +0.000 OA
ATOM      9  H   UNL     1      -1.430   9.545  18.483  0.00  0.00    +0.000 HD
BRANCH   6  10
ATOM     10  C   UNL     1      -2.097  11.583  18.392  0.00  0.00    +0.000 C 
BRANCH  10  12
ATOM     11  C   UNL     1      -3.285  11.077  16.183  0.00  0.00    +0.000 C 
ATOM     12  C   UNL     1      -3.402  11.134  17.705  0.00  0.00    +0.000 C 
BRANCH  12  13
ATOM     13  O   UNL     1      -4.476  12.027  18.035  0.00  0.00    +0.000 OA
BRANCH  13  14
ATOM     14  C   UNL     1      -5.433  11.593  18.912  0.00  0.00    +0.000 A 
ATOM     15  C   UNL     1      -6.342  10.558  18.697  0.00  0.00    +0.000 A 
ATOM     16  C   UNL     1      -7.268  10.233  19.683  0.00  0.00    +0.000 A 
ATOM     17  C   UNL     1      -7.256  10.948  20.865  0.00  0.00    +0.000 A 
ATOM     18  N   UNL     1      -6.390  11.952  21.117  0.00  0.00    +0.000 NA
ATOM     19  C   UNL     1      -5.504  12.251  20.135  0.00  0.00    +0.000 A 
ENDBRANCH  13  14
ENDBRANCH  12  13
ENDBRANCH  10  12
ENDBRANCH   6  10
ENDBRANCH   1   7
BRANCH   3  20
ATOM     20  C   UNL     1       2.951   6.675  18.968  0.00  0.00    +0.000 C 
BRANCH  20  21
ATOM     21  O   UNL     1       2.148   5.811  18.171  0.00  0.00    +0.000 OA
BRANCH  21  22
ATOM     22  C   UNL     1       2.320   4.466  18.354  0.00  0.00    +0.000 A 
ATOM     23  C   UNL     1       3.126   3.617  17.592  0.00  0.00    +0.000 A 
ATOM     24  F   UNL     1       3.834   4.075  16.549  0.00  0.00    +0.000 F 
ATOM     25  C   UNL     1       3.223   2.258  17.884  0.00  0.00    +0.000 A 
ATOM     26  C   UNL     1       2.509   1.720  18.952  0.00  0.00    +0.000 A 
ATOM     27  C   UNL     1       1.695   2.548  19.720  0.00  0.00    +0.000 A 
ATOM     28  C   UNL     1       1.605   3.906  19.416  0.00  0.00    +0.000 A 
ATOM     29  F   UNL     1       0.812   4.677  20.174  0.00  0.00    +0.000 F 
ENDBRANCH  21  22
ENDBRANCH  20  21
ENDBRANCH   3  20
TORSDOF 8
ENDMDL
MODEL 8
REMARK VINA RESULT:      -7.3      6.462     10.120
REMARK  Name = 
REMARK  9 active torsions:
REMARK  status: ('A' for Active; 'I' for Inactive)
REMARK    1  A    between atoms: C_1  and  C_2
REMARK    2  A    between atoms: C_2  and  C_3
REMARK    3  A    between atoms: C_2  and  O_22
REMARK    4  A    between atoms: C_3  and  N_4
REMARK    5  A    between atoms: C_5  and  C_7
REMARK    6  A    between atoms: C_9  and  C_10
REMARK    7  A    between atoms: C_10  and  O_11
REMARK    8  A    between atoms: O_11  and  C_12
REMARK    9  A    between atoms: O_22  and  C_23
REMARK                            x       y       z     vdW  Elec       q    Type
REMARK                         _______ _______ _______ _____ _____    ______ ____
ROOT
ATOM      1  C   UNL     1       1.016   9.767  19.012  0.00  0.00    +0.000 A 
ATOM      2  C   UNL     1       1.748   9.111  17.994  0.00  0.00    +0.000 A 
ATOM      3  C   UNL     1       2.266   8.002  18.610  0.00  0.00    +0.000 A 
ATOM      4  O   UNL     1       1.877   7.986  19.912  0.00  0.00    +0.000 OA
ATOM      5  N   UNL     1       1.119   9.114  20.182  0.00  0.00    +0.000 NA
ENDROOT
BRANCH   1   7
ATOM      6  N   UNL     1      -1.125  10.828  19.031  0.00  0.00    +0.000 N 
ATOM      7  C   UNL     1       0.236  10.983  18.852  0.00  0.00    +0.000 C 
ATOM      8  O   UNL     1       0.756  12.067  18.620  0.00  0.00    +0.000 OA
ATOM      9  H   UNL     1      -1.459   9.932  19.371  0.00  0.00    +0.000 HD
BRANCH   6  10
ATOM     10  C   UNL     1      -2.033  11.947  18.908  0.00  0.00    +0.000 C 
BRANCH  10  12
ATOM     11  C   UNL     1      -3.771  11.249  17.165  0.00  0.00    +0.000 C 
ATOM     12  C   UNL     1      -3.498  11.552  18.637  0.00  0.00    +0.000 C 
BRANCH  12  13
ATOM     13  O   UNL     1      -4.386  12.604  19.046  0.00  0.00    +0.000 OA
BRANCH  13  14
ATOM     14  C   UNL     1      -5.486  12.271  19.789  0.00  0.00    +0.000 A 
ATOM     15  C   UNL     1      -6.713  11.831  19.295  0.00  0.00    +0.000 A 
ATOM     16  C   UNL     1      -7.749  11.537  20.176  0.00  0.00    +0.000 A 
ATOM     17  C   UNL     1      -7.527  11.681  21.532  0.00  0.00    +0.000 A 
ATOM     18  N   UNL     1      -6.354  12.097  22.053  0.00  0.00    +0.000 NA
ATOM     19  C   UNL     1      -5.366  12.384  21.169  0.00  0.00    +0.000 A 
ENDBRANCH  13  14
ENDBRANCH  12  13
ENDBRANCH  10  12
ENDBRANCH   6  10
ENDBRANCH   1   7
BRANCH   3  20
ATOM     20  C   UNL     1       3.116   6.890  18.146  0.00  0.00    +0.000 C 
BRANCH  20  21
ATOM     21  O   UNL     1       3.151   5.951  19.215  0.00  0.00    +0.000 OA
BRANCH  21  22
ATOM     22  C   UNL     1       2.557   4.739  18.991  0.00  0.00    +0.000 A 
ATOM     23  C   UNL     1       2.877   3.828  17.981  0.00  0.00    +0.000 A 
ATOM     24  F   UNL     1       3.844   4.084  17.089  0.00  0.00    +0.000 F 
ATOM     25  C   UNL     1       2.199   2.616  17.859  0.00  0.00    +0.000 A 
ATOM     26  C   UNL     1       1.181   2.293  18.753  0.00  0.00    +0.000 A 
ATOM     27  C   UNL     1       0.842   3.191  19.763  0.00  0.00    +0.000 A 
ATOM     28  C   UNL     1       1.527   4.400  19.871  0.00  0.00    +0.000 A 
ATOM     29  F   UNL     1       1.177   5.244  20.854  0.00  0.00    +0.000 F 
ENDBRANCH  21  22
ENDBRANCH  20  21
ENDBRANCH   3  20
TORSDOF 8
ENDMDL
MODEL 9
REMARK VINA RESULT:      -7.3      5.912      9.553
REMARK  Name = 
REMARK  9 active torsions:
REMARK  status: ('A' for Active; 'I' for Inactive)
REMARK    1  A    between atoms: C_1  and  C_2
REMARK    2  A    between atoms: C_2  and  C_3
REMARK    3  A    between atoms: C_2  and  O_22
REMARK    4  A    between atoms: C_3  and  N_4
REMARK    5  A    between atoms: C_5  and  C_7
REMARK    6  A    between atoms: C_9  and  C_10
REMARK    7  A    between atoms: C_10  and  O_11
REMARK    8  A    between atoms: O_11  and  C_12
REMARK    9  A    between atoms: O_22  and  C_23
REMARK                            x       y       z     vdW  Elec       q    Type
REMARK                         _______ _______ _______ _____ _____    ______ ____
ROOT
ATOM      1  C   UNL     1       1.797   8.794  18.818  0.00  0.00    +0.000 A 
ATOM      2  C   UNL     1       2.737   8.330  17.869  0.00  0.00    +0.000 A 
ATOM      3  C   UNL     1       3.234   7.178  18.419  0.00  0.00    +0.000 A 
ATOM      4  O   UNL     1       2.638   6.958  19.621  0.00  0.00    +0.000 OA
ATOM      5  N   UNL     1       1.757   7.992  19.895  0.00  0.00    +0.000 NA
ENDROOT
BRANCH   1   7
ATOM      6  N   UNL     1      -0.348   9.810  19.099  0.00  0.00    +0.000 N 
ATOM      7  C   UNL     1       0.958   9.974  18.681  0.00  0.00    +0.000 C 
ATOM      8  O   UNL     1       1.394  11.040  18.267  0.00  0.00    +0.000 OA
ATOM      9  H   UNL     1      -0.590   8.944  19.571  0.00  0.00    +0.000 HD
BRANCH   6  10
ATOM     10  C   UNL     1      -1.303  10.894  19.028  0.00  0.00    +0.000 C 
BRANCH  10  12
ATOM     11  C   UNL     1      -2.173  10.145  16.742  0.00  0.00    +0.000 C 
ATOM     12  C   UNL     1      -2.537  10.600  18.153  0.00  0.00    +0.000 C 
BRANCH  12  13
ATOM     13  O   UNL     1      -3.365  11.767  18.044  0.00  0.00    +0.000 OA
BRANCH  13  14
ATOM     14  C   UNL     1      -4.604  11.740  18.626  0.00  0.00    +0.000 A 
ATOM     15  C   UNL     1      -5.040  12.544  19.678  0.00  0.00    +0.000 A 
ATOM     16  C   UNL     1      -6.331  12.396  20.175  0.00  0.00    +0.000 A 
ATOM     17  C   UNL     1      -7.158  11.451  19.599  0.00  0.00    +0.000 A 
ATOM     18  N   UNL     1      -6.779  10.656  18.576  0.00  0.00    +0.000 NA
ATOM     19  C   UNL     1      -5.512  10.819  18.118  0.00  0.00    +0.000 A 
ENDBRANCH  13  14
ENDBRANCH  12  13
ENDBRANCH  10  12
ENDBRANCH   6  10
ENDBRANCH   1   7
BRANCH   3  20
ATOM     20  C   UNL     1       4.235   6.192  17.973  0.00  0.00    +0.000 C 
BRANCH  20  21
ATOM     21  O   UNL     1       3.513   5.194  17.259  0.00  0.00    +0.000 OA
BRANCH  21  22
ATOM     22  C   UNL     1       3.061   4.124  17.981  0.00  0.00    +0.000 A 
ATOM     23  C   UNL     1       3.833   3.258  18.759  0.00  0.00    +0.000 A 
ATOM     24  F   UNL     1       5.161   3.405  18.862  0.00  0.00    +0.000 F 
ATOM     25  C   UNL     1       3.250   2.201  19.458  0.00  0.00    +0.000 A 
ATOM     26  C   UNL     1       1.875   1.992  19.389  0.00  0.00    +0.000 A 
ATOM     27  C   UNL     1       1.089   2.840  18.613  0.00  0.00    +0.000 A 
ATOM     28  C   UNL     1       1.685   3.892  17.918  0.00  0.00    +0.000 A 
ATOM     29  F   UNL     1       0.900   4.692  17.179  0.00  0.00    +0.000 F 
ENDBRANCH  21  22
ENDBRANCH  20  21
ENDBRANCH   3  20
TORSDOF 8
ENDMDL
