MODEL 1
REMARK VINA RESULT:      -7.3      0.000      0.000
REMARK  Name = 
REMARK  6 active torsions:
REMARK  status: ('A' for Active; 'I' for Inactive)
REMARK    1  A    between atoms: C_1  and  C_2
REMARK    2  A    between atoms: C_2  and  C_15
REMARK    3  A    between atoms: N_3  and  N_4
REMARK    4  A    between atoms: C_5  and  C_7
REMARK    5  A    between atoms: C_13  and  O_14
REMARK    6  A    between atoms: N_24  and  C_25
REMARK                            x       y       z     vdW  Elec       q    Type
REMARK                         _______ _______ _______ _____ _____    ______ ____
ROOT
ATOM      1  C   UNL     1      -0.599  10.357  18.717  0.00  0.00    +0.000 C 
ATOM      2  C   UNL     1       0.558  10.013  19.638  0.00  0.00    +0.000 C 
ATOM      3  N   UNL     1       0.802  10.590  20.777  0.00  0.00    +0.000 NA
ENDROOT
BRANCH   2   4
ATOM      4  C   UNL     1       1.469   8.960  19.175  0.00  0.00    +0.000 A 
ATOM      5  C   UNL     1       2.155   8.926  17.968  0.00  0.00    +0.000 A 
ATOM      6  C   UNL     1       2.957   7.761  17.913  0.00  0.00    +0.000 A 
ATOM      7  C   UNL     1       3.850   7.250  16.951  0.00  0.00    +0.000 A 
ATOM      8  C   UNL     1       4.506   6.045  17.207  0.00  0.00    +0.000 A 
ATOM      9 CL   UNL     1       5.608   5.420  16.040  0.00  0.00    +0.000 Cl
ATOM     10  C   UNL     1       4.286   5.349  18.390  0.00  0.00    +0.000 A 
ATOM     11  C   UNL     1       3.401   5.843  19.355  0.00  0.00    +0.000 A 
ATOM     12  C   UNL     1       2.741   7.059  19.098  0.00  0.00    +0.000 A 
ATOM     13  N   UNL     1       1.822   7.788  19.841  0.00  0.00    +0.000 N 
ATOM     14  C   UNL     1       1.293   7.363  21.124  0.00  0.00    +0.000 C 
ENDBRANCH   2   4
BRANCH   3  15
ATOM     15  N   UNL     1      -0.010  11.565  21.265  0.00  0.00    +0.000 N 
ATOM     16  C   UNL     1      -0.548  11.445  22.536  0.00  0.00    +0.000 C 
ATOM     17  O   UNL     1      -0.328  10.502  23.290  0.00  0.00    +0.000 OA
ATOM     18  H   UNL     1      -0.271  12.374  20.709  0.00  0.00    +0.000 HD
BRANCH  16  19
ATOM     19  C   UNL     1      -1.455  12.552  22.986  0.00  0.00    +0.000 A 
ATOM     20  C   UNL     1      -2.765  12.193  23.344  0.00  0.00    +0.000 A 
ATOM     21  C   UNL     1      -3.676  13.161  23.768  0.00  0.00    +0.000 A 
ATOM     22 BR   UNL     1      -5.434  12.653  24.244  0.00  0.00    +0.000 Br
ATOM     23  C   UNL     1      -3.300  14.499  23.844  0.00  0.00    +0.000 A 
ATOM     24  C   UNL     1      -2.004  14.873  23.494  0.00  0.00    +0.000 A 
ATOM     25  C   UNL     1      -1.087  13.907  23.063  0.00  0.00    +0.000 A 
BRANCH  25  26
ATOM     26  O   UNL     1       0.176  14.315  22.711  0.00  0.00    +0.000 OA
ATOM     27  H   UNL     1       0.520  14.901  23.411  0.00  0.00    +0.000 HD
ENDBRANCH  25  26
ENDBRANCH  16  19
ENDBRANCH   3  15
TORSDOF 4
ENDMDL
MODEL 2
REMARK VINA RESULT:      -7.3      5.026      9.501
REMARK  Name = 
REMARK  6 active torsions:
REMARK  status: ('A' for Active; 'I' for Inactive)
REMARK    1  A    between atoms: C_1  and  C_2
REMARK    2  A    between atoms: C_2  and  C_15
REMARK    3  A    between atoms: N_3  and  N_4
REMARK    4  A    between atoms: C_5  and  C_7
REMARK    5  A    between atoms: C_13  and  O_14
REMARK    6  A    between atoms: N_24  and  C_25
REMARK                            x       y       z     vdW  Elec       q    Type
REMARK                         _______ _______ _______ _____ _____    ______ ____
ROOT
ATOM      1  C   UNL     1       0.828   9.659  17.894  0.00  0.00    +0.000 C 
ATOM      2  C   UNL     1       1.077   9.484  19.382  0.00  0.00    +0.000 C 
ATOM      3  N   UNL     1       1.792   8.536  19.912  0.00  0.00    +0.000 NA
ENDROOT
BRANCH   2   4
ATOM      4  C   UNL     1       0.433  10.458  20.269  0.00  0.00    +0.000 A 
ATOM      5  C   UNL     1      -0.671  10.240  21.082  0.00  0.00    +0.000 A 
ATOM      6  C   UNL     1      -0.964  11.419  21.809  0.00  0.00    +0.000 A 
ATOM      7  C   UNL     1      -1.943  11.740  22.769  0.00  0.00    +0.000 A 
ATOM      8  C   UNL     1      -1.960  13.025  23.315  0.00  0.00    +0.000 A 
ATOM      9 CL   UNL     1      -3.148  13.423  24.498  0.00  0.00    +0.000 Cl
ATOM     10  C   UNL     1      -1.032  13.982  22.921  0.00  0.00    +0.000 A 
ATOM     11  C   UNL     1      -0.054  13.677  21.966  0.00  0.00    +0.000 A 
ATOM     12  C   UNL     1      -0.035  12.381  21.419  0.00  0.00    +0.000 A 
ATOM     13  N   UNL     1       0.790  11.790  20.471  0.00  0.00    +0.000 N 
ATOM     14  C   UNL     1       1.860  12.484  19.777  0.00  0.00    +0.000 C 
ENDBRANCH   2   4
BRANCH   3  15
ATOM     15  N   UNL     1       2.422   7.610  19.142  0.00  0.00    +0.000 N 
ATOM     16  C   UNL     1       2.392   6.273  19.505  0.00  0.00    +0.000 C 
ATOM     17  O   UNL     1       1.806   5.841  20.493  0.00  0.00    +0.000 OA
ATOM     18  H   UNL     1       2.952   7.869  18.316  0.00  0.00    +0.000 HD
BRANCH  16  19
ATOM     19  C   UNL     1       3.134   5.321  18.614  0.00  0.00    +0.000 A 
ATOM     20  C   UNL     1       4.532   5.453  18.570  0.00  0.00    +0.000 A 
ATOM     21  C   UNL     1       5.299   4.612  17.763  0.00  0.00    +0.000 A 
ATOM     22 BR   UNL     1       7.179   4.810  17.719  0.00  0.00    +0.000 Br
ATOM     23  C   UNL     1       4.692   3.627  16.989  0.00  0.00    +0.000 A 
ATOM     24  C   UNL     1       3.306   3.481  17.023  0.00  0.00    +0.000 A 
ATOM     25  C   UNL     1       2.530   4.325  17.826  0.00  0.00    +0.000 A 
BRANCH  25  26
ATOM     26  O   UNL     1       1.167   4.162  17.820  0.00  0.00    +0.000 OA
ATOM     27  H   UNL     1       0.968   3.209  17.751  0.00  0.00    +0.000 HD
ENDBRANCH  25  26
ENDBRANCH  16  19
ENDBRANCH   3  15
TORSDOF 4
ENDMDL
MODEL 3
REMARK VINA RESULT:      -7.3      4.133      4.742
REMARK  Name = 
REMARK  6 active torsions:
REMARK  status: ('A' for Active; 'I' for Inactive)
REMARK    1  A    between atoms: C_1  and  C_2
REMARK    2  A    between atoms: C_2  and  C_15
REMARK    3  A    between atoms: N_3  and  N_4
REMARK    4  A    between atoms: C_5  and  C_7
REMARK    5  A    between atoms: C_13  and  O_14
REMARK    6  A    between atoms: N_24  and  C_25
REMARK                            x       y       z     vdW  Elec       q    Type
REMARK                         _______ _______ _______ _____ _____    ______ ____
ROOT
ATOM      1  C   UNL     1       0.076  10.700  18.270  0.00  0.00    +0.000 C 
ATOM      2  C   UNL     1       1.539  10.294  18.301  0.00  0.00    +0.000 C 
ATOM      3  N   UNL     1       2.540  11.092  18.073  0.00  0.00    +0.000 NA
ENDROOT
BRANCH   2   4
ATOM      4  C   UNL     1       1.818   8.884  18.592  0.00  0.00    +0.000 A 
ATOM      5  C   UNL     1       2.277   7.925  17.699  0.00  0.00    +0.000 A 
ATOM      6  C   UNL     1       2.454   6.695  18.375  0.00  0.00    +0.000 A 
ATOM      7  C   UNL     1       2.906   5.426  17.964  0.00  0.00    +0.000 A 
ATOM      8  C   UNL     1       2.971   4.393  18.901  0.00  0.00    +0.000 A 
ATOM      9 CL   UNL     1       3.534   2.841  18.408  0.00  0.00    +0.000 Cl
ATOM     10  C   UNL     1       2.591   4.601  20.221  0.00  0.00    +0.000 A 
ATOM     11  C   UNL     1       2.137   5.856  20.645  0.00  0.00    +0.000 A 
ATOM     12  C   UNL     1       2.076   6.898  19.701  0.00  0.00    +0.000 A 
ATOM     13  N   UNL     1       1.674   8.223  19.810  0.00  0.00    +0.000 N 
ATOM     14  C   UNL     1       1.155   8.817  21.029  0.00  0.00    +0.000 C 
ENDBRANCH   2   4
BRANCH   3  15
ATOM     15  N   UNL     1       2.347  12.411  17.807  0.00  0.00    +0.000 N 
ATOM     16  C   UNL     1       2.379  13.336  18.839  0.00  0.00    +0.000 C 
ATOM     17  O   UNL     1       2.592  13.051  20.013  0.00  0.00    +0.000 OA
ATOM     18  H   UNL     1       2.141  12.746  16.871  0.00  0.00    +0.000 HD
BRANCH  16  19
ATOM     19  C   UNL     1       2.130  14.767  18.463  0.00  0.00    +0.000 A 
ATOM     20  C   UNL     1       0.905  15.325  18.866  0.00  0.00    +0.000 A 
ATOM     21  C   UNL     1       0.591  16.648  18.553  0.00  0.00    +0.000 A 
ATOM     22 BR   UNL     1      -1.064  17.376  19.105  0.00  0.00    +0.000 Br
ATOM     23  C   UNL     1       1.486  17.437  17.835  0.00  0.00    +0.000 A 
ATOM     24  C   UNL     1       2.706  16.899  17.428  0.00  0.00    +0.000 A 
ATOM     25  C   UNL     1       3.025  15.571  17.735  0.00  0.00    +0.000 A 
BRANCH  25  26
ATOM     26  O   UNL     1       4.230  15.072  17.304  0.00  0.00    +0.000 OA
ATOM     27  H   UNL     1       4.624  15.707  16.677  0.00  0.00    +0.000 HD
ENDBRANCH  25  26
ENDBRANCH  16  19
ENDBRANCH   3  15
TORSDOF 4
ENDMDL
MODEL 4
REMARK VINA RESULT:      -7.3      2.197      3.637
REMARK  Name = 
REMARK  6 active torsions:
REMARK  status: ('A' for Active; 'I' for Inactive)
REMARK    1  A    between atoms: C_1  and  C_2
REMARK    2  A    between atoms: C_2  and  C_15
REMARK    3  A    between atoms: N_3  and  N_4
REMARK    4  A    between atoms: C_5  and  C_7
REMARK    5  A    between atoms: C_13  and  O_14
REMARK    6  A    between atoms: N_24  and  C_25
REMARK                            x       y       z     vdW  Elec       q    Type
REMARK                         _______ _______ _______ _____ _____    ______ ____
ROOT
ATOM      1  C   UNL     1       1.905   6.027  20.474  0.00  0.00    +0.000 C 
ATOM      2  C   UNL     1       2.336   6.913  19.318  0.00  0.00    +0.000 C 
ATOM      3  N   UNL     1       1.958   8.144  19.140  0.00  0.00    +0.000 NA
ENDROOT
BRANCH   2   4
ATOM      4  C   UNL     1       3.229   6.302  18.327  0.00  0.00    +0.000 A 
ATOM      5  C   UNL     1       4.029   6.966  17.407  0.00  0.00    +0.000 A 
ATOM      6  C   UNL     1       4.767   6.022  16.654  0.00  0.00    +0.000 A 
ATOM      7  C   UNL     1       5.721   6.145  15.626  0.00  0.00    +0.000 A 
ATOM      8  C   UNL     1       6.282   4.989  15.080  0.00  0.00    +0.000 A 
ATOM      9 CL   UNL     1       7.458   5.131  13.830  0.00  0.00    +0.000 Cl
ATOM     10  C   UNL     1       5.907   3.730  15.533  0.00  0.00    +0.000 A 
ATOM     11  C   UNL     1       4.958   3.592  16.553  0.00  0.00    +0.000 A 
ATOM     12  C   UNL     1       4.395   4.758  17.106  0.00  0.00    +0.000 A 
ATOM     13  N   UNL     1       3.448   4.944  18.104  0.00  0.00    +0.000 N 
ATOM     14  C   UNL     1       2.772   3.862  18.796  0.00  0.00    +0.000 C 
ENDBRANCH   2   4
BRANCH   3  15
ATOM     15  N   UNL     1       1.140   8.768  20.028  0.00  0.00    +0.000 N 
ATOM     16  C   UNL     1       0.641  10.029  19.741  0.00  0.00    +0.000 C 
ATOM     17  O   UNL     1       0.875  10.642  18.704  0.00  0.00    +0.000 OA
ATOM     18  H   UNL     1       0.905   8.354  20.925  0.00  0.00    +0.000 HD
BRANCH  16  19
ATOM     19  C   UNL     1      -0.232  10.657  20.786  0.00  0.00    +0.000 A 
ATOM     20  C   UNL     1      -1.248  11.515  20.333  0.00  0.00    +0.000 A 
ATOM     21  C   UNL     1      -2.102  12.146  21.239  0.00  0.00    +0.000 A 
ATOM     22 BR   UNL     1      -3.460  13.297  20.604  0.00  0.00    +0.000 Br
ATOM     23  C   UNL     1      -1.960  11.935  22.608  0.00  0.00    +0.000 A 
ATOM     24  C   UNL     1      -0.958  11.085  23.075  0.00  0.00    +0.000 A 
ATOM     25  C   UNL     1      -0.096  10.454  22.172  0.00  0.00    +0.000 A 
BRANCH  25  26
ATOM     26  O   UNL     1       0.889   9.637  22.670  0.00  0.00    +0.000 OA
ATOM     27  H   UNL     1       1.573  10.193  23.087  0.00  0.00    +0.000 HD
ENDBRANCH  25  26
ENDBRANCH  16  19
ENDBRANCH   3  15
TORSDOF 4
ENDMDL
MODEL 5
REMARK VINA RESULT:      -7.3      5.055      9.439
REMARK  Name = 
REMARK  6 active torsions:
REMARK  status: ('A' for Active; 'I' for Inactive)
REMARK    1  A    between atoms: C_1  and  C_2
REMARK    2  A    between atoms: C_2  and  C_15
REMARK    3  A    between atoms: N_3  and  N_4
REMARK    4  A    between atoms: C_5  and  C_7
REMARK    5  A    between atoms: C_13  and  O_14
REMARK    6  A    between atoms: N_24  and  C_25
REMARK                            x       y       z     vdW  Elec       q    Type
REMARK                         _______ _______ _______ _____ _____    ______ ____
ROOT
ATOM      1  C   UNL     1       0.902   9.509  17.940  0.00  0.00    +0.000 C 
ATOM      2  C   UNL     1       1.182   9.309  19.419  0.00  0.00    +0.000 C 
ATOM      3  N   UNL     1       1.914   8.358  19.918  0.00  0.00    +0.000 NA
ENDROOT
BRANCH   2   4
ATOM      4  C   UNL     1       0.548  10.262  20.337  0.00  0.00    +0.000 A 
ATOM      5  C   UNL     1       0.660  11.646  20.306  0.00  0.00    +0.000 A 
ATOM      6  C   UNL     1      -0.130  12.207  21.338  0.00  0.00    +0.000 A 
ATOM      7  C   UNL     1      -0.391  13.532  21.738  0.00  0.00    +0.000 A 
ATOM      8  C   UNL     1      -1.243  13.757  22.822  0.00  0.00    +0.000 A 
ATOM      9 CL   UNL     1      -1.576  15.374  23.311  0.00  0.00    +0.000 Cl
ATOM     10  C   UNL     1      -1.825  12.696  23.505  0.00  0.00    +0.000 A 
ATOM     11  C   UNL     1      -1.573  11.373  23.120  0.00  0.00    +0.000 A 
ATOM     12  C   UNL     1      -0.717  11.147  22.025  0.00  0.00    +0.000 A 
ATOM     13  N   UNL     1      -0.280   9.977  21.420  0.00  0.00    +0.000 N 
ATOM     14  C   UNL     1      -0.629   8.644  21.879  0.00  0.00    +0.000 C 
ENDBRANCH   2   4
BRANCH   3  15
ATOM     15  N   UNL     1       2.535   7.450  19.119  0.00  0.00    +0.000 N 
ATOM     16  C   UNL     1       2.455   6.099  19.415  0.00  0.00    +0.000 C 
ATOM     17  O   UNL     1       1.832   5.638  20.367  0.00  0.00    +0.000 OA
ATOM     18  H   UNL     1       3.095   7.732  18.320  0.00  0.00    +0.000 HD
BRANCH  16  19
ATOM     19  C   UNL     1       3.192   5.168  18.498  0.00  0.00    +0.000 A 
ATOM     20  C   UNL     1       4.585   5.328  18.415  0.00  0.00    +0.000 A 
ATOM     21  C   UNL     1       5.346   4.508  17.581  0.00  0.00    +0.000 A 
ATOM     22 BR   UNL     1       7.219   4.745  17.486  0.00  0.00    +0.000 Br
ATOM     23  C   UNL     1       4.737   3.516  16.818  0.00  0.00    +0.000 A 
ATOM     24  C   UNL     1       3.355   3.342  16.889  0.00  0.00    +0.000 A 
ATOM     25  C   UNL     1       2.586   4.165  17.720  0.00  0.00    +0.000 A 
BRANCH  25  26
ATOM     26  O   UNL     1       1.226   3.974  17.752  0.00  0.00    +0.000 OA
ATOM     27  H   UNL     1       0.879   4.059  16.844  0.00  0.00    +0.000 HD
ENDBRANCH  25  26
ENDBRANCH  16  19
ENDBRANCH   3  15
TORSDOF 4
ENDMDL
MODEL 6
REMARK VINA RESULT:      -7.2      5.005      9.393
REMARK  Name = 
REMARK  6 active torsions:
REMARK  status: ('A' for Active; 'I' for Inactive)
REMARK    1  A    between atoms: C_1  and  C_2
REMARK    2  A    between atoms: C_2  and  C_15
REMARK    3  A    between atoms: N_3  and  N_4
REMARK    4  A    between atoms: C_5  and  C_7
REMARK    5  A    between atoms: C_13  and  O_14
REMARK    6  A    between atoms: N_24  and  C_25
REMARK                            x       y       z     vdW  Elec       q    Type
REMARK                         _______ _______ _______ _____ _____    ______ ____
ROOT
ATOM      1  C   UNL     1       1.432   9.151  18.018  0.00  0.00    +0.000 C 
ATOM      2  C   UNL     1       1.421   8.944  19.523  0.00  0.00    +0.000 C 
ATOM      3  N   UNL     1       1.837   7.874  20.131  0.00  0.00    +0.000 NA
ENDROOT
BRANCH   2   4
ATOM      4  C   UNL     1       0.873  10.042  20.327  0.00  0.00    +0.000 A 
ATOM      5  C   UNL     1       1.148  11.395  20.185  0.00  0.00    +0.000 A 
ATOM      6  C   UNL     1       0.396  12.133  21.130  0.00  0.00    +0.000 A 
ATOM      7  C   UNL     1       0.279  13.509  21.405  0.00  0.00    +0.000 A 
ATOM      8  C   UNL     1      -0.577  13.925  22.427  0.00  0.00    +0.000 A 
ATOM      9 CL   UNL     1      -0.733  15.608  22.762  0.00  0.00    +0.000 Cl
ATOM     10  C   UNL     1      -1.304  13.003  23.170  0.00  0.00    +0.000 A 
ATOM     11  C   UNL     1      -1.197  11.632  22.909  0.00  0.00    +0.000 A 
ATOM     12  C   UNL     1      -0.337  11.213  21.877  0.00  0.00    +0.000 A 
ATOM     13  N   UNL     1      -0.020   9.950  21.393  0.00  0.00    +0.000 N 
ATOM     14  C   UNL     1      -0.540   8.713  21.946  0.00  0.00    +0.000 C 
ENDBRANCH   2   4
BRANCH   3  15
ATOM     15  N   UNL     1       2.364   6.827  19.442  0.00  0.00    +0.000 N 
ATOM     16  C   UNL     1       2.087   5.529  19.838  0.00  0.00    +0.000 C 
ATOM     17  O   UNL     1       1.365   5.237  20.786  0.00  0.00    +0.000 OA
ATOM     18  H   UNL     1       2.993   6.964  18.656  0.00  0.00    +0.000 HD
BRANCH  16  19
ATOM     19  C   UNL     1       2.731   4.434  19.039  0.00  0.00    +0.000 A 
ATOM     20  C   UNL     1       3.595   4.827  18.003  0.00  0.00    +0.000 A 
ATOM     21  C   UNL     1       4.230   3.873  17.207  0.00  0.00    +0.000 A 
ATOM     22 BR   UNL     1       5.387   4.428  15.819  0.00  0.00    +0.000 Br
ATOM     23  C   UNL     1       4.018   2.515  17.427  0.00  0.00    +0.000 A 
ATOM     24  C   UNL     1       3.165   2.107  18.452  0.00  0.00    +0.000 A 
ATOM     25  C   UNL     1       2.520   3.059  19.250  0.00  0.00    +0.000 A 
BRANCH  25  26
ATOM     26  O   UNL     1       1.675   2.619  20.239  0.00  0.00    +0.000 OA
ATOM     27  H   UNL     1       0.757   2.809  19.970  0.00  0.00    +0.000 HD
ENDBRANCH  25  26
ENDBRANCH  16  19
ENDBRANCH   3  15
TORSDOF 4
ENDMDL
MODEL 7
REMARK VINA RESULT:      -7.2      5.088      9.478
REMARK  Name = 
REMARK  6 active torsions:
REMARK  status: ('A' for Active; 'I' for Inactive)
REMARK    1  A    between atoms: C_1  and  C_2
REMARK    2  A    between atoms: C_2  and  C_15
REMARK    3  A    between atoms: N_3  and  N_4
REMARK    4  A    between atoms: C_5  and  C_7
REMARK    5  A    between atoms: C_13  and  O_14
REMARK    6  A    between atoms: N_24  and  C_25
REMARK                            x       y       z     vdW  Elec       q    Type
REMARK                         _______ _______ _______ _____ _____    ______ ____
ROOT
ATOM      1  C   UNL     1       1.722  10.008  18.062  0.00  0.00    +0.000 C 
ATOM      2  C   UNL     1       1.216   9.369  19.344  0.00  0.00    +0.000 C 
ATOM      3  N   UNL     1       1.536   8.180  19.761  0.00  0.00    +0.000 NA
ENDROOT
BRANCH   2   4
ATOM      4  C   UNL     1       0.279  10.166  20.143  0.00  0.00    +0.000 A 
ATOM      5  C   UNL     1      -0.627  11.106  19.671  0.00  0.00    +0.000 A 
ATOM      6  C   UNL     1      -1.372  11.630  20.754  0.00  0.00    +0.000 A 
ATOM      7  C   UNL     1      -2.412  12.576  20.839  0.00  0.00    +0.000 A 
ATOM      8  C   UNL     1      -2.954  12.878  22.090  0.00  0.00    +0.000 A 
ATOM      9 CL   UNL     1      -4.233  14.025  22.201  0.00  0.00    +0.000 Cl
ATOM     10  C   UNL     1      -2.478  12.262  23.242  0.00  0.00    +0.000 A 
ATOM     11  C   UNL     1      -1.443  11.321  23.173  0.00  0.00    +0.000 A 
ATOM     12  C   UNL     1      -0.900  11.015  21.911  0.00  0.00    +0.000 A 
ATOM     13  N   UNL     1       0.114  10.147  21.526  0.00  0.00    +0.000 N 
ATOM     14  C   UNL     1       0.900   9.353  22.453  0.00  0.00    +0.000 C 
ENDBRANCH   2   4
BRANCH   3  15
ATOM     15  N   UNL     1       2.406   7.398  19.070  0.00  0.00    +0.000 N 
ATOM     16  C   UNL     1       2.424   6.029  19.282  0.00  0.00    +0.000 C 
ATOM     17  O   UNL     1       1.679   5.443  20.061  0.00  0.00    +0.000 OA
ATOM     18  H   UNL     1       3.080   7.790  18.419  0.00  0.00    +0.000 HD
BRANCH  16  19
ATOM     19  C   UNL     1       3.434   5.243  18.498  0.00  0.00    +0.000 A 
ATOM     20  C   UNL     1       4.785   5.575  18.691  0.00  0.00    +0.000 A 
ATOM     21  C   UNL     1       5.788   4.898  17.996  0.00  0.00    +0.000 A 
ATOM     22 BR   UNL     1       7.600   5.364  18.272  0.00  0.00    +0.000 Br
ATOM     23  C   UNL     1       5.466   3.881  17.101  0.00  0.00    +0.000 A 
ATOM     24  C   UNL     1       4.130   3.538  16.900  0.00  0.00    +0.000 A 
ATOM     25  C   UNL     1       3.119   4.217  17.589  0.00  0.00    +0.000 A 
BRANCH  25  26
ATOM     26  O   UNL     1       1.814   3.862  17.352  0.00  0.00    +0.000 OA
ATOM     27  H   UNL     1       1.270   4.155  18.106  0.00  0.00    +0.000 HD
ENDBRANCH  25  26
ENDBRANCH  16  19
ENDBRANCH   3  15
TORSDOF 4
ENDMDL
MODEL 8
REMARK VINA RESULT:      -7.2      1.122      1.827
REMARK  Name = 
REMARK  6 active torsions:
REMARK  status: ('A' for Active; 'I' for Inactive)
REMARK    1  A    between atoms: C_1  and  C_2
REMARK    2  A    between atoms: C_2  and  C_15
REMARK    3  A    between atoms: N_3  and  N_4
REMARK    4  A    between atoms: C_5  and  C_7
REMARK    5  A    between atoms: C_13  and  O_14
REMARK    6  A    between atoms: N_24  and  C_25
REMARK                            x       y       z     vdW  Elec       q    Type
REMARK                         _______ _______ _______ _____ _____    ______ ____
ROOT
ATOM      1  C   UNL     1      -0.569  10.033  19.093  0.00  0.00    +0.000 C 
ATOM      2  C   UNL     1       0.503   9.670  20.106  0.00  0.00    +0.000 C 
ATOM      3  N   UNL     1       0.734  10.313  21.211  0.00  0.00    +0.000 NA
ENDROOT
BRANCH   2   4
ATOM      4  C   UNL     1       1.346   8.515  19.777  0.00  0.00    +0.000 A 
ATOM      5  C   UNL     1       1.510   7.363  20.535  0.00  0.00    +0.000 A 
ATOM      6  C   UNL     1       2.376   6.471  19.858  0.00  0.00    +0.000 A 
ATOM      7  C   UNL     1       2.857   5.182  20.158  0.00  0.00    +0.000 A 
ATOM      8  C   UNL     1       3.717   4.553  19.257  0.00  0.00    +0.000 A 
ATOM      9 CL   UNL     1       4.301   2.971  19.611  0.00  0.00    +0.000 Cl
ATOM     10  C   UNL     1       4.104   5.183  18.079  0.00  0.00    +0.000 A 
ATOM     11  C   UNL     1       3.636   6.465  17.769  0.00  0.00    +0.000 A 
ATOM     12  C   UNL     1       2.766   7.098  18.676  0.00  0.00    +0.000 A 
ATOM     13  N   UNL     1       2.150   8.342  18.653  0.00  0.00    +0.000 N 
ATOM     14  C   UNL     1       2.345   9.326  17.604  0.00  0.00    +0.000 C 
ENDBRANCH   2   4
BRANCH   3  15
ATOM     15  N   UNL     1      -0.019  11.385  21.576  0.00  0.00    +0.000 N 
ATOM     16  C   UNL     1      -0.798  11.326  22.720  0.00  0.00    +0.000 C 
ATOM     17  O   UNL     1      -0.853  10.354  23.466  0.00  0.00    +0.000 OA
ATOM     18  H   UNL     1      -0.059  12.229  21.013  0.00  0.00    +0.000 HD
BRANCH  16  19
ATOM     19  C   UNL     1      -1.618  12.543  23.035  0.00  0.00    +0.000 A 
ATOM     20  C   UNL     1      -2.982  12.338  23.301  0.00  0.00    +0.000 A 
ATOM     21  C   UNL     1      -3.818  13.415  23.597  0.00  0.00    +0.000 A 
ATOM     22 BR   UNL     1      -5.650  13.114  23.949  0.00  0.00    +0.000 Br
ATOM     23  C   UNL     1      -3.312  14.712  23.634  0.00  0.00    +0.000 A 
ATOM     24  C   UNL     1      -1.960  14.934  23.375  0.00  0.00    +0.000 A 
ATOM     25  C   UNL     1      -1.118  13.858  23.072  0.00  0.00    +0.000 A 
BRANCH  25  26
ATOM     26  O   UNL     1       0.204  14.116  22.806  0.00  0.00    +0.000 OA
ATOM     27  H   UNL     1       0.259  14.643  21.987  0.00  0.00    +0.000 HD
ENDBRANCH  25  26
ENDBRANCH  16  19
ENDBRANCH   3  15
TORSDOF 4
ENDMDL
MODEL 9
REMARK VINA RESULT:      -7.1      2.633      3.466
REMARK  Name = 
REMARK  6 active torsions:
REMARK  status: ('A' for Active; 'I' for Inactive)
REMARK    1  A    between atoms: C_1  and  C_2
REMARK    2  A    between atoms: C_2  and  C_15
REMARK    3  A    between atoms: N_3  and  N_4
REMARK    4  A    between atoms: C_5  and  C_7
REMARK    5  A    between atoms: C_13  and  O_14
REMARK    6  A    between atoms: N_24  and  C_25
REMARK                            x       y       z     vdW  Elec       q    Type
REMARK                         _______ _______ _______ _____ _____    ______ ____
ROOT
ATOM      1  C   UNL     1       1.640   7.847  20.684  0.00  0.00    +0.000 C 
ATOM      2  C   UNL     1       1.795   8.164  19.207  0.00  0.00    +0.000 C 
ATOM      3  N   UNL     1       1.185   9.126  18.582  0.00  0.00    +0.000 NA
ENDROOT
BRANCH   2   4
ATOM      4  C   UNL     1       2.691   7.288  18.444  0.00  0.00    +0.000 A 
ATOM      5  C   UNL     1       3.647   7.681  17.516  0.00  0.00    +0.000 A 
ATOM      6  C   UNL     1       4.327   6.541  17.026  0.00  0.00    +0.000 A 
ATOM      7  C   UNL     1       5.378   6.369  16.104  0.00  0.00    +0.000 A 
ATOM      8  C   UNL     1       5.838   5.079  15.834  0.00  0.00    +0.000 A 
ATOM      9 CL   UNL     1       7.130   4.861  14.716  0.00  0.00    +0.000 Cl
ATOM     10  C   UNL     1       5.272   3.973  16.458  0.00  0.00    +0.000 A 
ATOM     11  C   UNL     1       4.226   4.128  17.375  0.00  0.00    +0.000 A 
ATOM     12  C   UNL     1       3.764   5.429  17.649  0.00  0.00    +0.000 A 
ATOM     13  N   UNL     1       2.761   5.897  18.488  0.00  0.00    +0.000 N 
ATOM     14  C   UNL     1       1.898   5.041  19.280  0.00  0.00    +0.000 C 
ENDBRANCH   2   4
BRANCH   3  15
ATOM     15  N   UNL     1       0.350   9.977  19.237  0.00  0.00    +0.000 N 
ATOM     16  C   UNL     1      -0.831  10.384  18.638  0.00  0.00    +0.000 C 
ATOM     17  O   UNL     1      -1.205  10.011  17.530  0.00  0.00    +0.000 OA
ATOM     18  H   UNL     1       0.581  10.360  20.148  0.00  0.00    +0.000 HD
BRANCH  16  19
ATOM     19  C   UNL     1      -1.681  11.344  19.417  0.00  0.00    +0.000 A 
ATOM     20  C   UNL     1      -1.161  11.805  20.638  0.00  0.00    +0.000 A 
ATOM     21  C   UNL     1      -1.888  12.696  21.428  0.00  0.00    +0.000 A 
ATOM     22 BR   UNL     1      -1.168  13.301  23.068  0.00  0.00    +0.000 Br
ATOM     23  C   UNL     1      -3.142  13.142  21.019  0.00  0.00    +0.000 A 
ATOM     24  C   UNL     1      -3.672  12.696  19.810  0.00  0.00    +0.000 A 
ATOM     25  C   UNL     1      -2.950  11.798  19.015  0.00  0.00    +0.000 A 
BRANCH  25  26
ATOM     26  O   UNL     1      -3.512  11.368  17.838  0.00  0.00    +0.000 OA
ATOM     27  H   UNL     1      -4.301  11.911  17.654  0.00  0.00    +0.000 HD
ENDBRANCH  25  26
ENDBRANCH  16  19
ENDBRANCH   3  15
TORSDOF 4
ENDMDL
