MODEL 1
REMARK VINA RESULT:      -7.9      0.000      0.000
REMARK  Name = 
REMARK  10 active torsions:
REMARK  status: ('A' for Active; 'I' for Inactive)
REMARK    1  A    between atoms: C_1  and  O_2
REMARK    2  A    between atoms: O_2  and  C_3
REMARK    3  A    between atoms: C_6  and  C_7
REMARK    4  A    between atoms: C_7  and  N_8
REMARK    5  A    between atoms: C_9  and  C_11
REMARK    6  A    between atoms: C_11  and  O_12
REMARK    7  A    between atoms: O_12  and  C_13
REMARK    8  A    between atoms: C_13  and  C_15
REMARK    9  A    between atoms: C_19  and  S_20
REMARK   10  A    between atoms: S_20  and  N_23
REMARK                            x       y       z     vdW  Elec       q    Type
REMARK                         _______ _______ _______ _____ _____    ______ ____
ROOT
ATOM      1  C   UNL     1       7.860   6.935  18.107  0.00  0.00    +0.000 C 
ATOM      2  O   UNL     1       8.420   6.723  19.167  0.00  0.00    +0.000 OA
ENDROOT
BRANCH   1   3
ATOM      3  C   UNL     1       6.912   5.990  17.455  0.00  0.00    +0.000 A 
ATOM      4  C   UNL     1       6.649   6.117  16.085  0.00  0.00    +0.000 A 
ATOM      5  C   UNL     1       5.688   5.300  15.478  0.00  0.00    +0.000 A 
ATOM      6  C   UNL     1       4.976   4.370  16.241  0.00  0.00    +0.000 A 
ATOM      7  C   UNL     1       5.240   4.244  17.609  0.00  0.00    +0.000 A 
ATOM      8  C   UNL     1       6.218   5.033  18.210  0.00  0.00    +0.000 A 
BRANCH   7   9
ATOM      9  S   UNL     1       4.182   3.188  18.589  0.00  0.00    +0.000 S 
ATOM     10  O   UNL     1       3.721   2.154  17.693  0.00  0.00    +0.000 OA
ATOM     11  O   UNL     1       4.901   2.882  19.801  0.00  0.00    +0.000 OA
BRANCH   9  12
ATOM     12  N   UNL     1       2.856   4.178  19.002  0.00  0.00    +0.000 NA
ATOM     13  C   UNL     1       2.770   4.692  20.401  0.00  0.00    +0.000 C 
ATOM     14  C   UNL     1       2.082   3.676  21.320  0.00  0.00    +0.000 C 
ATOM     15  O   UNL     1       0.772   3.347  20.840  0.00  0.00    +0.000 OA
ATOM     16  C   UNL     1       0.836   2.774  19.529  0.00  0.00    +0.000 C 
ATOM     17  C   UNL     1       1.512   3.715  18.540  0.00  0.00    +0.000 C 
ENDBRANCH   9  12
ENDBRANCH   7   9
ENDBRANCH   1   3
BRANCH   1  18
ATOM     18  O   UNL     1       8.021   8.013  17.302  0.00  0.00    +0.000 OA
BRANCH  18  19
ATOM     19  C   UNL     1       7.668   9.286  17.839  0.00  0.00    +0.000 C 
BRANCH  19  21
ATOM     20  N   UNL     1       9.618  10.773  17.532  0.00  0.00    +0.000 N 
ATOM     21  C   UNL     1       8.895   9.994  18.415  0.00  0.00    +0.000 C 
ATOM     22  O   UNL     1       9.186   9.908  19.608  0.00  0.00    +0.000 OA
ATOM     23  H   UNL     1       9.192  11.005  16.644  0.00  0.00    +0.000 HD
BRANCH  20  24
ATOM     24  C   UNL     1      10.741  11.562  17.995  0.00  0.00    +0.000 C 
BRANCH  24  28
ATOM     25  C   UNL     1      10.305  15.842  17.449  0.00  0.00    +0.000 A 
ATOM     26  C   UNL     1       9.409  15.127  18.242  0.00  0.00    +0.000 A 
ATOM     27  C   UNL     1       9.558  13.746  18.415  0.00  0.00    +0.000 A 
ATOM     28  C   UNL     1      10.586  13.047  17.766  0.00  0.00    +0.000 A 
ATOM     29  C   UNL     1      11.499  13.778  16.994  0.00  0.00    +0.000 A 
ATOM     30  C   UNL     1      11.368  15.166  16.849  0.00  0.00    +0.000 A 
BRANCH  25  32
ATOM     31  C   UNL     1      10.704  18.080  18.131  0.00  0.00    +0.000 C 
ATOM     32  O   UNL     1      10.007  17.168  17.291  0.00  0.00    +0.000 OA
ENDBRANCH  25  32
ENDBRANCH  24  28
ENDBRANCH  20  24
ENDBRANCH  19  21
ENDBRANCH  18  19
ENDBRANCH   1  18
TORSDOF 9
ENDMDL
MODEL 2
REMARK VINA RESULT:      -7.9      6.151      9.382
REMARK  Name = 
REMARK  10 active torsions:
REMARK  status: ('A' for Active; 'I' for Inactive)
REMARK    1  A    between atoms: C_1  and  O_2
REMARK    2  A    between atoms: O_2  and  C_3
REMARK    3  A    between atoms: C_6  and  C_7
REMARK    4  A    between atoms: C_7  and  N_8
REMARK    5  A    between atoms: C_9  and  C_11
REMARK    6  A    between atoms: C_11  and  O_12
REMARK    7  A    between atoms: O_12  and  C_13
REMARK    8  A    between atoms: C_13  and  C_15
REMARK    9  A    between atoms: C_19  and  S_20
REMARK   10  A    between atoms: S_20  and  N_23
REMARK                            x       y       z     vdW  Elec       q    Type
REMARK                         _______ _______ _______ _____ _____    ______ ____
ROOT
ATOM      1  C   UNL     1       1.767   8.018  19.976  0.00  0.00    +0.000 C 
ATOM      2  O   UNL     1       1.259   8.582  20.927  0.00  0.00    +0.000 OA
ENDROOT
BRANCH   1   3
ATOM      3  C   UNL     1       2.092   6.566  19.937  0.00  0.00    +0.000 A 
ATOM      4  C   UNL     1       1.511   5.707  20.879  0.00  0.00    +0.000 A 
ATOM      5  C   UNL     1       1.880   4.357  20.917  0.00  0.00    +0.000 A 
ATOM      6  C   UNL     1       2.843   3.869  20.030  0.00  0.00    +0.000 A 
ATOM      7  C   UNL     1       3.423   4.727  19.090  0.00  0.00    +0.000 A 
ATOM      8  C   UNL     1       3.034   6.064  19.028  0.00  0.00    +0.000 A 
BRANCH   7   9
ATOM      9  S   UNL     1       4.786   4.121  18.104  0.00  0.00    +0.000 S 
ATOM     10  O   UNL     1       5.939   4.146  18.972  0.00  0.00    +0.000 OA
ATOM     11  O   UNL     1       4.336   2.908  17.468  0.00  0.00    +0.000 OA
BRANCH   9  12
ATOM     12  N   UNL     1       4.993   5.304  16.892  0.00  0.00    +0.000 NA
ATOM     13  C   UNL     1       5.358   4.846  15.519  0.00  0.00    +0.000 C 
ATOM     14  C   UNL     1       6.876   4.679  15.379  0.00  0.00    +0.000 C 
ATOM     15  O   UNL     1       7.563   5.899  15.686  0.00  0.00    +0.000 OA
ATOM     16  C   UNL     1       7.293   6.314  17.030  0.00  0.00    +0.000 C 
ATOM     17  C   UNL     1       5.800   6.504  17.267  0.00  0.00    +0.000 C 
ENDBRANCH   9  12
ENDBRANCH   7   9
ENDBRANCH   1   3
BRANCH   1  18
ATOM     18  O   UNL     1       2.180   8.586  18.816  0.00  0.00    +0.000 OA
BRANCH  18  19
ATOM     19  C   UNL     1       1.215   9.332  18.076  0.00  0.00    +0.000 C 
BRANCH  19  21
ATOM     20  N   UNL     1      -0.076  10.993  19.373  0.00  0.00    +0.000 N 
ATOM     21  C   UNL     1       1.070  10.746  18.640  0.00  0.00    +0.000 C 
ATOM     22  O   UNL     1       1.949  11.594  18.486  0.00  0.00    +0.000 OA
ATOM     23  H   UNL     1      -0.628  10.201  19.674  0.00  0.00    +0.000 HD
BRANCH  20  24
ATOM     24  C   UNL     1      -0.267  12.270  20.031  0.00  0.00    +0.000 C 
BRANCH  24  28
ATOM     25  C   UNL     1      -3.765  12.534  22.581  0.00  0.00    +0.000 A 
ATOM     26  C   UNL     1      -2.544  12.087  23.084  0.00  0.00    +0.000 A 
ATOM     27  C   UNL     1      -1.420  12.007  22.255  0.00  0.00    +0.000 A 
ATOM     28  C   UNL     1      -1.504  12.337  20.894  0.00  0.00    +0.000 A 
ATOM     29  C   UNL     1      -2.727  12.812  20.404  0.00  0.00    +0.000 A 
ATOM     30  C   UNL     1      -3.845  12.923  21.244  0.00  0.00    +0.000 A 
BRANCH  25  32
ATOM     31  C   UNL     1      -4.464  12.420  24.846  0.00  0.00    +0.000 C 
ATOM     32  O   UNL     1      -4.807  12.489  23.467  0.00  0.00    +0.000 OA
ENDBRANCH  25  32
ENDBRANCH  24  28
ENDBRANCH  20  24
ENDBRANCH  19  21
ENDBRANCH  18  19
ENDBRANCH   1  18
TORSDOF 9
ENDMDL
MODEL 3
REMARK VINA RESULT:      -7.9      6.530      9.925
REMARK  Name = 
REMARK  10 active torsions:
REMARK  status: ('A' for Active; 'I' for Inactive)
REMARK    1  A    between atoms: C_1  and  O_2
REMARK    2  A    between atoms: O_2  and  C_3
REMARK    3  A    between atoms: C_6  and  C_7
REMARK    4  A    between atoms: C_7  and  N_8
REMARK    5  A    between atoms: C_9  and  C_11
REMARK    6  A    between atoms: C_11  and  O_12
REMARK    7  A    between atoms: O_12  and  C_13
REMARK    8  A    between atoms: C_13  and  C_15
REMARK    9  A    between atoms: C_19  and  S_20
REMARK   10  A    between atoms: S_20  and  N_23
REMARK                            x       y       z     vdW  Elec       q    Type
REMARK                         _______ _______ _______ _____ _____    ______ ____
ROOT
ATOM      1  C   UNL     1       1.667   7.943  20.102  0.00  0.00    +0.000 C 
ATOM      2  O   UNL     1       2.336   7.941  19.086  0.00  0.00    +0.000 OA
ENDROOT
BRANCH   1   3
ATOM      3  C   UNL     1       0.832   9.089  20.555  0.00  0.00    +0.000 A 
ATOM      4  C   UNL     1       0.675   9.325  21.927  0.00  0.00    +0.000 A 
ATOM      5  C   UNL     1      -0.184  10.338  22.369  0.00  0.00    +0.000 A 
ATOM      6  C   UNL     1      -0.902  11.102  21.445  0.00  0.00    +0.000 A 
ATOM      7  C   UNL     1      -0.745  10.865  20.075  0.00  0.00    +0.000 A 
ATOM      8  C   UNL     1       0.134   9.880  19.630  0.00  0.00    +0.000 A 
BRANCH   7   9
ATOM      9  S   UNL     1      -1.817  11.723  18.931  0.00  0.00    +0.000 S 
ATOM     10  O   UNL     1      -2.759  12.452  19.747  0.00  0.00    +0.000 OA
ATOM     11  O   UNL     1      -0.966  12.386  17.974  0.00  0.00    +0.000 OA
BRANCH   9  12
ATOM     12  N   UNL     1      -2.654  10.479  18.116  0.00  0.00    +0.000 NA
ATOM     13  C   UNL     1      -2.153  10.056  16.776  0.00  0.00    +0.000 C 
ATOM     14  C   UNL     1      -2.732  10.941  15.666  0.00  0.00    +0.000 C 
ATOM     15  O   UNL     1      -4.165  10.920  15.681  0.00  0.00    +0.000 OA
ATOM     16  C   UNL     1      -4.672  11.402  16.931  0.00  0.00    +0.000 C 
ATOM     17  C   UNL     1      -4.144  10.582  18.101  0.00  0.00    +0.000 C 
ENDBRANCH   9  12
ENDBRANCH   7   9
ENDBRANCH   1   3
BRANCH   1  18
ATOM     18  O   UNL     1       1.590   6.957  21.029  0.00  0.00    +0.000 OA
BRANCH  18  19
ATOM     19  C   UNL     1       1.150   5.676  20.584  0.00  0.00    +0.000 C 
BRANCH  19  21
ATOM     20  N   UNL     1       3.138   4.732  19.457  0.00  0.00    +0.000 N 
ATOM     21  C   UNL     1       2.309   4.678  20.563  0.00  0.00    +0.000 C 
ATOM     22  O   UNL     1       2.513   3.909  21.502  0.00  0.00    +0.000 OA
ATOM     23  H   UNL     1       3.071   5.540  18.852  0.00  0.00    +0.000 HD
BRANCH  20  24
ATOM     24  C   UNL     1       4.319   3.897  19.382  0.00  0.00    +0.000 C 
BRANCH  24  28
ATOM     25  C   UNL     1       6.908   4.974  16.073  0.00  0.00    +0.000 A 
ATOM     26  C   UNL     1       5.671   4.372  15.848  0.00  0.00    +0.000 A 
ATOM     27  C   UNL     1       4.840   4.030  16.921  0.00  0.00    +0.000 A 
ATOM     28  C   UNL     1       5.249   4.249  18.245  0.00  0.00    +0.000 A 
ATOM     29  C   UNL     1       6.481   4.879  18.461  0.00  0.00    +0.000 A 
ATOM     30  C   UNL     1       7.297   5.252  17.384  0.00  0.00    +0.000 A 
BRANCH  25  32
ATOM     31  C   UNL     1       7.050   4.864  13.707  0.00  0.00    +0.000 C 
ATOM     32  O   UNL     1       7.661   5.185  14.951  0.00  0.00    +0.000 OA
ENDBRANCH  25  32
ENDBRANCH  24  28
ENDBRANCH  20  24
ENDBRANCH  19  21
ENDBRANCH  18  19
ENDBRANCH   1  18
TORSDOF 9
ENDMDL
MODEL 4
REMARK VINA RESULT:      -7.6      6.898     10.319
REMARK  Name = 
REMARK  10 active torsions:
REMARK  status: ('A' for Active; 'I' for Inactive)
REMARK    1  A    between atoms: C_1  and  O_2
REMARK    2  A    between atoms: O_2  and  C_3
REMARK    3  A    between atoms: C_6  and  C_7
REMARK    4  A    between atoms: C_7  and  N_8
REMARK    5  A    between atoms: C_9  and  C_11
REMARK    6  A    between atoms: C_11  and  O_12
REMARK    7  A    between atoms: O_12  and  C_13
REMARK    8  A    between atoms: C_13  and  C_15
REMARK    9  A    between atoms: C_19  and  S_20
REMARK   10  A    between atoms: S_20  and  N_23
REMARK                            x       y       z     vdW  Elec       q    Type
REMARK                         _______ _______ _______ _____ _____    ______ ____
ROOT
ATOM      1  C   UNL     1       1.758   8.097  20.021  0.00  0.00    +0.000 C 
ATOM      2  O   UNL     1       1.663   8.805  19.035  0.00  0.00    +0.000 OA
ENDROOT
BRANCH   1   3
ATOM      3  C   UNL     1       2.097   6.648  19.983  0.00  0.00    +0.000 A 
ATOM      4  C   UNL     1       1.536   5.787  20.935  0.00  0.00    +0.000 A 
ATOM      5  C   UNL     1       1.919   4.441  20.974  0.00  0.00    +0.000 A 
ATOM      6  C   UNL     1       2.876   3.959  20.077  0.00  0.00    +0.000 A 
ATOM      7  C   UNL     1       3.436   4.819  19.127  0.00  0.00    +0.000 A 
ATOM      8  C   UNL     1       3.033   6.152  19.064  0.00  0.00    +0.000 A 
BRANCH   7   9
ATOM      9  S   UNL     1       4.791   4.223  18.127  0.00  0.00    +0.000 S 
ATOM     10  O   UNL     1       5.944   4.208  18.996  0.00  0.00    +0.000 OA
ATOM     11  O   UNL     1       4.327   3.033  17.456  0.00  0.00    +0.000 OA
BRANCH   9  12
ATOM     12  N   UNL     1       5.017   5.435  16.948  0.00  0.00    +0.000 NA
ATOM     13  C   UNL     1       5.370   5.011  15.561  0.00  0.00    +0.000 C 
ATOM     14  C   UNL     1       6.884   4.820  15.411  0.00  0.00    +0.000 C 
ATOM     15  O   UNL     1       7.593   6.019  15.751  0.00  0.00    +0.000 OA
ATOM     16  C   UNL     1       7.335   6.401  17.107  0.00  0.00    +0.000 C 
ATOM     17  C   UNL     1       5.846   6.610  17.354  0.00  0.00    +0.000 C 
ENDBRANCH   9  12
ENDBRANCH   7   9
ENDBRANCH   1   3
BRANCH   1  18
ATOM     18  O   UNL     1       1.528   8.456  21.307  0.00  0.00    +0.000 OA
BRANCH  18  19
ATOM     19  C   UNL     1       0.177   8.718  21.679  0.00  0.00    +0.000 C 
BRANCH  19  21
ATOM     20  N   UNL     1      -1.148  10.530  22.715  0.00  0.00    +0.000 N 
ATOM     21  C   UNL     1      -0.030  10.206  21.969  0.00  0.00    +0.000 C 
ATOM     22  O   UNL     1       0.782  11.053  21.598  0.00  0.00    +0.000 OA
ATOM     23  H   UNL     1      -1.630   9.784  23.199  0.00  0.00    +0.000 HD
BRANCH  20  24
ATOM     24  C   UNL     1      -1.386  11.899  23.126  0.00  0.00    +0.000 C 
BRANCH  24  28
ATOM     25  C   UNL     1      -5.471  13.288  22.693  0.00  0.00    +0.000 A 
ATOM     26  C   UNL     1      -4.979  12.887  23.934  0.00  0.00    +0.000 A 
ATOM     27  C   UNL     1      -3.660  12.442  24.066  0.00  0.00    +0.000 A 
ATOM     28  C   UNL     1      -2.815  12.354  22.949  0.00  0.00    +0.000 A 
ATOM     29  C   UNL     1      -3.309  12.786  21.712  0.00  0.00    +0.000 A 
ATOM     30  C   UNL     1      -4.622  13.263  21.587  0.00  0.00    +0.000 A 
BRANCH  25  32
ATOM     31  C   UNL     1      -7.351  13.965  21.412  0.00  0.00    +0.000 C 
ATOM     32  O   UNL     1      -6.798  13.624  22.678  0.00  0.00    +0.000 OA
ENDBRANCH  25  32
ENDBRANCH  24  28
ENDBRANCH  20  24
ENDBRANCH  19  21
ENDBRANCH  18  19
ENDBRANCH   1  18
TORSDOF 9
ENDMDL
MODEL 5
REMARK VINA RESULT:      -7.5      5.115      8.367
REMARK  Name = 
REMARK  10 active torsions:
REMARK  status: ('A' for Active; 'I' for Inactive)
REMARK    1  A    between atoms: C_1  and  O_2
REMARK    2  A    between atoms: O_2  and  C_3
REMARK    3  A    between atoms: C_6  and  C_7
REMARK    4  A    between atoms: C_7  and  N_8
REMARK    5  A    between atoms: C_9  and  C_11
REMARK    6  A    between atoms: C_11  and  O_12
REMARK    7  A    between atoms: O_12  and  C_13
REMARK    8  A    between atoms: C_13  and  C_15
REMARK    9  A    between atoms: C_19  and  S_20
REMARK   10  A    between atoms: S_20  and  N_23
REMARK                            x       y       z     vdW  Elec       q    Type
REMARK                         _______ _______ _______ _____ _____    ______ ____
ROOT
ATOM      1  C   UNL     1       2.784   5.756  19.694  0.00  0.00    +0.000 C 
ATOM      2  O   UNL     1       3.940   5.556  20.019  0.00  0.00    +0.000 OA
ENDROOT
BRANCH   1   3
ATOM      3  C   UNL     1       2.251   7.076  19.258  0.00  0.00    +0.000 A 
ATOM      4  C   UNL     1       2.569   7.557  17.981  0.00  0.00    +0.000 A 
ATOM      5  C   UNL     1       2.157   8.837  17.593  0.00  0.00    +0.000 A 
ATOM      6  C   UNL     1       1.446   9.645  18.485  0.00  0.00    +0.000 A 
ATOM      7  C   UNL     1       1.131   9.164  19.760  0.00  0.00    +0.000 A 
ATOM      8  C   UNL     1       1.510   7.878  20.138  0.00  0.00    +0.000 A 
BRANCH   7   9
ATOM      9  S   UNL     1       0.394  10.288  20.939  0.00  0.00    +0.000 S 
ATOM     10  O   UNL     1      -0.757   9.598  21.472  0.00  0.00    +0.000 OA
ATOM     11  O   UNL     1       1.459  10.763  21.788  0.00  0.00    +0.000 OA
BRANCH   9  12
ATOM     12  N   UNL     1      -0.149  11.601  19.995  0.00  0.00    +0.000 NA
ATOM     13  C   UNL     1       0.443  12.946  20.254  0.00  0.00    +0.000 C 
ATOM     14  C   UNL     1      -0.302  13.668  21.383  0.00  0.00    +0.000 C 
ATOM     15  O   UNL     1      -1.697  13.798  21.083  0.00  0.00    +0.000 OA
ATOM     16  C   UNL     1      -2.307  12.514  20.912  0.00  0.00    +0.000 C 
ATOM     17  C   UNL     1      -1.627  11.716  19.807  0.00  0.00    +0.000 C 
ENDBRANCH   9  12
ENDBRANCH   7   9
ENDBRANCH   1   3
BRANCH   1  18
ATOM     18  O   UNL     1       1.765   4.862  19.715  0.00  0.00    +0.000 OA
BRANCH  18  19
ATOM     19  C   UNL     1       1.673   3.953  18.621  0.00  0.00    +0.000 C 
BRANCH  19  21
ATOM     20  N   UNL     1       3.558   4.372  17.078  0.00  0.00    +0.000 N 
ATOM     21  C   UNL     1       3.062   3.584  18.100  0.00  0.00    +0.000 C 
ATOM     22  O   UNL     1       3.714   2.666  18.599  0.00  0.00    +0.000 OA
ATOM     23  H   UNL     1       3.094   5.251  16.888  0.00  0.00    +0.000 HD
BRANCH  20  24
ATOM     24  C   UNL     1       4.902   4.168  16.578  0.00  0.00    +0.000 C 
BRANCH  24  28
ATOM     25  C   UNL     1       7.741   7.001  18.229  0.00  0.00    +0.000 A 
ATOM     26  C   UNL     1       6.803   7.399  17.278  0.00  0.00    +0.000 A 
ATOM     27  C   UNL     1       5.889   6.480  16.751  0.00  0.00    +0.000 A 
ATOM     28  C   UNL     1       5.920   5.132  17.139  0.00  0.00    +0.000 A 
ATOM     29  C   UNL     1       6.847   4.747  18.117  0.00  0.00    +0.000 A 
ATOM     30  C   UNL     1       7.740   5.677  18.668  0.00  0.00    +0.000 A 
BRANCH  25  32
ATOM     31  C   UNL     1       8.374   9.286  18.129  0.00  0.00    +0.000 C 
ATOM     32  O   UNL     1       8.630   7.970  18.605  0.00  0.00    +0.000 OA
ENDBRANCH  25  32
ENDBRANCH  24  28
ENDBRANCH  20  24
ENDBRANCH  19  21
ENDBRANCH  18  19
ENDBRANCH   1  18
TORSDOF 9
ENDMDL
MODEL 6
REMARK VINA RESULT:      -7.5      5.757      9.600
REMARK  Name = 
REMARK  10 active torsions:
REMARK  status: ('A' for Active; 'I' for Inactive)
REMARK    1  A    between atoms: C_1  and  O_2
REMARK    2  A    between atoms: O_2  and  C_3
REMARK    3  A    between atoms: C_6  and  C_7
REMARK    4  A    between atoms: C_7  and  N_8
REMARK    5  A    between atoms: C_9  and  C_11
REMARK    6  A    between atoms: C_11  and  O_12
REMARK    7  A    between atoms: O_12  and  C_13
REMARK    8  A    between atoms: C_13  and  C_15
REMARK    9  A    between atoms: C_19  and  S_20
REMARK   10  A    between atoms: S_20  and  N_23
REMARK                            x       y       z     vdW  Elec       q    Type
REMARK                         _______ _______ _______ _____ _____    ______ ____
ROOT
ATOM      1  C   UNL     1       1.562   7.815  20.496  0.00  0.00    +0.000 C 
ATOM      2  O   UNL     1       1.460   8.238  21.632  0.00  0.00    +0.000 OA
ENDROOT
BRANCH   1   3
ATOM      3  C   UNL     1       1.881   6.402  20.152  0.00  0.00    +0.000 A 
ATOM      4  C   UNL     1       1.127   5.369  20.724  0.00  0.00    +0.000 A 
ATOM      5  C   UNL     1       1.476   4.034  20.487  0.00  0.00    +0.000 A 
ATOM      6  C   UNL     1       2.586   3.730  19.696  0.00  0.00    +0.000 A 
ATOM      7  C   UNL     1       3.338   4.762  19.125  0.00  0.00    +0.000 A 
ATOM      8  C   UNL     1       2.975   6.091  19.332  0.00  0.00    +0.000 A 
BRANCH   7   9
ATOM      9  S   UNL     1       4.859   4.346  18.283  0.00  0.00    +0.000 S 
ATOM     10  O   UNL     1       5.901   4.462  19.276  0.00  0.00    +0.000 OA
ATOM     11  O   UNL     1       4.621   3.118  17.567  0.00  0.00    +0.000 OA
BRANCH   9  12
ATOM     12  N   UNL     1       5.064   5.592  17.135  0.00  0.00    +0.000 NA
ATOM     13  C   UNL     1       5.276   5.205  15.709  0.00  0.00    +0.000 C 
ATOM     14  C   UNL     1       6.758   4.931  15.427  0.00  0.00    +0.000 C 
ATOM     15  O   UNL     1       7.566   6.071  15.750  0.00  0.00    +0.000 OA
ATOM     16  C   UNL     1       7.443   6.410  17.135  0.00  0.00    +0.000 C 
ATOM     17  C   UNL     1       5.995   6.697  17.513  0.00  0.00    +0.000 C 
ENDBRANCH   9  12
ENDBRANCH   7   9
ENDBRANCH   1   3
BRANCH   1  18
ATOM     18  O   UNL     1       1.466   8.530  19.349  0.00  0.00    +0.000 OA
BRANCH  18  19
ATOM     19  C   UNL     1       1.801   9.915  19.413  0.00  0.00    +0.000 C 
BRANCH  19  21
ATOM     20  N   UNL     1      -0.647  10.209  19.239  0.00  0.00    +0.000 N 
ATOM     21  C   UNL     1       0.596  10.785  19.053  0.00  0.00    +0.000 C 
ATOM     22  O   UNL     1       0.733  11.946  18.668  0.00  0.00    +0.000 OA
ATOM     23  H   UNL     1      -0.701   9.362  19.789  0.00  0.00    +0.000 HD
BRANCH  20  24
ATOM     24  C   UNL     1      -1.855  10.978  19.020  0.00  0.00    +0.000 C 
BRANCH  24  28
ATOM     25  C   UNL     1      -3.752  10.334  15.174  0.00  0.00    +0.000 A 
ATOM     26  C   UNL     1      -4.316  11.193  16.115  0.00  0.00    +0.000 A 
ATOM     27  C   UNL     1      -3.697  11.397  17.353  0.00  0.00    +0.000 A 
ATOM     28  C   UNL     1      -2.518  10.715  17.689  0.00  0.00    +0.000 A 
ATOM     29  C   UNL     1      -1.943   9.875  16.726  0.00  0.00    +0.000 A 
ATOM     30  C   UNL     1      -2.548   9.697  15.473  0.00  0.00    +0.000 A 
BRANCH  25  32
ATOM     31  C   UNL     1      -3.777   9.784  12.865  0.00  0.00    +0.000 C 
ATOM     32  O   UNL     1      -4.493  10.154  14.038  0.00  0.00    +0.000 OA
ENDBRANCH  25  32
ENDBRANCH  24  28
ENDBRANCH  20  24
ENDBRANCH  19  21
ENDBRANCH  18  19
ENDBRANCH   1  18
TORSDOF 9
ENDMDL
MODEL 7
REMARK VINA RESULT:      -7.5      6.450      9.946
REMARK  Name = 
REMARK  10 active torsions:
REMARK  status: ('A' for Active; 'I' for Inactive)
REMARK    1  A    between atoms: C_1  and  O_2
REMARK    2  A    between atoms: O_2  and  C_3
REMARK    3  A    between atoms: C_6  and  C_7
REMARK    4  A    between atoms: C_7  and  N_8
REMARK    5  A    between atoms: C_9  and  C_11
REMARK    6  A    between atoms: C_11  and  O_12
REMARK    7  A    between atoms: O_12  and  C_13
REMARK    8  A    between atoms: C_13  and  C_15
REMARK    9  A    between atoms: C_19  and  S_20
REMARK   10  A    between atoms: S_20  and  N_23
REMARK                            x       y       z     vdW  Elec       q    Type
REMARK                         _______ _______ _______ _____ _____    ______ ____
ROOT
ATOM      1  C   UNL     1       1.728   7.987  20.021  0.00  0.00    +0.000 C 
ATOM      2  O   UNL     1       1.693   8.712  19.044  0.00  0.00    +0.000 OA
ENDROOT
BRANCH   1   3
ATOM      3  C   UNL     1       2.101   6.546  19.985  0.00  0.00    +0.000 A 
ATOM      4  C   UNL     1       1.594   5.680  20.962  0.00  0.00    +0.000 A 
ATOM      5  C   UNL     1       2.012   4.345  20.999  0.00  0.00    +0.000 A 
ATOM      6  C   UNL     1       2.951   3.879  20.075  0.00  0.00    +0.000 A 
ATOM      7  C   UNL     1       3.458   4.744  19.100  0.00  0.00    +0.000 A 
ATOM      8  C   UNL     1       3.019   6.066  19.040  0.00  0.00    +0.000 A 
BRANCH   7   9
ATOM      9  S   UNL     1       4.795   4.173  18.061  0.00  0.00    +0.000 S 
ATOM     10  O   UNL     1       5.959   4.118  18.914  0.00  0.00    +0.000 OA
ATOM     11  O   UNL     1       4.312   3.012  17.356  0.00  0.00    +0.000 OA
BRANCH   9  12
ATOM     12  N   UNL     1       5.015   5.425  16.923  0.00  0.00    +0.000 NA
ATOM     13  C   UNL     1       5.370   5.048  15.523  0.00  0.00    +0.000 C 
ATOM     14  C   UNL     1       6.885   4.869  15.367  0.00  0.00    +0.000 C 
ATOM     15  O   UNL     1       7.589   6.059  15.746  0.00  0.00    +0.000 OA
ATOM     16  C   UNL     1       7.329   6.395  17.114  0.00  0.00    +0.000 C 
ATOM     17  C   UNL     1       5.839   6.589  17.368  0.00  0.00    +0.000 C 
ENDBRANCH   9  12
ENDBRANCH   7   9
ENDBRANCH   1   3
BRANCH   1  18
ATOM     18  O   UNL     1       1.391   8.316  21.292  0.00  0.00    +0.000 OA
BRANCH  18  19
ATOM     19  C   UNL     1       0.023   8.634  21.542  0.00  0.00    +0.000 C 
BRANCH  19  21
ATOM     20  N   UNL     1      -0.631  10.509  20.071  0.00  0.00    +0.000 N 
ATOM     21  C   UNL     1      -0.236  10.127  21.340  0.00  0.00    +0.000 C 
ATOM     22  O   UNL     1      -0.142  10.928  22.269  0.00  0.00    +0.000 OA
ATOM     23  H   UNL     1      -0.932   9.788  19.430  0.00  0.00    +0.000 HD
BRANCH  20  24
ATOM     24  C   UNL     1      -0.994  11.885  19.797  0.00  0.00    +0.000 C 
BRANCH  24  28
ATOM     25  C   UNL     1      -5.251  12.693  19.620  0.00  0.00    +0.000 A 
ATOM     26  C   UNL     1      -4.478  13.157  20.684  0.00  0.00    +0.000 A 
ATOM     27  C   UNL     1      -3.104  12.894  20.732  0.00  0.00    +0.000 A 
ATOM     28  C   UNL     1      -2.483  12.127  19.735  0.00  0.00    +0.000 A 
ATOM     29  C   UNL     1      -3.262  11.690  18.656  0.00  0.00    +0.000 A 
ATOM     30  C   UNL     1      -4.632  11.983  18.592  0.00  0.00    +0.000 A 
BRANCH  25  32
ATOM     31  C   UNL     1      -7.399  12.561  18.621  0.00  0.00    +0.000 C 
ATOM     32  O   UNL     1      -6.592  12.943  19.728  0.00  0.00    +0.000 OA
ENDBRANCH  25  32
ENDBRANCH  24  28
ENDBRANCH  20  24
ENDBRANCH  19  21
ENDBRANCH  18  19
ENDBRANCH   1  18
TORSDOF 9
ENDMDL
MODEL 8
REMARK VINA RESULT:      -7.4      7.154      9.718
REMARK  Name = 
REMARK  10 active torsions:
REMARK  status: ('A' for Active; 'I' for Inactive)
REMARK    1  A    between atoms: C_1  and  O_2
REMARK    2  A    between atoms: O_2  and  C_3
REMARK    3  A    between atoms: C_6  and  C_7
REMARK    4  A    between atoms: C_7  and  N_8
REMARK    5  A    between atoms: C_9  and  C_11
REMARK    6  A    between atoms: C_11  and  O_12
REMARK    7  A    between atoms: O_12  and  C_13
REMARK    8  A    between atoms: C_13  and  C_15
REMARK    9  A    between atoms: C_19  and  S_20
REMARK   10  A    between atoms: S_20  and  N_23
REMARK                            x       y       z     vdW  Elec       q    Type
REMARK                         _______ _______ _______ _____ _____    ______ ____
ROOT
ATOM      1  C   UNL     1       1.657   9.194  18.372  0.00  0.00    +0.000 C 
ATOM      2  O   UNL     1       2.225   9.734  17.441  0.00  0.00    +0.000 OA
ENDROOT
BRANCH   1   3
ATOM      3  C   UNL     1       1.970   7.825  18.866  0.00  0.00    +0.000 A 
ATOM      4  C   UNL     1       1.591   7.461  20.165  0.00  0.00    +0.000 A 
ATOM      5  C   UNL     1       1.963   6.213  20.678  0.00  0.00    +0.000 A 
ATOM      6  C   UNL     1       2.729   5.336  19.904  0.00  0.00    +0.000 A 
ATOM      7  C   UNL     1       3.107   5.702  18.608  0.00  0.00    +0.000 A 
ATOM      8  C   UNL     1       2.711   6.930  18.082  0.00  0.00    +0.000 A 
BRANCH   7   9
ATOM      9  S   UNL     1       4.244   4.647  17.720  0.00  0.00    +0.000 S 
ATOM     10  O   UNL     1       5.311   4.352  18.647  0.00  0.00    +0.000 OA
ATOM     11  O   UNL     1       3.458   3.605  17.106  0.00  0.00    +0.000 OA
BRANCH   9  12
ATOM     12  N   UNL     1       4.863   5.638  16.477  0.00  0.00    +0.000 NA
ATOM     13  C   UNL     1       5.376   4.978  15.241  0.00  0.00    +0.000 C 
ATOM     14  C   UNL     1       6.842   4.560  15.407  0.00  0.00    +0.000 C 
ATOM     15  O   UNL     1       7.667   5.684  15.739  0.00  0.00    +0.000 OA
ATOM     16  C   UNL     1       7.245   6.285  16.969  0.00  0.00    +0.000 C 
ATOM     17  C   UNL     1       5.790   6.732  16.901  0.00  0.00    +0.000 C 
ENDBRANCH   9  12
ENDBRANCH   7   9
ENDBRANCH   1   3
BRANCH   1  18
ATOM     18  O   UNL     1       0.620   9.689  19.091  0.00  0.00    +0.000 OA
BRANCH  18  19
ATOM     19  C   UNL     1       0.551  11.105  19.247  0.00  0.00    +0.000 C 
BRANCH  19  21
ATOM     20  N   UNL     1      -0.762  11.124  21.340  0.00  0.00    +0.000 N 
ATOM     21  C   UNL     1       0.420  11.486  20.722  0.00  0.00    +0.000 C 
ATOM     22  O   UNL     1       1.337  12.039  21.328  0.00  0.00    +0.000 OA
ATOM     23  H   UNL     1      -1.361  10.459  20.869  0.00  0.00    +0.000 HD
BRANCH  20  24
ATOM     24  C   UNL     1      -0.950  11.352  22.759  0.00  0.00    +0.000 C 
BRANCH  24  28
ATOM     25  C   UNL     1      -3.604  14.634  23.755  0.00  0.00    +0.000 A 
ATOM     26  C   UNL     1      -4.108  13.424  23.281  0.00  0.00    +0.000 A 
ATOM     27  C   UNL     1      -3.246  12.369  22.964  0.00  0.00    +0.000 A 
ATOM     28  C   UNL     1      -1.855  12.517  23.079  0.00  0.00    +0.000 A 
ATOM     29  C   UNL     1      -1.359  13.726  23.583  0.00  0.00    +0.000 A 
ATOM     30  C   UNL     1      -2.227  14.771  23.932  0.00  0.00    +0.000 A 
BRANCH  25  32
ATOM     31  C   UNL     1      -5.900  15.230  23.802  0.00  0.00    +0.000 C 
ATOM     32  O   UNL     1      -4.539  15.614  23.951  0.00  0.00    +0.000 OA
ENDBRANCH  25  32
ENDBRANCH  24  28
ENDBRANCH  20  24
ENDBRANCH  19  21
ENDBRANCH  18  19
ENDBRANCH   1  18
TORSDOF 9
ENDMDL
MODEL 9
REMARK VINA RESULT:      -7.4      1.489      1.735
REMARK  Name = 
REMARK  10 active torsions:
REMARK  status: ('A' for Active; 'I' for Inactive)
REMARK    1  A    between atoms: C_1  and  O_2
REMARK    2  A    between atoms: O_2  and  C_3
REMARK    3  A    between atoms: C_6  and  C_7
REMARK    4  A    between atoms: C_7  and  N_8
REMARK    5  A    between atoms: C_9  and  C_11
REMARK    6  A    between atoms: C_11  and  O_12
REMARK    7  A    between atoms: O_12  and  C_13
REMARK    8  A    between atoms: C_13  and  C_15
REMARK    9  A    between atoms: C_19  and  S_20
REMARK   10  A    between atoms: S_20  and  N_23
REMARK                            x       y       z     vdW  Elec       q    Type
REMARK                         _______ _______ _______ _____ _____    ______ ____
ROOT
ATOM      1  C   UNL     1       7.805   6.700  18.082  0.00  0.00    +0.000 C 
ATOM      2  O   UNL     1       8.383   6.485  19.131  0.00  0.00    +0.000 OA
ENDROOT
BRANCH   1   3
ATOM      3  C   UNL     1       6.826   5.769  17.457  0.00  0.00    +0.000 A 
ATOM      4  C   UNL     1       6.517   5.908  16.097  0.00  0.00    +0.000 A 
ATOM      5  C   UNL     1       5.527   5.104  15.519  0.00  0.00    +0.000 A 
ATOM      6  C   UNL     1       4.833   4.176  16.299  0.00  0.00    +0.000 A 
ATOM      7  C   UNL     1       5.142   4.038  17.656  0.00  0.00    +0.000 A 
ATOM      8  C   UNL     1       6.149   4.814  18.229  0.00  0.00    +0.000 A 
BRANCH   7   9
ATOM      9  S   UNL     1       4.109   2.986  18.666  0.00  0.00    +0.000 S 
ATOM     10  O   UNL     1       3.622   1.952  17.784  0.00  0.00    +0.000 OA
ATOM     11  O   UNL     1       4.859   2.679  19.858  0.00  0.00    +0.000 OA
BRANCH   9  12
ATOM     12  N   UNL     1       2.796   3.980  19.113  0.00  0.00    +0.000 NA
ATOM     13  C   UNL     1       2.629   4.316  20.558  0.00  0.00    +0.000 C 
ATOM     14  C   UNL     1       1.835   3.227  21.289  0.00  0.00    +0.000 C 
ATOM     15  O   UNL     1       0.552   3.026  20.683  0.00  0.00    +0.000 OA
ATOM     16  C   UNL     1       0.689   2.621  19.316  0.00  0.00    +0.000 C 
ATOM     17  C   UNL     1       1.473   3.645  18.506  0.00  0.00    +0.000 C 
ENDBRANCH   9  12
ENDBRANCH   7   9
ENDBRANCH   1   3
BRANCH   1  18
ATOM     18  O   UNL     1       7.970   7.769  17.265  0.00  0.00    +0.000 OA
BRANCH  18  19
ATOM     19  C   UNL     1       7.455   9.020  17.717  0.00  0.00    +0.000 C 
BRANCH  19  21
ATOM     20  N   UNL     1       8.730  11.137  17.666  0.00  0.00    +0.000 N 
ATOM     21  C   UNL     1       8.575   9.903  18.269  0.00  0.00    +0.000 C 
ATOM     22  O   UNL     1       9.262   9.546  19.226  0.00  0.00    +0.000 OA
ATOM     23  H   UNL     1       7.986  11.470  17.068  0.00  0.00    +0.000 HD
BRANCH  20  24
ATOM     24  C   UNL     1       9.697  12.088  18.175  0.00  0.00    +0.000 C 
BRANCH  24  28
ATOM     25  C   UNL     1       7.849  15.738  19.614  0.00  0.00    +0.000 A 
ATOM     26  C   UNL     1       7.390  15.111  18.456  0.00  0.00    +0.000 A 
ATOM     27  C   UNL     1       7.991  13.933  17.999  0.00  0.00    +0.000 A 
ATOM     28  C   UNL     1       9.089  13.377  18.673  0.00  0.00    +0.000 A 
ATOM     29  C   UNL     1       9.524  13.997  19.851  0.00  0.00    +0.000 A 
ATOM     30  C   UNL     1       8.900  15.160  20.325  0.00  0.00    +0.000 A 
BRANCH  25  32
ATOM     31  C   UNL     1       6.054  17.228  19.179  0.00  0.00    +0.000 C 
ATOM     32  O   UNL     1       7.236  16.924  19.910  0.00  0.00    +0.000 OA
ENDBRANCH  25  32
ENDBRANCH  24  28
ENDBRANCH  20  24
ENDBRANCH  19  21
ENDBRANCH  18  19
ENDBRANCH   1  18
TORSDOF 9
ENDMDL
