MODEL 1
REMARK VINA RESULT:      -7.4      0.000      0.000
REMARK  Name = 
REMARK  11 active torsions:
REMARK  status: ('A' for Active; 'I' for Inactive)
REMARK    1  A    between atoms: C_1  and  C_2
REMARK    2  A    between atoms: C_2  and  C_3
REMARK    3  A    between atoms: C_2  and  N_4
REMARK    4  A    between atoms: N_4  and  C_5
REMARK    5  A    between atoms: C_5  and  C_6
REMARK    6  A    between atoms: C_6  and  O_7
REMARK    7  A    between atoms: C_6  and  C_8
REMARK    8  A    between atoms: C_8  and  O_9
REMARK    9  A    between atoms: O_9  and  C_10
REMARK   10  A    between atoms: C_17  and  O_18
REMARK   11  A    between atoms: C_19  and  O_20
REMARK                            x       y       z     vdW  Elec       q    Type
REMARK                         _______ _______ _______ _____ _____    ______ ____
ROOT
ATOM      1  C   UNL     1       4.240   5.265  16.882  0.00  0.00    +0.000 A 
ATOM      2  C   UNL     1       4.409   6.652  16.889  0.00  0.00    +0.000 A 
ATOM      3  C   UNL     1       3.679   7.451  17.768  0.00  0.00    +0.000 A 
ATOM      4  C   UNL     1       2.759   6.873  18.633  0.00  0.00    +0.000 A 
ATOM      5  C   UNL     1       2.564   5.486  18.641  0.00  0.00    +0.000 A 
ATOM      6  C   UNL     1       3.338   4.667  17.789  0.00  0.00    +0.000 A 
ATOM      7  C   UNL     1       3.170   3.162  17.809  0.00  0.00    +0.000 C 
ATOM      8  C   UNL     1       2.427   2.641  19.042  0.00  0.00    +0.000 C 
ATOM      9  C   UNL     1       1.159   3.476  19.281  0.00  0.00    +0.000 C 
ATOM     10  C   UNL     1       1.550   4.915  19.601  0.00  0.00    +0.000 C 
ENDROOT
BRANCH   8  11
ATOM     11  O   UNL     1       2.108   1.258  18.870  0.00  0.00    +0.000 OA
ATOM     12  H   UNL     1       1.138   1.168  18.903  0.00  0.00    +0.000 HD
ENDBRANCH   8  11
BRANCH   9  13
ATOM     13  O   UNL     1       0.376   2.944  20.353  0.00  0.00    +0.000 OA
ATOM     14  H   UNL     1      -0.447   2.586  19.976  0.00  0.00    +0.000 HD
ENDBRANCH   9  13
BRANCH   1  15
ATOM     15  O   UNL     1       4.902   4.416  16.031  0.00  0.00    +0.000 OA
BRANCH  15  16
ATOM     16  C   UNL     1       6.250   4.069  16.380  0.00  0.00    +0.000 C 
BRANCH  16  17
ATOM     17  C   UNL     1       7.216   4.683  15.358  0.00  0.00    +0.000 C 
BRANCH  17  18
ATOM     18  O   UNL     1       7.590   6.006  15.771  0.00  0.00    +0.000 OA
ATOM     19  H   UNL     1       7.949   6.446  14.977  0.00  0.00    +0.000 HD
ENDBRANCH  17  18
BRANCH  17  20
ATOM     20  C   UNL     1       6.575   4.736  13.959  0.00  0.00    +0.000 C 
BRANCH  20  21
ATOM     21  N   UNL     1       6.268   3.382  13.482  0.00  0.00    +0.000 NA
ATOM     22  H   UNL     1       7.044   2.770  13.751  0.00  0.00    +0.000 HD
BRANCH  21  24
ATOM     23  C   UNL     1       6.772   2.090  11.486  0.00  0.00    +0.000 C 
ATOM     24  C   UNL     1       6.043   3.317  12.034  0.00  0.00    +0.000 C 
ATOM     25  C   UNL     1       4.554   3.222  11.695  0.00  0.00    +0.000 C 
ENDBRANCH  21  24
ENDBRANCH  20  21
ENDBRANCH  17  20
ENDBRANCH  16  17
ENDBRANCH  15  16
ENDBRANCH   1  15
TORSDOF 9
ENDMDL
MODEL 2
REMARK VINA RESULT:      -7.1      3.351      5.951
REMARK  Name = 
REMARK  11 active torsions:
REMARK  status: ('A' for Active; 'I' for Inactive)
REMARK    1  A    between atoms: C_1  and  C_2
REMARK    2  A    between atoms: C_2  and  C_3
REMARK    3  A    between atoms: C_2  and  N_4
REMARK    4  A    between atoms: N_4  and  C_5
REMARK    5  A    between atoms: C_5  and  C_6
REMARK    6  A    between atoms: C_6  and  O_7
REMARK    7  A    between atoms: C_6  and  C_8
REMARK    8  A    between atoms: C_8  and  O_9
REMARK    9  A    between atoms: O_9  and  C_10
REMARK   10  A    between atoms: C_17  and  O_18
REMARK   11  A    between atoms: C_19  and  O_20
REMARK                            x       y       z     vdW  Elec       q    Type
REMARK                         _______ _______ _______ _____ _____    ______ ____
ROOT
ATOM      1  C   UNL     1       3.252   5.800  19.511  0.00  0.00    +0.000 A 
ATOM      2  C   UNL     1       2.218   6.731  19.381  0.00  0.00    +0.000 A 
ATOM      3  C   UNL     1       2.263   7.705  18.384  0.00  0.00    +0.000 A 
ATOM      4  C   UNL     1       3.349   7.768  17.521  0.00  0.00    +0.000 A 
ATOM      5  C   UNL     1       4.402   6.852  17.635  0.00  0.00    +0.000 A 
ATOM      6  C   UNL     1       4.338   5.832  18.610  0.00  0.00    +0.000 A 
ATOM      7  C   UNL     1       5.449   4.809  18.726  0.00  0.00    +0.000 C 
ATOM      8  C   UNL     1       6.369   4.758  17.504  0.00  0.00    +0.000 C 
ATOM      9  C   UNL     1       6.789   6.181  17.103  0.00  0.00    +0.000 C 
ATOM     10  C   UNL     1       5.557   6.971  16.672  0.00  0.00    +0.000 C 
ENDROOT
BRANCH   8  11
ATOM     11  O   UNL     1       7.512   3.946  17.787  0.00  0.00    +0.000 OA
ATOM     12  H   UNL     1       8.081   3.943  16.996  0.00  0.00    +0.000 HD
ENDBRANCH   8  11
BRANCH   9  13
ATOM     13  O   UNL     1       7.744   6.167  16.039  0.00  0.00    +0.000 OA
ATOM     14  H   UNL     1       7.526   5.424  15.449  0.00  0.00    +0.000 HD
ENDBRANCH   9  13
BRANCH   1  15
ATOM     15  O   UNL     1       3.293   4.830  20.482  0.00  0.00    +0.000 OA
BRANCH  15  16
ATOM     16  C   UNL     1       2.106   4.649  21.267  0.00  0.00    +0.000 C 
BRANCH  16  17
ATOM     17  C   UNL     1       1.598   3.210  21.101  0.00  0.00    +0.000 C 
BRANCH  17  18
ATOM     18  O   UNL     1       1.529   2.564  22.380  0.00  0.00    +0.000 OA
ATOM     19  H   UNL     1       0.587   2.567  22.634  0.00  0.00    +0.000 HD
ENDBRANCH  17  18
BRANCH  17  20
ATOM     20  C   UNL     1       2.518   2.409  20.161  0.00  0.00    +0.000 C 
BRANCH  20  21
ATOM     21  N   UNL     1       1.738   1.794  19.080  0.00  0.00    +0.000 NA
ATOM     22  H   UNL     1       1.756   0.778  19.217  0.00  0.00    +0.000 HD
BRANCH  21  24
ATOM     23  C   UNL     1       1.817   3.574  17.426  0.00  0.00    +0.000 C 
ATOM     24  C   UNL     1       2.234   2.138  17.743  0.00  0.00    +0.000 C 
ATOM     25  C   UNL     1       3.757   2.017  17.655  0.00  0.00    +0.000 C 
ENDBRANCH  21  24
ENDBRANCH  20  21
ENDBRANCH  17  20
ENDBRANCH  16  17
ENDBRANCH  15  16
ENDBRANCH   1  15
TORSDOF 9
ENDMDL
MODEL 3
REMARK VINA RESULT:      -7.0      1.159      1.327
REMARK  Name = 
REMARK  11 active torsions:
REMARK  status: ('A' for Active; 'I' for Inactive)
REMARK    1  A    between atoms: C_1  and  C_2
REMARK    2  A    between atoms: C_2  and  C_3
REMARK    3  A    between atoms: C_2  and  N_4
REMARK    4  A    between atoms: N_4  and  C_5
REMARK    5  A    between atoms: C_5  and  C_6
REMARK    6  A    between atoms: C_6  and  O_7
REMARK    7  A    between atoms: C_6  and  C_8
REMARK    8  A    between atoms: C_8  and  O_9
REMARK    9  A    between atoms: O_9  and  C_10
REMARK   10  A    between atoms: C_17  and  O_18
REMARK   11  A    between atoms: C_19  and  O_20
REMARK                            x       y       z     vdW  Elec       q    Type
REMARK                         _______ _______ _______ _____ _____    ______ ____
ROOT
ATOM      1  C   UNL     1       4.605   5.804  17.247  0.00  0.00    +0.000 A 
ATOM      2  C   UNL     1       4.150   7.111  17.444  0.00  0.00    +0.000 A 
ATOM      3  C   UNL     1       2.931   7.349  18.078  0.00  0.00    +0.000 A 
ATOM      4  C   UNL     1       2.148   6.284  18.503  0.00  0.00    +0.000 A 
ATOM      5  C   UNL     1       2.577   4.964  18.311  0.00  0.00    +0.000 A 
ATOM      6  C   UNL     1       3.834   4.718  17.715  0.00  0.00    +0.000 A 
ATOM      7  C   UNL     1       4.333   3.300  17.532  0.00  0.00    +0.000 C 
ATOM      8  C   UNL     1       3.573   2.267  18.367  0.00  0.00    +0.000 C 
ATOM      9  C   UNL     1       2.058   2.484  18.220  0.00  0.00    +0.000 C 
ATOM     10  C   UNL     1       1.683   3.848  18.791  0.00  0.00    +0.000 C 
ENDROOT
BRANCH   8  11
ATOM     11  O   UNL     1       3.944   0.946  17.965  0.00  0.00    +0.000 OA
ATOM     12  H   UNL     1       4.916   0.884  17.999  0.00  0.00    +0.000 HD
ENDBRANCH   8  11
BRANCH   9  13
ATOM     13  O   UNL     1       1.314   1.464  18.890  0.00  0.00    +0.000 OA
ATOM     14  H   UNL     1       0.955   0.861  18.216  0.00  0.00    +0.000 HD
ENDBRANCH   9  13
BRANCH   1  15
ATOM     15  O   UNL     1       5.779   5.488  16.609  0.00  0.00    +0.000 OA
BRANCH  15  16
ATOM     16  C   UNL     1       5.803   5.641  15.182  0.00  0.00    +0.000 C 
BRANCH  16  17
ATOM     17  C   UNL     1       6.829   4.672  14.581  0.00  0.00    +0.000 C 
BRANCH  17  18
ATOM     18  O   UNL     1       7.797   5.399  13.811  0.00  0.00    +0.000 OA
ATOM     19  H   UNL     1       8.256   5.987  14.439  0.00  0.00    +0.000 HD
ENDBRANCH  17  18
BRANCH  17  20
ATOM     20  C   UNL     1       6.138   3.621  13.693  0.00  0.00    +0.000 C 
BRANCH  20  21
ATOM     21  N   UNL     1       6.585   3.751  12.301  0.00  0.00    +0.000 NA
ATOM     22  H   UNL     1       6.605   4.749  12.067  0.00  0.00    +0.000 HD
BRANCH  21  24
ATOM     23  C   UNL     1       5.987   1.523  11.532  0.00  0.00    +0.000 C 
ATOM     24  C   UNL     1       5.738   3.021  11.352  0.00  0.00    +0.000 C 
ATOM     25  C   UNL     1       4.253   3.322  11.569  0.00  0.00    +0.000 C 
ENDBRANCH  21  24
ENDBRANCH  20  21
ENDBRANCH  17  20
ENDBRANCH  16  17
ENDBRANCH  15  16
ENDBRANCH   1  15
TORSDOF 9
ENDMDL
MODEL 4
REMARK VINA RESULT:      -7.0      1.847      2.273
REMARK  Name = 
REMARK  11 active torsions:
REMARK  status: ('A' for Active; 'I' for Inactive)
REMARK    1  A    between atoms: C_1  and  C_2
REMARK    2  A    between atoms: C_2  and  C_3
REMARK    3  A    between atoms: C_2  and  N_4
REMARK    4  A    between atoms: N_4  and  C_5
REMARK    5  A    between atoms: C_5  and  C_6
REMARK    6  A    between atoms: C_6  and  O_7
REMARK    7  A    between atoms: C_6  and  C_8
REMARK    8  A    between atoms: C_8  and  O_9
REMARK    9  A    between atoms: O_9  and  C_10
REMARK   10  A    between atoms: C_17  and  O_18
REMARK   11  A    between atoms: C_19  and  O_20
REMARK                            x       y       z     vdW  Elec       q    Type
REMARK                         _______ _______ _______ _____ _____    ______ ____
ROOT
ATOM      1  C   UNL     1       3.531   6.193  17.942  0.00  0.00    +0.000 A 
ATOM      2  C   UNL     1       2.856   7.407  18.092  0.00  0.00    +0.000 A 
ATOM      3  C   UNL     1       2.082   7.652  19.225  0.00  0.00    +0.000 A 
ATOM      4  C   UNL     1       1.960   6.679  20.209  0.00  0.00    +0.000 A 
ATOM      5  C   UNL     1       2.620   5.451  20.080  0.00  0.00    +0.000 A 
ATOM      6  C   UNL     1       3.446   5.217  18.958  0.00  0.00    +0.000 A 
ATOM      7  C   UNL     1       4.198   3.909  18.817  0.00  0.00    +0.000 C 
ATOM      8  C   UNL     1       4.282   3.103  20.116  0.00  0.00    +0.000 C 
ATOM      9  C   UNL     1       2.896   3.029  20.778  0.00  0.00    +0.000 C 
ATOM     10  C   UNL     1       2.449   4.432  21.178  0.00  0.00    +0.000 C 
ENDROOT
BRANCH   8  11
ATOM     11  O   UNL     1       4.793   1.796  19.846  0.00  0.00    +0.000 OA
ATOM     12  H   UNL     1       5.684   1.736  20.237  0.00  0.00    +0.000 HD
ENDBRANCH   8  11
BRANCH   9  13
ATOM     13  O   UNL     1       2.910   2.185  21.931  0.00  0.00    +0.000 OA
ATOM     14  H   UNL     1       3.766   1.720  21.954  0.00  0.00    +0.000 HD
ENDBRANCH   9  13
BRANCH   1  15
ATOM     15  O   UNL     1       4.289   5.867  16.845  0.00  0.00    +0.000 OA
BRANCH  15  16
ATOM     16  C   UNL     1       5.360   6.762  16.508  0.00  0.00    +0.000 C 
BRANCH  16  17
ATOM     17  C   UNL     1       6.693   6.162  16.972  0.00  0.00    +0.000 C 
BRANCH  17  18
ATOM     18  O   UNL     1       7.757   7.097  16.744  0.00  0.00    +0.000 OA
ATOM     19  H   UNL     1       8.554   6.562  16.570  0.00  0.00    +0.000 HD
ENDBRANCH  17  18
BRANCH  17  20
ATOM     20  C   UNL     1       6.989   4.844  16.232  0.00  0.00    +0.000 C 
BRANCH  20  21
ATOM     21  N   UNL     1       7.702   5.109  14.976  0.00  0.00    +0.000 NA
ATOM     22  H   UNL     1       8.118   6.043  15.041  0.00  0.00    +0.000 HD
BRANCH  21  24
ATOM     23  C   UNL     1       7.718   5.107  12.545  0.00  0.00    +0.000 C 
ATOM     24  C   UNL     1       6.839   5.016  13.793  0.00  0.00    +0.000 C 
ATOM     25  C   UNL     1       6.051   3.705  13.768  0.00  0.00    +0.000 C 
ENDBRANCH  21  24
ENDBRANCH  20  21
ENDBRANCH  17  20
ENDBRANCH  16  17
ENDBRANCH  15  16
ENDBRANCH   1  15
TORSDOF 9
ENDMDL
MODEL 5
REMARK VINA RESULT:      -6.9      1.960      3.230
REMARK  Name = 
REMARK  11 active torsions:
REMARK  status: ('A' for Active; 'I' for Inactive)
REMARK    1  A    between atoms: C_1  and  C_2
REMARK    2  A    between atoms: C_2  and  C_3
REMARK    3  A    between atoms: C_2  and  N_4
REMARK    4  A    between atoms: N_4  and  C_5
REMARK    5  A    between atoms: C_5  and  C_6
REMARK    6  A    between atoms: C_6  and  O_7
REMARK    7  A    between atoms: C_6  and  C_8
REMARK    8  A    between atoms: C_8  and  O_9
REMARK    9  A    between atoms: O_9  and  C_10
REMARK   10  A    between atoms: C_17  and  O_18
REMARK   11  A    between atoms: C_19  and  O_20
REMARK                            x       y       z     vdW  Elec       q    Type
REMARK                         _______ _______ _______ _____ _____    ______ ____
ROOT
ATOM      1  C   UNL     1       3.798   5.359  17.045  0.00  0.00    +0.000 A 
ATOM      2  C   UNL     1       3.991   6.742  17.106  0.00  0.00    +0.000 A 
ATOM      3  C   UNL     1       3.437   7.490  18.144  0.00  0.00    +0.000 A 
ATOM      4  C   UNL     1       2.669   6.865  19.119  0.00  0.00    +0.000 A 
ATOM      5  C   UNL     1       2.454   5.482  19.077  0.00  0.00    +0.000 A 
ATOM      6  C   UNL     1       3.055   4.713  18.056  0.00  0.00    +0.000 A 
ATOM      7  C   UNL     1       2.866   3.210  18.013  0.00  0.00    +0.000 C 
ATOM      8  C   UNL     1       2.337   2.619  19.322  0.00  0.00    +0.000 C 
ATOM      9  C   UNL     1       1.143   3.446  19.827  0.00  0.00    +0.000 C 
ATOM     10  C   UNL     1       1.610   4.859  20.161  0.00  0.00    +0.000 C 
ENDROOT
BRANCH   8  11
ATOM     11  O   UNL     1       1.968   1.251  19.125  0.00  0.00    +0.000 OA
ATOM     12  H   UNL     1       0.996   1.194  19.173  0.00  0.00    +0.000 HD
ENDBRANCH   8  11
BRANCH   9  13
ATOM     13  O   UNL     1       0.547   2.854  20.984  0.00  0.00    +0.000 OA
ATOM     14  H   UNL     1      -0.372   3.171  21.045  0.00  0.00    +0.000 HD
ENDBRANCH   9  13
BRANCH   1  15
ATOM     15  O   UNL     1       4.288   4.560  16.042  0.00  0.00    +0.000 OA
BRANCH  15  16
ATOM     16  C   UNL     1       5.213   5.164  15.126  0.00  0.00    +0.000 C 
BRANCH  16  17
ATOM     17  C   UNL     1       6.524   4.367  15.125  0.00  0.00    +0.000 C 
BRANCH  17  18
ATOM     18  O   UNL     1       6.289   3.035  15.604  0.00  0.00    +0.000 OA
ATOM     19  H   UNL     1       6.409   3.071  16.572  0.00  0.00    +0.000 HD
ENDBRANCH  17  18
BRANCH  17  20
ATOM     20  C   UNL     1       7.586   5.056  16.001  0.00  0.00    +0.000 C 
BRANCH  20  21
ATOM     21  N   UNL     1       7.612   4.460  17.342  0.00  0.00    +0.000 NA
ATOM     22  H   UNL     1       6.788   3.858  17.436  0.00  0.00    +0.000 HD
BRANCH  21  24
ATOM     23  C   UNL     1       7.586   6.850  17.787  0.00  0.00    +0.000 C 
ATOM     24  C   UNL     1       7.640   5.458  18.417  0.00  0.00    +0.000 C 
ATOM     25  C   UNL     1       6.463   5.287  19.380  0.00  0.00    +0.000 C 
ENDBRANCH  21  24
ENDBRANCH  20  21
ENDBRANCH  17  20
ENDBRANCH  16  17
ENDBRANCH  15  16
ENDBRANCH   1  15
TORSDOF 9
ENDMDL
MODEL 6
REMARK VINA RESULT:      -6.9      2.992      4.918
REMARK  Name = 
REMARK  11 active torsions:
REMARK  status: ('A' for Active; 'I' for Inactive)
REMARK    1  A    between atoms: C_1  and  C_2
REMARK    2  A    between atoms: C_2  and  C_3
REMARK    3  A    between atoms: C_2  and  N_4
REMARK    4  A    between atoms: N_4  and  C_5
REMARK    5  A    between atoms: C_5  and  C_6
REMARK    6  A    between atoms: C_6  and  O_7
REMARK    7  A    between atoms: C_6  and  C_8
REMARK    8  A    between atoms: C_8  and  O_9
REMARK    9  A    between atoms: O_9  and  C_10
REMARK   10  A    between atoms: C_17  and  O_18
REMARK   11  A    between atoms: C_19  and  O_20
REMARK                            x       y       z     vdW  Elec       q    Type
REMARK                         _______ _______ _______ _____ _____    ______ ____
ROOT
ATOM      1  C   UNL     1       3.803   5.526  18.261  0.00  0.00    +0.000 A 
ATOM      2  C   UNL     1       3.813   4.370  19.046  0.00  0.00    +0.000 A 
ATOM      3  C   UNL     1       3.041   4.293  20.204  0.00  0.00    +0.000 A 
ATOM      4  C   UNL     1       2.266   5.377  20.598  0.00  0.00    +0.000 A 
ATOM      5  C   UNL     1       2.244   6.550  19.833  0.00  0.00    +0.000 A 
ATOM      6  C   UNL     1       2.986   6.615  18.632  0.00  0.00    +0.000 A 
ATOM      7  C   UNL     1       2.946   7.861  17.771  0.00  0.00    +0.000 C 
ATOM      8  C   UNL     1       1.788   8.805  18.106  0.00  0.00    +0.000 C 
ATOM      9  C   UNL     1       1.710   9.020  19.627  0.00  0.00    +0.000 C 
ATOM     10  C   UNL     1       1.387   7.695  20.311  0.00  0.00    +0.000 C 
ENDROOT
BRANCH   8  11
ATOM     11  O   UNL     1       1.958  10.048  17.420  0.00  0.00    +0.000 OA
ATOM     12  H   UNL     1       1.546  10.747  17.960  0.00  0.00    +0.000 HD
ENDBRANCH   8  11
BRANCH   9  13
ATOM     13  O   UNL     1       0.717   9.989  19.969  0.00  0.00    +0.000 OA
ATOM     14  H   UNL     1      -0.154   9.554  19.933  0.00  0.00    +0.000 HD
ENDBRANCH   9  13
BRANCH   1  15
ATOM     15  O   UNL     1       4.555   5.688  17.124  0.00  0.00    +0.000 OA
BRANCH  15  16
ATOM     16  C   UNL     1       4.707   4.538  16.278  0.00  0.00    +0.000 C 
BRANCH  16  17
ATOM     17  C   UNL     1       6.010   4.662  15.477  0.00  0.00    +0.000 C 
BRANCH  17  18
ATOM     18  O   UNL     1       6.257   3.449  14.752  0.00  0.00    +0.000 OA
ATOM     19  H   UNL     1       7.129   3.129  15.049  0.00  0.00    +0.000 HD
ENDBRANCH  17  18
BRANCH  17  20
ATOM     20  C   UNL     1       7.199   4.965  16.407  0.00  0.00    +0.000 C 
BRANCH  20  21
ATOM     21  N   UNL     1       7.520   6.397  16.383  0.00  0.00    +0.000 NA
ATOM     22  H   UNL     1       8.499   6.497  16.098  0.00  0.00    +0.000 HD
BRANCH  21  24
ATOM     23  C   UNL     1       7.771   6.128  18.787  0.00  0.00    +0.000 C 
ATOM     24  C   UNL     1       7.294   7.060  17.672  0.00  0.00    +0.000 C 
ATOM     25  C   UNL     1       8.043   8.391  17.764  0.00  0.00    +0.000 C 
ENDBRANCH  21  24
ENDBRANCH  20  21
ENDBRANCH  17  20
ENDBRANCH  16  17
ENDBRANCH  15  16
ENDBRANCH   1  15
TORSDOF 9
ENDMDL
MODEL 7
REMARK VINA RESULT:      -6.9      2.800      4.714
REMARK  Name = 
REMARK  11 active torsions:
REMARK  status: ('A' for Active; 'I' for Inactive)
REMARK    1  A    between atoms: C_1  and  C_2
REMARK    2  A    between atoms: C_2  and  C_3
REMARK    3  A    between atoms: C_2  and  N_4
REMARK    4  A    between atoms: N_4  and  C_5
REMARK    5  A    between atoms: C_5  and  C_6
REMARK    6  A    between atoms: C_6  and  O_7
REMARK    7  A    between atoms: C_6  and  C_8
REMARK    8  A    between atoms: C_8  and  O_9
REMARK    9  A    between atoms: O_9  and  C_10
REMARK   10  A    between atoms: C_17  and  O_18
REMARK   11  A    between atoms: C_19  and  O_20
REMARK                            x       y       z     vdW  Elec       q    Type
REMARK                         _______ _______ _______ _____ _____    ______ ____
ROOT
ATOM      1  C   UNL     1       3.633   5.114  18.044  0.00  0.00    +0.000 A 
ATOM      2  C   UNL     1       3.652   3.948  18.814  0.00  0.00    +0.000 A 
ATOM      3  C   UNL     1       2.989   3.897  20.040  0.00  0.00    +0.000 A 
ATOM      4  C   UNL     1       2.317   5.016  20.515  0.00  0.00    +0.000 A 
ATOM      5  C   UNL     1       2.289   6.199  19.766  0.00  0.00    +0.000 A 
ATOM      6  C   UNL     1       2.916   6.240  18.501  0.00  0.00    +0.000 A 
ATOM      7  C   UNL     1       2.865   7.498  17.658  0.00  0.00    +0.000 C 
ATOM      8  C   UNL     1       1.799   8.500  18.110  0.00  0.00    +0.000 C 
ATOM      9  C   UNL     1       1.877   8.697  19.633  0.00  0.00    +0.000 C 
ATOM     10  C   UNL     1       1.546   7.383  20.333  0.00  0.00    +0.000 C 
ENDROOT
BRANCH   8  11
ATOM     11  O   UNL     1       1.972   9.741  17.422  0.00  0.00    +0.000 OA
ATOM     12  H   UNL     1       2.351  10.382  18.051  0.00  0.00    +0.000 HD
ENDBRANCH   8  11
BRANCH   9  13
ATOM     13  O   UNL     1       0.976   9.715  20.077  0.00  0.00    +0.000 OA
ATOM     14  H   UNL     1       0.560  10.113  19.291  0.00  0.00    +0.000 HD
ENDBRANCH   9  13
BRANCH   1  15
ATOM     15  O   UNL     1       4.282   5.250  16.842  0.00  0.00    +0.000 OA
BRANCH  15  16
ATOM     16  C   UNL     1       4.815   4.054  16.254  0.00  0.00    +0.000 C 
BRANCH  16  17
ATOM     17  C   UNL     1       5.859   4.428  15.194  0.00  0.00    +0.000 C 
BRANCH  17  18
ATOM     18  O   UNL     1       6.144   3.292  14.364  0.00  0.00    +0.000 OA
ATOM     19  H   UNL     1       6.896   2.833  14.782  0.00  0.00    +0.000 HD
ENDBRANCH  17  18
BRANCH  17  20
ATOM     20  C   UNL     1       7.157   4.929  15.854  0.00  0.00    +0.000 C 
BRANCH  20  21
ATOM     21  N   UNL     1       7.229   4.482  17.251  0.00  0.00    +0.000 NA
ATOM     22  H   UNL     1       6.305   4.129  17.517  0.00  0.00    +0.000 HD
BRANCH  21  24
ATOM     23  C   UNL     1       7.452   6.891  17.489  0.00  0.00    +0.000 C 
ATOM     24  C   UNL     1       7.657   5.539  18.173  0.00  0.00    +0.000 C 
ATOM     25  C   UNL     1       6.867   5.503  19.483  0.00  0.00    +0.000 C 
ENDBRANCH  21  24
ENDBRANCH  20  21
ENDBRANCH  17  20
ENDBRANCH  16  17
ENDBRANCH  15  16
ENDBRANCH   1  15
TORSDOF 9
ENDMDL
MODEL 8
REMARK VINA RESULT:      -6.8      1.169      1.395
REMARK  Name = 
REMARK  11 active torsions:
REMARK  status: ('A' for Active; 'I' for Inactive)
REMARK    1  A    between atoms: C_1  and  C_2
REMARK    2  A    between atoms: C_2  and  C_3
REMARK    3  A    between atoms: C_2  and  N_4
REMARK    4  A    between atoms: N_4  and  C_5
REMARK    5  A    between atoms: C_5  and  C_6
REMARK    6  A    between atoms: C_6  and  O_7
REMARK    7  A    between atoms: C_6  and  C_8
REMARK    8  A    between atoms: C_8  and  O_9
REMARK    9  A    between atoms: O_9  and  C_10
REMARK   10  A    between atoms: C_17  and  O_18
REMARK   11  A    between atoms: C_19  and  O_20
REMARK                            x       y       z     vdW  Elec       q    Type
REMARK                         _______ _______ _______ _____ _____    ______ ____
ROOT
ATOM      1  C   UNL     1       4.027   6.010  17.440  0.00  0.00    +0.000 A 
ATOM      2  C   UNL     1       3.704   7.363  17.307  0.00  0.00    +0.000 A 
ATOM      3  C   UNL     1       2.816   7.970  18.193  0.00  0.00    +0.000 A 
ATOM      4  C   UNL     1       2.227   7.227  19.208  0.00  0.00    +0.000 A 
ATOM      5  C   UNL     1       2.528   5.867  19.359  0.00  0.00    +0.000 A 
ATOM      6  C   UNL     1       3.465   5.259  18.495  0.00  0.00    +0.000 A 
ATOM      7  C   UNL     1       3.832   3.799  18.664  0.00  0.00    +0.000 C 
ATOM      8  C   UNL     1       3.419   3.213  20.017  0.00  0.00    +0.000 C 
ATOM      9  C   UNL     1       1.964   3.595  20.332  0.00  0.00    +0.000 C 
ATOM     10  C   UNL     1       1.856   5.110  20.477  0.00  0.00    +0.000 C 
ENDROOT
BRANCH   8  11
ATOM     11  O   UNL     1       3.586   1.793  20.005  0.00  0.00    +0.000 OA
ATOM     12  H   UNL     1       3.602   1.501  19.075  0.00  0.00    +0.000 HD
ENDBRANCH   8  11
BRANCH   9  13
ATOM     13  O   UNL     1       1.504   2.967  21.530  0.00  0.00    +0.000 OA
ATOM     14  H   UNL     1       1.268   2.046  21.317  0.00  0.00    +0.000 HD
ENDBRANCH   9  13
BRANCH   1  15
ATOM     15  O   UNL     1       4.871   5.335  16.593  0.00  0.00    +0.000 OA
BRANCH  15  16
ATOM     16  C   UNL     1       6.262   5.685  16.650  0.00  0.00    +0.000 C 
BRANCH  16  17
ATOM     17  C   UNL     1       7.062   4.748  15.735  0.00  0.00    +0.000 C 
BRANCH  17  18
ATOM     18  O   UNL     1       7.746   5.510  14.730  0.00  0.00    +0.000 OA
ATOM     19  H   UNL     1       7.815   6.418  15.080  0.00  0.00    +0.000 HD
ENDBRANCH  17  18
BRANCH  17  20
ATOM     20  C   UNL     1       6.138   3.714  15.065  0.00  0.00    +0.000 C 
BRANCH  20  21
ATOM     21  N   UNL     1       5.612   4.238  13.799  0.00  0.00    +0.000 NA
ATOM     22  H   UNL     1       4.607   4.399  13.917  0.00  0.00    +0.000 HD
BRANCH  21  24
ATOM     23  C   UNL     1       4.596   3.314  11.792  0.00  0.00    +0.000 C 
ATOM     24  C   UNL     1       5.856   3.346  12.660  0.00  0.00    +0.000 C 
ATOM     25  C   UNL     1       7.044   3.813  11.818  0.00  0.00    +0.000 C 
ENDBRANCH  21  24
ENDBRANCH  20  21
ENDBRANCH  17  20
ENDBRANCH  16  17
ENDBRANCH  15  16
ENDBRANCH   1  15
TORSDOF 9
ENDMDL
MODEL 9
REMARK VINA RESULT:      -6.8      1.386      1.476
REMARK  Name = 
REMARK  11 active torsions:
REMARK  status: ('A' for Active; 'I' for Inactive)
REMARK    1  A    between atoms: C_1  and  C_2
REMARK    2  A    between atoms: C_2  and  C_3
REMARK    3  A    between atoms: C_2  and  N_4
REMARK    4  A    between atoms: N_4  and  C_5
REMARK    5  A    between atoms: C_5  and  C_6
REMARK    6  A    between atoms: C_6  and  O_7
REMARK    7  A    between atoms: C_6  and  C_8
REMARK    8  A    between atoms: C_8  and  O_9
REMARK    9  A    between atoms: O_9  and  C_10
REMARK   10  A    between atoms: C_17  and  O_18
REMARK   11  A    between atoms: C_19  and  O_20
REMARK                            x       y       z     vdW  Elec       q    Type
REMARK                         _______ _______ _______ _____ _____    ______ ____
ROOT
ATOM      1  C   UNL     1       3.719   5.817  17.490  0.00  0.00    +0.000 A 
ATOM      2  C   UNL     1       3.219   7.121  17.546  0.00  0.00    +0.000 A 
ATOM      3  C   UNL     1       2.560   7.578  18.686  0.00  0.00    +0.000 A 
ATOM      4  C   UNL     1       2.378   6.731  19.772  0.00  0.00    +0.000 A 
ATOM      5  C   UNL     1       2.863   5.418  19.739  0.00  0.00    +0.000 A 
ATOM      6  C   UNL     1       3.576   4.966  18.606  0.00  0.00    +0.000 A 
ATOM      7  C   UNL     1       4.141   3.561  18.565  0.00  0.00    +0.000 C 
ATOM      8  C   UNL     1       4.206   2.882  19.935  0.00  0.00    +0.000 C 
ATOM      9  C   UNL     1       2.869   3.061  20.673  0.00  0.00    +0.000 C 
ATOM     10  C   UNL     1       2.634   4.544  20.946  0.00  0.00    +0.000 C 
ENDROOT
BRANCH   8  11
ATOM     11  O   UNL     1       4.525   1.497  19.779  0.00  0.00    +0.000 OA
ATOM     12  H   UNL     1       4.916   1.184  20.615  0.00  0.00    +0.000 HD
ENDBRANCH   8  11
BRANCH   9  13
ATOM     13  O   UNL     1       2.849   2.339  21.907  0.00  0.00    +0.000 OA
ATOM     14  H   UNL     1       3.324   2.868  22.573  0.00  0.00    +0.000 HD
ENDBRANCH   9  13
BRANCH   1  15
ATOM     15  O   UNL     1       4.355   5.286  16.395  0.00  0.00    +0.000 OA
BRANCH  15  16
ATOM     16  C   UNL     1       5.716   5.689  16.177  0.00  0.00    +0.000 C 
BRANCH  16  17
ATOM     17  C   UNL     1       6.498   4.526  15.553  0.00  0.00    +0.000 C 
BRANCH  17  18
ATOM     18  O   UNL     1       7.860   4.552  16.007  0.00  0.00    +0.000 OA
ATOM     19  H   UNL     1       8.191   3.639  15.922  0.00  0.00    +0.000 HD
ENDBRANCH  17  18
BRANCH  17  20
ATOM     20  C   UNL     1       6.460   4.600  14.016  0.00  0.00    +0.000 C 
BRANCH  20  21
ATOM     21  N   UNL     1       6.521   3.254  13.434  0.00  0.00    +0.000 NA
ATOM     22  H   UNL     1       7.490   2.926  13.498  0.00  0.00    +0.000 HD
BRANCH  21  24
ATOM     23  C   UNL     1       6.304   1.797  11.500  0.00  0.00    +0.000 C 
ATOM     24  C   UNL     1       6.057   3.205  12.043  0.00  0.00    +0.000 C 
ATOM     25  C   UNL     1       4.570   3.544  11.929  0.00  0.00    +0.000 C 
ENDBRANCH  21  24
ENDBRANCH  20  21
ENDBRANCH  17  20
ENDBRANCH  16  17
ENDBRANCH  15  16
ENDBRANCH   1  15
TORSDOF 9
ENDMDL
