MODEL 1
REMARK VINA RESULT:      -5.4      0.000      0.000
REMARK  Name = 
REMARK  27 active torsions:
REMARK  status: ('A' for Active; 'I' for Inactive)
REMARK    1  A    between atoms: C_1  and  C_2
REMARK    2  A    between atoms: C_2  and  C_3
REMARK    3  A    between atoms: C_3  and  C_4
REMARK    4  A    between atoms: C_4  and  C_5
REMARK    5  A    between atoms: C_5  and  C_6
REMARK    6  A    between atoms: C_6  and  C_7
REMARK    7  A    between atoms: C_7  and  C_8
REMARK    8  A    between atoms: C_8  and  C_9
REMARK    9  A    between atoms: C_9  and  C_10
REMARK   10  A    between atoms: C_10  and  C_11
REMARK   11  A    between atoms: C_11  and  C_12
REMARK   12  A    between atoms: C_12  and  N_13
REMARK   13  A    between atoms: N_13  and  C_14
REMARK   14  A    between atoms: N_13  and  C_15
REMARK   15  A    between atoms: N_13  and  C_16
REMARK   16  A    between atoms: C_16  and  C_17
REMARK   17  A    between atoms: C_17  and  N_18
REMARK   18  A    between atoms: N_18  and  C_19
REMARK   19  A    between atoms: N_18  and  C_20
REMARK   20  A    between atoms: C_20  and  C_21
REMARK   21  A    between atoms: C_21  and  N_22
REMARK   22  A    between atoms: N_22  and  C_23
REMARK   23  A    between atoms: N_22  and  C_24
REMARK   24  A    between atoms: C_24  and  C_25
REMARK   25  A    between atoms: C_25  and  N_26
REMARK   26  A    between atoms: N_26  and  C_27
REMARK   27  A    between atoms: N_26  and  C_28
REMARK                            x       y       z     vdW  Elec       q    Type
REMARK                         _______ _______ _______ _____ _____    ______ ____
ROOT
ATOM      1  N   UNL     1       2.373   3.635  20.274  0.00  0.00    +0.000 N 
ATOM      2  C   UNL     1       0.966   3.615  19.718  0.00  0.00    +0.000 C 
ATOM      3  C   UNL     1       2.345   2.868  21.592  0.00  0.00    +0.000 C 
ENDROOT
BRANCH   1   4
ATOM      4  C   UNL     1       3.369   3.015  19.293  0.00  0.00    +0.000 C 
BRANCH   4   5
ATOM      5  C   UNL     1       2.792   2.829  17.903  0.00  0.00    +0.000 C 
BRANCH   5   6
ATOM      6  C   UNL     1       2.898   4.111  17.098  0.00  0.00    +0.000 C 
BRANCH   6   7
ATOM      7  C   UNL     1       4.363   4.497  17.028  0.00  0.00    +0.000 C 
BRANCH   7   8
ATOM      8  C   UNL     1       5.091   3.658  16.001  0.00  0.00    +0.000 C 
BRANCH   8   9
ATOM      9  C   UNL     1       6.498   4.200  15.822  0.00  0.00    +0.000 C 
BRANCH   9  10
ATOM     10  C   UNL     1       6.695   4.652  14.389  0.00  0.00    +0.000 C 
BRANCH  10  11
ATOM     11  C   UNL     1       5.667   3.993  13.484  0.00  0.00    +0.000 C 
BRANCH  11  12
ATOM     12  C   UNL     1       6.351   3.427  12.249  0.00  0.00    +0.000 C 
BRANCH  12  13
ATOM     13  C   UNL     1       5.595   2.210  11.733  0.00  0.00    +0.000 C 
BRANCH  13  15
ATOM     14  C   UNL     1       6.179  -0.187  11.305  0.00  0.00    +0.000 C 
ATOM     15  C   UNL     1       6.539   1.258  11.011  0.00  0.00    +0.000 C 
ENDBRANCH  13  15
ENDBRANCH  12  13
ENDBRANCH  11  12
ENDBRANCH  10  11
ENDBRANCH   9  10
ENDBRANCH   8   9
ENDBRANCH   7   8
ENDBRANCH   6   7
ENDBRANCH   5   6
ENDBRANCH   4   5
ENDBRANCH   1   4
BRANCH   1  16
ATOM     16  C   UNL     1       2.830   5.110  20.458  0.00  0.00    +0.000 C 
BRANCH  16  17
ATOM     17  C   UNL     1       1.713   6.172  20.582  0.00  0.00    +0.000 C 
BRANCH  17  18
ATOM     18  N   UNL     1       2.086   7.554  20.229  0.00  0.00    +0.000 NA
ATOM     19  C   UNL     1       2.370   7.704  18.799  0.00  0.00    +0.000 C 
BRANCH  18  20
ATOM     20  C   UNL     1       1.034   8.524  20.623  0.00  0.00    +0.000 C 
BRANCH  20  21
ATOM     21  C   UNL     1       0.651   9.607  19.570  0.00  0.00    +0.000 C 
BRANCH  21  22
ATOM     22  N   UNL     1      -0.026  10.821  20.089  0.00  0.00    +0.000 NA
ATOM     23  C   UNL     1       0.956  11.721  20.708  0.00  0.00    +0.000 C 
BRANCH  22  24
ATOM     24  C   UNL     1      -0.724  11.539  18.994  0.00  0.00    +0.000 C 
BRANCH  24  25
ATOM     25  C   UNL     1      -1.389  10.649  17.902  0.00  0.00    +0.000 C 
BRANCH  25  26
ATOM     26  N   UNL     1      -2.865  10.709  17.812  0.00  0.00    +0.000 NA
ATOM     27  C   UNL     1      -3.297  11.474  16.638  0.00  0.00    +0.000 C 
ATOM     28  C   UNL     1      -3.423   9.358  17.773  0.00  0.00    +0.000 C 
ENDBRANCH  25  26
ENDBRANCH  24  25
ENDBRANCH  22  24
ENDBRANCH  21  22
ENDBRANCH  20  21
ENDBRANCH  18  20
ENDBRANCH  17  18
ENDBRANCH  16  17
ENDBRANCH   1  16
TORSDOF 20
ENDMDL
MODEL 2
REMARK VINA RESULT:      -5.4      1.544      2.370
REMARK  Name = 
REMARK  27 active torsions:
REMARK  status: ('A' for Active; 'I' for Inactive)
REMARK    1  A    between atoms: C_1  and  C_2
REMARK    2  A    between atoms: C_2  and  C_3
REMARK    3  A    between atoms: C_3  and  C_4
REMARK    4  A    between atoms: C_4  and  C_5
REMARK    5  A    between atoms: C_5  and  C_6
REMARK    6  A    between atoms: C_6  and  C_7
REMARK    7  A    between atoms: C_7  and  C_8
REMARK    8  A    between atoms: C_8  and  C_9
REMARK    9  A    between atoms: C_9  and  C_10
REMARK   10  A    between atoms: C_10  and  C_11
REMARK   11  A    between atoms: C_11  and  C_12
REMARK   12  A    between atoms: C_12  and  N_13
REMARK   13  A    between atoms: N_13  and  C_14
REMARK   14  A    between atoms: N_13  and  C_15
REMARK   15  A    between atoms: N_13  and  C_16
REMARK   16  A    between atoms: C_16  and  C_17
REMARK   17  A    between atoms: C_17  and  N_18
REMARK   18  A    between atoms: N_18  and  C_19
REMARK   19  A    between atoms: N_18  and  C_20
REMARK   20  A    between atoms: C_20  and  C_21
REMARK   21  A    between atoms: C_21  and  N_22
REMARK   22  A    between atoms: N_22  and  C_23
REMARK   23  A    between atoms: N_22  and  C_24
REMARK   24  A    between atoms: C_24  and  C_25
REMARK   25  A    between atoms: C_25  and  N_26
REMARK   26  A    between atoms: N_26  and  C_27
REMARK   27  A    between atoms: N_26  and  C_28
REMARK                            x       y       z     vdW  Elec       q    Type
REMARK                         _______ _______ _______ _____ _____    ______ ____
ROOT
ATOM      1  N   UNL     1       2.716   5.263  18.544  0.00  0.00    +0.000 N 
ATOM      2  C   UNL     1       1.593   4.393  18.024  0.00  0.00    +0.000 C 
ATOM      3  C   UNL     1       2.882   4.946  20.026  0.00  0.00    +0.000 C 
ENDROOT
BRANCH   1   4
ATOM      4  C   UNL     1       4.015   5.013  17.775  0.00  0.00    +0.000 C 
BRANCH   4   5
ATOM      5  C   UNL     1       4.776   6.288  17.469  0.00  0.00    +0.000 C 
BRANCH   5   6
ATOM      6  C   UNL     1       6.224   6.171  17.908  0.00  0.00    +0.000 C 
BRANCH   6   7
ATOM      7  C   UNL     1       6.675   4.745  17.648  0.00  0.00    +0.000 C 
BRANCH   7   8
ATOM      8  C   UNL     1       7.499   4.666  16.382  0.00  0.00    +0.000 C 
BRANCH   8   9
ATOM      9  C   UNL     1       6.623   5.020  15.194  0.00  0.00    +0.000 C 
BRANCH   9  10
ATOM     10  C   UNL     1       6.274   3.764  14.421  0.00  0.00    +0.000 C 
BRANCH  10  11
ATOM     11  C   UNL     1       6.197   4.066  12.933  0.00  0.00    +0.000 C 
BRANCH  11  12
ATOM     12  C   UNL     1       6.459   2.800  12.132  0.00  0.00    +0.000 C 
BRANCH  12  13
ATOM     13  C   UNL     1       5.196   2.361  11.404  0.00  0.00    +0.000 C 
BRANCH  13  15
ATOM     14  C   UNL     1       2.973   3.129  10.542  0.00  0.00    +0.000 C 
ATOM     15  C   UNL     1       4.338   3.567  11.043  0.00  0.00    +0.000 C 
ENDBRANCH  13  15
ENDBRANCH  12  13
ENDBRANCH  11  12
ENDBRANCH  10  11
ENDBRANCH   9  10
ENDBRANCH   8   9
ENDBRANCH   7   8
ENDBRANCH   6   7
ENDBRANCH   5   6
ENDBRANCH   4   5
ENDBRANCH   1   4
BRANCH   1  16
ATOM     16  C   UNL     1       2.364   6.758  18.294  0.00  0.00    +0.000 C 
BRANCH  16  17
ATOM     17  C   UNL     1       1.868   7.567  19.515  0.00  0.00    +0.000 C 
BRANCH  17  18
ATOM     18  N   UNL     1       1.818   9.030  19.351  0.00  0.00    +0.000 NA
ATOM     19  C   UNL     1       1.928   9.434  17.946  0.00  0.00    +0.000 C 
BRANCH  18  20
ATOM     20  C   UNL     1       0.578   9.606  19.929  0.00  0.00    +0.000 C 
BRANCH  20  21
ATOM     21  C   UNL     1       0.182  11.036  19.454  0.00  0.00    +0.000 C 
BRANCH  21  22
ATOM     22  N   UNL     1      -1.217  11.216  18.997  0.00  0.00    +0.000 NA
ATOM     23  C   UNL     1      -1.451  12.618  18.625  0.00  0.00    +0.000 C 
BRANCH  22  24
ATOM     24  C   UNL     1      -1.503  10.346  17.830  0.00  0.00    +0.000 C 
BRANCH  24  25
ATOM     25  C   UNL     1      -2.968   9.833  17.696  0.00  0.00    +0.000 C 
BRANCH  25  26
ATOM     26  N   UNL     1      -3.771  10.412  16.596  0.00  0.00    +0.000 NA
ATOM     27  C   UNL     1      -4.532  11.580  17.050  0.00  0.00    +0.000 C 
ATOM     28  C   UNL     1      -2.904  10.772  15.475  0.00  0.00    +0.000 C 
ENDBRANCH  25  26
ENDBRANCH  24  25
ENDBRANCH  22  24
ENDBRANCH  21  22
ENDBRANCH  20  21
ENDBRANCH  18  20
ENDBRANCH  17  18
ENDBRANCH  16  17
ENDBRANCH   1  16
TORSDOF 20
ENDMDL
MODEL 3
REMARK VINA RESULT:      -5.3      3.601      6.440
REMARK  Name = 
REMARK  27 active torsions:
REMARK  status: ('A' for Active; 'I' for Inactive)
REMARK    1  A    between atoms: C_1  and  C_2
REMARK    2  A    between atoms: C_2  and  C_3
REMARK    3  A    between atoms: C_3  and  C_4
REMARK    4  A    between atoms: C_4  and  C_5
REMARK    5  A    between atoms: C_5  and  C_6
REMARK    6  A    between atoms: C_6  and  C_7
REMARK    7  A    between atoms: C_7  and  C_8
REMARK    8  A    between atoms: C_8  and  C_9
REMARK    9  A    between atoms: C_9  and  C_10
REMARK   10  A    between atoms: C_10  and  C_11
REMARK   11  A    between atoms: C_11  and  C_12
REMARK   12  A    between atoms: C_12  and  N_13
REMARK   13  A    between atoms: N_13  and  C_14
REMARK   14  A    between atoms: N_13  and  C_15
REMARK   15  A    between atoms: N_13  and  C_16
REMARK   16  A    between atoms: C_16  and  C_17
REMARK   17  A    between atoms: C_17  and  N_18
REMARK   18  A    between atoms: N_18  and  C_19
REMARK   19  A    between atoms: N_18  and  C_20
REMARK   20  A    between atoms: C_20  and  C_21
REMARK   21  A    between atoms: C_21  and  N_22
REMARK   22  A    between atoms: N_22  and  C_23
REMARK   23  A    between atoms: N_22  and  C_24
REMARK   24  A    between atoms: C_24  and  C_25
REMARK   25  A    between atoms: C_25  and  N_26
REMARK   26  A    between atoms: N_26  and  C_27
REMARK   27  A    between atoms: N_26  and  C_28
REMARK                            x       y       z     vdW  Elec       q    Type
REMARK                         _______ _______ _______ _____ _____    ______ ____
ROOT
ATOM      1  N   UNL     1       0.590   9.267  21.198  0.00  0.00    +0.000 N 
ATOM      2  C   UNL     1      -0.255   8.017  21.300  0.00  0.00    +0.000 C 
ATOM      3  C   UNL     1       1.417   9.357  22.476  0.00  0.00    +0.000 C 
ENDROOT
BRANCH   1   4
ATOM      4  C   UNL     1       1.487   9.232  19.959  0.00  0.00    +0.000 C 
BRANCH   4   5
ATOM      5  C   UNL     1       1.918   7.829  19.578  0.00  0.00    +0.000 C 
BRANCH   5   6
ATOM      6  C   UNL     1       2.069   7.701  18.074  0.00  0.00    +0.000 C 
BRANCH   6   7
ATOM      7  C   UNL     1       3.515   7.349  17.780  0.00  0.00    +0.000 C 
BRANCH   7   8
ATOM      8  C   UNL     1       3.831   5.943  18.241  0.00  0.00    +0.000 C 
BRANCH   8   9
ATOM      9  C   UNL     1       4.339   5.135  17.061  0.00  0.00    +0.000 C 
BRANCH   9  10
ATOM     10  C   UNL     1       3.669   3.775  17.043  0.00  0.00    +0.000 C 
BRANCH  10  11
ATOM     11  C   UNL     1       2.276   3.868  17.646  0.00  0.00    +0.000 C 
BRANCH  11  12
ATOM     12  C   UNL     1       2.074   2.753  18.660  0.00  0.00    +0.000 C 
BRANCH  12  13
ATOM     13  C   UNL     1       0.859   3.040  19.530  0.00  0.00    +0.000 C 
BRANCH  13  15
ATOM     14  C   UNL     1       2.155   4.248  21.301  0.00  0.00    +0.000 C 
ATOM     15  C   UNL     1       1.247   3.068  21.003  0.00  0.00    +0.000 C 
ENDBRANCH  13  15
ENDBRANCH  12  13
ENDBRANCH  11  12
ENDBRANCH  10  11
ENDBRANCH   9  10
ENDBRANCH   8   9
ENDBRANCH   7   8
ENDBRANCH   6   7
ENDBRANCH   5   6
ENDBRANCH   4   5
ENDBRANCH   1   4
BRANCH   1  16
ATOM     16  C   UNL     1      -0.339  10.500  21.006  0.00  0.00    +0.000 C 
BRANCH  16  17
ATOM     17  C   UNL     1       0.100  11.813  21.695  0.00  0.00    +0.000 C 
BRANCH  17  18
ATOM     18  N   UNL     1      -0.739  12.273  22.816  0.00  0.00    +0.000 NA
ATOM     19  C   UNL     1      -0.774  13.734  22.918  0.00  0.00    +0.000 C 
BRANCH  18  20
ATOM     20  C   UNL     1      -2.127  11.757  22.710  0.00  0.00    +0.000 C 
BRANCH  20  21
ATOM     21  C   UNL     1      -3.152  12.288  23.757  0.00  0.00    +0.000 C 
BRANCH  21  22
ATOM     22  N   UNL     1      -4.404  12.872  23.216  0.00  0.00    +0.000 NA
ATOM     23  C   UNL     1      -4.445  14.315  23.486  0.00  0.00    +0.000 C 
BRANCH  22  24
ATOM     24  C   UNL     1      -4.497  12.646  21.752  0.00  0.00    +0.000 C 
BRANCH  24  25
ATOM     25  C   UNL     1      -5.932  12.645  21.146  0.00  0.00    +0.000 C 
BRANCH  25  26
ATOM     26  N   UNL     1      -6.861  11.610  21.654  0.00  0.00    +0.000 NA
ATOM     27  C   UNL     1      -7.915  12.202  22.484  0.00  0.00    +0.000 C 
ATOM     28  C   UNL     1      -7.447  10.868  20.539  0.00  0.00    +0.000 C 
ENDBRANCH  25  26
ENDBRANCH  24  25
ENDBRANCH  22  24
ENDBRANCH  21  22
ENDBRANCH  20  21
ENDBRANCH  18  20
ENDBRANCH  17  18
ENDBRANCH  16  17
ENDBRANCH   1  16
TORSDOF 20
ENDMDL
MODEL 4
REMARK VINA RESULT:      -5.2      5.524      7.852
REMARK  Name = 
REMARK  27 active torsions:
REMARK  status: ('A' for Active; 'I' for Inactive)
REMARK    1  A    between atoms: C_1  and  C_2
REMARK    2  A    between atoms: C_2  and  C_3
REMARK    3  A    between atoms: C_3  and  C_4
REMARK    4  A    between atoms: C_4  and  C_5
REMARK    5  A    between atoms: C_5  and  C_6
REMARK    6  A    between atoms: C_6  and  C_7
REMARK    7  A    between atoms: C_7  and  C_8
REMARK    8  A    between atoms: C_8  and  C_9
REMARK    9  A    between atoms: C_9  and  C_10
REMARK   10  A    between atoms: C_10  and  C_11
REMARK   11  A    between atoms: C_11  and  C_12
REMARK   12  A    between atoms: C_12  and  N_13
REMARK   13  A    between atoms: N_13  and  C_14
REMARK   14  A    between atoms: N_13  and  C_15
REMARK   15  A    between atoms: N_13  and  C_16
REMARK   16  A    between atoms: C_16  and  C_17
REMARK   17  A    between atoms: C_17  and  N_18
REMARK   18  A    between atoms: N_18  and  C_19
REMARK   19  A    between atoms: N_18  and  C_20
REMARK   20  A    between atoms: C_20  and  C_21
REMARK   21  A    between atoms: C_21  and  N_22
REMARK   22  A    between atoms: N_22  and  C_23
REMARK   23  A    between atoms: N_22  and  C_24
REMARK   24  A    between atoms: C_24  and  C_25
REMARK   25  A    between atoms: C_25  and  N_26
REMARK   26  A    between atoms: N_26  and  C_27
REMARK   27  A    between atoms: N_26  and  C_28
REMARK                            x       y       z     vdW  Elec       q    Type
REMARK                         _______ _______ _______ _____ _____    ______ ____
ROOT
ATOM      1  N   UNL     1       6.179   5.204  17.712  0.00  0.00    +0.000 N 
ATOM      2  C   UNL     1       5.362   4.824  16.496  0.00  0.00    +0.000 C 
ATOM      3  C   UNL     1       7.546   4.546  17.558  0.00  0.00    +0.000 C 
ENDROOT
BRANCH   1   4
ATOM      4  C   UNL     1       6.306   6.722  17.845  0.00  0.00    +0.000 C 
BRANCH   4   5
ATOM      5  C   UNL     1       7.632   7.252  17.338  0.00  0.00    +0.000 C 
BRANCH   5   6
ATOM      6  C   UNL     1       8.274   8.170  18.362  0.00  0.00    +0.000 C 
BRANCH   6   7
ATOM      7  C   UNL     1       8.123   9.596  17.868  0.00  0.00    +0.000 C 
BRANCH   7   8
ATOM      8  C   UNL     1       9.321  10.432  18.263  0.00  0.00    +0.000 C 
BRANCH   8   9
ATOM      9  C   UNL     1       9.313  10.631  19.768  0.00  0.00    +0.000 C 
BRANCH   9  10
ATOM     10  C   UNL     1      10.465  11.530  20.172  0.00  0.00    +0.000 C 
BRANCH  10  11
ATOM     11  C   UNL     1      11.532  11.536  19.089  0.00  0.00    +0.000 C 
BRANCH  11  12
ATOM     12  C   UNL     1      12.026  12.956  18.856  0.00  0.00    +0.000 C 
BRANCH  12  13
ATOM     13  C   UNL     1      11.058  13.714  17.957  0.00  0.00    +0.000 C 
BRANCH  13  15
ATOM     14  C   UNL     1       9.736  15.830  17.745  0.00  0.00    +0.000 C 
ATOM     15  C   UNL     1      10.440  14.889  18.705  0.00  0.00    +0.000 C 
ENDBRANCH  13  15
ENDBRANCH  12  13
ENDBRANCH  11  12
ENDBRANCH  10  11
ENDBRANCH   9  10
ENDBRANCH   8   9
ENDBRANCH   7   8
ENDBRANCH   6   7
ENDBRANCH   5   6
ENDBRANCH   4   5
ENDBRANCH   1   4
BRANCH   1  16
ATOM     16  C   UNL     1       5.436   4.732  18.996  0.00  0.00    +0.000 C 
BRANCH  16  17
ATOM     17  C   UNL     1       4.124   3.942  18.787  0.00  0.00    +0.000 C 
BRANCH  17  18
ATOM     18  N   UNL     1       2.876   4.648  19.128  0.00  0.00    +0.000 NA
ATOM     19  C   UNL     1       1.985   3.829  19.955  0.00  0.00    +0.000 C 
BRANCH  18  20
ATOM     20  C   UNL     1       3.145   5.932  19.823  0.00  0.00    +0.000 C 
BRANCH  20  21
ATOM     21  C   UNL     1       2.144   7.095  19.554  0.00  0.00    +0.000 C 
BRANCH  21  22
ATOM     22  N   UNL     1       2.603   8.159  18.627  0.00  0.00    +0.000 NA
ATOM     23  C   UNL     1       2.891   7.587  17.305  0.00  0.00    +0.000 C 
BRANCH  22  24
ATOM     24  C   UNL     1       1.570   9.214  18.489  0.00  0.00    +0.000 C 
BRANCH  24  25
ATOM     25  C   UNL     1       0.765   9.563  19.776  0.00  0.00    +0.000 C 
BRANCH  25  26
ATOM     26  N   UNL     1      -0.092  10.767  19.712  0.00  0.00    +0.000 NA
ATOM     27  C   UNL     1       0.652  11.924  19.201  0.00  0.00    +0.000 C 
ATOM     28  C   UNL     1      -1.265  10.508  18.878  0.00  0.00    +0.000 C 
ENDBRANCH  25  26
ENDBRANCH  24  25
ENDBRANCH  22  24
ENDBRANCH  21  22
ENDBRANCH  20  21
ENDBRANCH  18  20
ENDBRANCH  17  18
ENDBRANCH  16  17
ENDBRANCH   1  16
TORSDOF 20
ENDMDL
MODEL 5
REMARK VINA RESULT:      -5.2      5.208      8.232
REMARK  Name = 
REMARK  27 active torsions:
REMARK  status: ('A' for Active; 'I' for Inactive)
REMARK    1  A    between atoms: C_1  and  C_2
REMARK    2  A    between atoms: C_2  and  C_3
REMARK    3  A    between atoms: C_3  and  C_4
REMARK    4  A    between atoms: C_4  and  C_5
REMARK    5  A    between atoms: C_5  and  C_6
REMARK    6  A    between atoms: C_6  and  C_7
REMARK    7  A    between atoms: C_7  and  C_8
REMARK    8  A    between atoms: C_8  and  C_9
REMARK    9  A    between atoms: C_9  and  C_10
REMARK   10  A    between atoms: C_10  and  C_11
REMARK   11  A    between atoms: C_11  and  C_12
REMARK   12  A    between atoms: C_12  and  N_13
REMARK   13  A    between atoms: N_13  and  C_14
REMARK   14  A    between atoms: N_13  and  C_15
REMARK   15  A    between atoms: N_13  and  C_16
REMARK   16  A    between atoms: C_16  and  C_17
REMARK   17  A    between atoms: C_17  and  N_18
REMARK   18  A    between atoms: N_18  and  C_19
REMARK   19  A    between atoms: N_18  and  C_20
REMARK   20  A    between atoms: C_20  and  C_21
REMARK   21  A    between atoms: C_21  and  N_22
REMARK   22  A    between atoms: N_22  and  C_23
REMARK   23  A    between atoms: N_22  and  C_24
REMARK   24  A    between atoms: C_24  and  C_25
REMARK   25  A    between atoms: C_25  and  N_26
REMARK   26  A    between atoms: N_26  and  C_27
REMARK   27  A    between atoms: N_26  and  C_28
REMARK                            x       y       z     vdW  Elec       q    Type
REMARK                         _______ _______ _______ _____ _____    ______ ____
ROOT
ATOM      1  N   UNL     1       6.415   5.029  17.648  0.00  0.00    +0.000 N 
ATOM      2  C   UNL     1       7.825   4.536  17.890  0.00  0.00    +0.000 C 
ATOM      3  C   UNL     1       5.799   5.319  19.012  0.00  0.00    +0.000 C 
ENDROOT
BRANCH   1   4
ATOM      4  C   UNL     1       6.406   6.273  16.759  0.00  0.00    +0.000 C 
BRANCH   4   5
ATOM      5  C   UNL     1       6.578   7.561  17.541  0.00  0.00    +0.000 C 
BRANCH   5   6
ATOM      6  C   UNL     1       8.033   7.991  17.559  0.00  0.00    +0.000 C 
BRANCH   6   7
ATOM      7  C   UNL     1       8.076   9.470  17.896  0.00  0.00    +0.000 C 
BRANCH   7   8
ATOM      8  C   UNL     1       9.037   9.734  19.034  0.00  0.00    +0.000 C 
BRANCH   8   9
ATOM      9  C   UNL     1       9.801  11.015  18.753  0.00  0.00    +0.000 C 
BRANCH   9  10
ATOM     10  C   UNL     1      10.505  11.480  20.012  0.00  0.00    +0.000 C 
BRANCH  10  11
ATOM     11  C   UNL     1      11.042  12.890  19.824  0.00  0.00    +0.000 C 
BRANCH  11  12
ATOM     12  C   UNL     1       9.893  13.887  19.821  0.00  0.00    +0.000 C 
BRANCH  12  13
ATOM     13  C   UNL     1      10.072  14.901  18.700  0.00  0.00    +0.000 C 
BRANCH  13  15
ATOM     14  C   UNL     1       7.592  14.568  18.815  0.00  0.00    +0.000 C 
ATOM     15  C   UNL     1       8.727  15.265  18.085  0.00  0.00    +0.000 C 
ENDBRANCH  13  15
ENDBRANCH  12  13
ENDBRANCH  11  12
ENDBRANCH  10  11
ENDBRANCH   9  10
ENDBRANCH   8   9
ENDBRANCH   7   8
ENDBRANCH   6   7
ENDBRANCH   5   6
ENDBRANCH   4   5
ENDBRANCH   1   4
BRANCH   1  16
ATOM     16  C   UNL     1       5.622   3.947  16.859  0.00  0.00    +0.000 C 
BRANCH  16  17
ATOM     17  C   UNL     1       4.134   4.251  16.571  0.00  0.00    +0.000 C 
BRANCH  17  18
ATOM     18  N   UNL     1       3.158   3.272  17.082  0.00  0.00    +0.000 NA
ATOM     19  C   UNL     1       3.778   2.283  17.969  0.00  0.00    +0.000 C 
BRANCH  18  20
ATOM     20  C   UNL     1       2.039   3.934  17.796  0.00  0.00    +0.000 C 
BRANCH  20  21
ATOM     21  C   UNL     1       2.201   5.455  18.094  0.00  0.00    +0.000 C 
BRANCH  21  22
ATOM     22  N   UNL     1       1.866   5.898  19.469  0.00  0.00    +0.000 NA
ATOM     23  C   UNL     1       2.422   4.959  20.452  0.00  0.00    +0.000 C 
BRANCH  22  24
ATOM     24  C   UNL     1       2.407   7.255  19.729  0.00  0.00    +0.000 C 
BRANCH  24  25
ATOM     25  C   UNL     1       2.148   8.322  18.624  0.00  0.00    +0.000 C 
BRANCH  25  26
ATOM     26  N   UNL     1       1.355   9.506  19.025  0.00  0.00    +0.000 NA
ATOM     27  C   UNL     1       0.262   9.759  18.079  0.00  0.00    +0.000 C 
ATOM     28  C   UNL     1       0.828   9.326  20.376  0.00  0.00    +0.000 C 
ENDBRANCH  25  26
ENDBRANCH  24  25
ENDBRANCH  22  24
ENDBRANCH  21  22
ENDBRANCH  20  21
ENDBRANCH  18  20
ENDBRANCH  17  18
ENDBRANCH  16  17
ENDBRANCH   1  16
TORSDOF 20
ENDMDL
MODEL 6
REMARK VINA RESULT:      -5.2      1.480      2.107
REMARK  Name = 
REMARK  27 active torsions:
REMARK  status: ('A' for Active; 'I' for Inactive)
REMARK    1  A    between atoms: C_1  and  C_2
REMARK    2  A    between atoms: C_2  and  C_3
REMARK    3  A    between atoms: C_3  and  C_4
REMARK    4  A    between atoms: C_4  and  C_5
REMARK    5  A    between atoms: C_5  and  C_6
REMARK    6  A    between atoms: C_6  and  C_7
REMARK    7  A    between atoms: C_7  and  C_8
REMARK    8  A    between atoms: C_8  and  C_9
REMARK    9  A    between atoms: C_9  and  C_10
REMARK   10  A    between atoms: C_10  and  C_11
REMARK   11  A    between atoms: C_11  and  C_12
REMARK   12  A    between atoms: C_12  and  N_13
REMARK   13  A    between atoms: N_13  and  C_14
REMARK   14  A    between atoms: N_13  and  C_15
REMARK   15  A    between atoms: N_13  and  C_16
REMARK   16  A    between atoms: C_16  and  C_17
REMARK   17  A    between atoms: C_17  and  N_18
REMARK   18  A    between atoms: N_18  and  C_19
REMARK   19  A    between atoms: N_18  and  C_20
REMARK   20  A    between atoms: C_20  and  C_21
REMARK   21  A    between atoms: C_21  and  N_22
REMARK   22  A    between atoms: N_22  and  C_23
REMARK   23  A    between atoms: N_22  and  C_24
REMARK   24  A    between atoms: C_24  and  C_25
REMARK   25  A    between atoms: C_25  and  N_26
REMARK   26  A    between atoms: N_26  and  C_27
REMARK   27  A    between atoms: N_26  and  C_28
REMARK                            x       y       z     vdW  Elec       q    Type
REMARK                         _______ _______ _______ _____ _____    ______ ____
ROOT
ATOM      1  N   UNL     1       2.727   4.991  19.075  0.00  0.00    +0.000 N 
ATOM      2  C   UNL     1       1.610   4.459  18.205  0.00  0.00    +0.000 C 
ATOM      3  C   UNL     1       2.384   4.634  20.517  0.00  0.00    +0.000 C 
ENDROOT
BRANCH   1   4
ATOM      4  C   UNL     1       4.079   4.404  18.665  0.00  0.00    +0.000 C 
BRANCH   4   5
ATOM      5  C   UNL     1       5.247   5.050  19.385  0.00  0.00    +0.000 C 
BRANCH   5   6
ATOM      6  C   UNL     1       6.206   5.685  18.395  0.00  0.00    +0.000 C 
BRANCH   6   7
ATOM      7  C   UNL     1       6.051   4.965  17.069  0.00  0.00    +0.000 C 
BRANCH   7   8
ATOM      8  C   UNL     1       5.730   5.943  15.960  0.00  0.00    +0.000 C 
BRANCH   8   9
ATOM      9  C   UNL     1       5.601   5.186  14.651  0.00  0.00    +0.000 C 
BRANCH   9  10
ATOM     10  C   UNL     1       6.973   4.757  14.169  0.00  0.00    +0.000 C 
BRANCH  10  11
ATOM     11  C   UNL     1       6.856   4.000  12.856  0.00  0.00    +0.000 C 
BRANCH  11  12
ATOM     12  C   UNL     1       5.403   3.629  12.599  0.00  0.00    +0.000 C 
BRANCH  12  13
ATOM     13  C   UNL     1       5.319   2.398  11.708  0.00  0.00    +0.000 C 
BRANCH  13  15
ATOM     14  C   UNL     1       3.522   3.899  10.818  0.00  0.00    +0.000 C 
ATOM     15  C   UNL     1       4.169   2.529  10.717  0.00  0.00    +0.000 C 
ENDBRANCH  13  15
ENDBRANCH  12  13
ENDBRANCH  11  12
ENDBRANCH  10  11
ENDBRANCH   9  10
ENDBRANCH   8   9
ENDBRANCH   7   8
ENDBRANCH   6   7
ENDBRANCH   5   6
ENDBRANCH   4   5
ENDBRANCH   1   4
BRANCH   1  16
ATOM     16  C   UNL     1       2.856   6.527  18.860  0.00  0.00    +0.000 C 
BRANCH  16  17
ATOM     17  C   UNL     1       2.047   7.431  19.818  0.00  0.00    +0.000 C 
BRANCH  17  18
ATOM     18  N   UNL     1       1.772   8.800  19.346  0.00  0.00    +0.000 NA
ATOM     19  C   UNL     1       1.648   8.868  17.887  0.00  0.00    +0.000 C 
BRANCH  18  20
ATOM     20  C   UNL     1       0.547   9.360  19.968  0.00  0.00    +0.000 C 
BRANCH  20  21
ATOM     21  C   UNL     1       0.650  10.804  20.542  0.00  0.00    +0.000 C 
BRANCH  21  22
ATOM     22  N   UNL     1      -0.139  11.850  19.846  0.00  0.00    +0.000 NA
ATOM     23  C   UNL     1       0.656  12.446  18.764  0.00  0.00    +0.000 C 
BRANCH  22  24
ATOM     24  C   UNL     1      -1.384  11.274  19.278  0.00  0.00    +0.000 C 
BRANCH  24  25
ATOM     25  C   UNL     1      -1.656  11.573  17.773  0.00  0.00    +0.000 C 
BRANCH  25  26
ATOM     26  N   UNL     1      -2.144  10.440  16.955  0.00  0.00    +0.000 NA
ATOM     27  C   UNL     1      -3.088   9.607  17.708  0.00  0.00    +0.000 C 
ATOM     28  C   UNL     1      -2.766  10.934  15.729  0.00  0.00    +0.000 C 
ENDBRANCH  25  26
ENDBRANCH  24  25
ENDBRANCH  22  24
ENDBRANCH  21  22
ENDBRANCH  20  21
ENDBRANCH  18  20
ENDBRANCH  17  18
ENDBRANCH  16  17
ENDBRANCH   1  16
TORSDOF 20
ENDMDL
MODEL 7
REMARK VINA RESULT:      -5.2      3.162      5.860
REMARK  Name = 
REMARK  27 active torsions:
REMARK  status: ('A' for Active; 'I' for Inactive)
REMARK    1  A    between atoms: C_1  and  C_2
REMARK    2  A    between atoms: C_2  and  C_3
REMARK    3  A    between atoms: C_3  and  C_4
REMARK    4  A    between atoms: C_4  and  C_5
REMARK    5  A    between atoms: C_5  and  C_6
REMARK    6  A    between atoms: C_6  and  C_7
REMARK    7  A    between atoms: C_7  and  C_8
REMARK    8  A    between atoms: C_8  and  C_9
REMARK    9  A    between atoms: C_9  and  C_10
REMARK   10  A    between atoms: C_10  and  C_11
REMARK   11  A    between atoms: C_11  and  C_12
REMARK   12  A    between atoms: C_12  and  N_13
REMARK   13  A    between atoms: N_13  and  C_14
REMARK   14  A    between atoms: N_13  and  C_15
REMARK   15  A    between atoms: N_13  and  C_16
REMARK   16  A    between atoms: C_16  and  C_17
REMARK   17  A    between atoms: C_17  and  N_18
REMARK   18  A    between atoms: N_18  and  C_19
REMARK   19  A    between atoms: N_18  and  C_20
REMARK   20  A    between atoms: C_20  and  C_21
REMARK   21  A    between atoms: C_21  and  N_22
REMARK   22  A    between atoms: N_22  and  C_23
REMARK   23  A    between atoms: N_22  and  C_24
REMARK   24  A    between atoms: C_24  and  C_25
REMARK   25  A    between atoms: C_25  and  N_26
REMARK   26  A    between atoms: N_26  and  C_27
REMARK   27  A    between atoms: N_26  and  C_28
REMARK                            x       y       z     vdW  Elec       q    Type
REMARK                         _______ _______ _______ _____ _____    ______ ____
ROOT
ATOM      1  N   UNL     1       0.719   9.193  21.623  0.00  0.00    +0.000 N 
ATOM      2  C   UNL     1      -0.609   8.693  22.147  0.00  0.00    +0.000 C 
ATOM      3  C   UNL     1       1.592   9.504  22.834  0.00  0.00    +0.000 C 
ENDROOT
BRANCH   1   4
ATOM      4  C   UNL     1       1.383   8.160  20.712  0.00  0.00    +0.000 C 
BRANCH   4   5
ATOM      5  C   UNL     1       0.871   6.751  20.943  0.00  0.00    +0.000 C 
BRANCH   5   6
ATOM      6  C   UNL     1       1.905   5.725  20.517  0.00  0.00    +0.000 C 
BRANCH   6   7
ATOM      7  C   UNL     1       1.271   4.352  20.631  0.00  0.00    +0.000 C 
BRANCH   7   8
ATOM      8  C   UNL     1       2.211   3.380  21.310  0.00  0.00    +0.000 C 
BRANCH   8   9
ATOM      9  C   UNL     1       2.887   2.523  20.256  0.00  0.00    +0.000 C 
BRANCH   9  10
ATOM     10  C   UNL     1       1.883   2.135  19.189  0.00  0.00    +0.000 C 
BRANCH  10  11
ATOM     11  C   UNL     1       2.529   2.187  17.814  0.00  0.00    +0.000 C 
BRANCH  11  12
ATOM     12  C   UNL     1       2.552   3.620  17.305  0.00  0.00    +0.000 C 
BRANCH  12  13
ATOM     13  C   UNL     1       3.979   4.051  16.995  0.00  0.00    +0.000 C 
BRANCH  13  15
ATOM     14  C   UNL     1       5.171   5.062  18.952  0.00  0.00    +0.000 C 
ATOM     15  C   UNL     1       4.320   5.343  17.727  0.00  0.00    +0.000 C 
ENDBRANCH  13  15
ENDBRANCH  12  13
ENDBRANCH  11  12
ENDBRANCH  10  11
ENDBRANCH   9  10
ENDBRANCH   8   9
ENDBRANCH   7   8
ENDBRANCH   6   7
ENDBRANCH   5   6
ENDBRANCH   4   5
ENDBRANCH   1   4
BRANCH   1  16
ATOM     16  C   UNL     1       0.479  10.445  20.730  0.00  0.00    +0.000 C 
BRANCH  16  17
ATOM     17  C   UNL     1      -0.422  10.248  19.489  0.00  0.00    +0.000 C 
BRANCH  17  18
ATOM     18  N   UNL     1      -1.359  11.344  19.183  0.00  0.00    +0.000 NA
ATOM     19  C   UNL     1      -0.678  12.515  18.624  0.00  0.00    +0.000 C 
BRANCH  18  20
ATOM     20  C   UNL     1      -2.427  10.908  18.250  0.00  0.00    +0.000 C 
BRANCH  20  21
ATOM     21  C   UNL     1      -3.716  11.784  18.203  0.00  0.00    +0.000 C 
BRANCH  21  22
ATOM     22  N   UNL     1      -4.487  11.890  19.465  0.00  0.00    +0.000 NA
ATOM     23  C   UNL     1      -4.204  13.172  20.124  0.00  0.00    +0.000 C 
BRANCH  22  24
ATOM     24  C   UNL     1      -5.943  11.788  19.199  0.00  0.00    +0.000 C 
BRANCH  24  25
ATOM     25  C   UNL     1      -6.481  10.369  18.847  0.00  0.00    +0.000 C 
BRANCH  25  26
ATOM     26  N   UNL     1      -7.531   9.823  19.737  0.00  0.00    +0.000 NA
ATOM     27  C   UNL     1      -7.197   8.466  20.183  0.00  0.00    +0.000 C 
ATOM     28  C   UNL     1      -7.725  10.704  20.886  0.00  0.00    +0.000 C 
ENDBRANCH  25  26
ENDBRANCH  24  25
ENDBRANCH  22  24
ENDBRANCH  21  22
ENDBRANCH  20  21
ENDBRANCH  18  20
ENDBRANCH  17  18
ENDBRANCH  16  17
ENDBRANCH   1  16
TORSDOF 20
ENDMDL
MODEL 8
REMARK VINA RESULT:      -5.1      3.447      7.018
REMARK  Name = 
REMARK  27 active torsions:
REMARK  status: ('A' for Active; 'I' for Inactive)
REMARK    1  A    between atoms: C_1  and  C_2
REMARK    2  A    between atoms: C_2  and  C_3
REMARK    3  A    between atoms: C_3  and  C_4
REMARK    4  A    between atoms: C_4  and  C_5
REMARK    5  A    between atoms: C_5  and  C_6
REMARK    6  A    between atoms: C_6  and  C_7
REMARK    7  A    between atoms: C_7  and  C_8
REMARK    8  A    between atoms: C_8  and  C_9
REMARK    9  A    between atoms: C_9  and  C_10
REMARK   10  A    between atoms: C_10  and  C_11
REMARK   11  A    between atoms: C_11  and  C_12
REMARK   12  A    between atoms: C_12  and  N_13
REMARK   13  A    between atoms: N_13  and  C_14
REMARK   14  A    between atoms: N_13  and  C_15
REMARK   15  A    between atoms: N_13  and  C_16
REMARK   16  A    between atoms: C_16  and  C_17
REMARK   17  A    between atoms: C_17  and  N_18
REMARK   18  A    between atoms: N_18  and  C_19
REMARK   19  A    between atoms: N_18  and  C_20
REMARK   20  A    between atoms: C_20  and  C_21
REMARK   21  A    between atoms: C_21  and  N_22
REMARK   22  A    between atoms: N_22  and  C_23
REMARK   23  A    between atoms: N_22  and  C_24
REMARK   24  A    between atoms: C_24  and  C_25
REMARK   25  A    between atoms: C_25  and  N_26
REMARK   26  A    between atoms: N_26  and  C_27
REMARK   27  A    between atoms: N_26  and  C_28
REMARK                            x       y       z     vdW  Elec       q    Type
REMARK                         _______ _______ _______ _____ _____    ______ ____
ROOT
ATOM      1  N   UNL     1       0.592  10.138  19.296  0.00  0.00    +0.000 N 
ATOM      2  C   UNL     1       0.841   9.304  20.533  0.00  0.00    +0.000 C 
ATOM      3  C   UNL     1       1.499  11.361  19.388  0.00  0.00    +0.000 C 
ENDROOT
BRANCH   1   4
ATOM      4  C   UNL     1       0.866   9.339  18.021  0.00  0.00    +0.000 C 
BRANCH   4   5
ATOM      5  C   UNL     1       2.321   8.938  17.875  0.00  0.00    +0.000 C 
BRANCH   5   6
ATOM      6  C   UNL     1       2.478   7.432  17.980  0.00  0.00    +0.000 C 
BRANCH   6   7
ATOM      7  C   UNL     1       3.871   7.076  17.495  0.00  0.00    +0.000 C 
BRANCH   7   8
ATOM      8  C   UNL     1       4.353   5.795  18.141  0.00  0.00    +0.000 C 
BRANCH   8   9
ATOM      9  C   UNL     1       4.299   4.672  17.120  0.00  0.00    +0.000 C 
BRANCH   9  10
ATOM     10  C   UNL     1       3.468   3.526  17.662  0.00  0.00    +0.000 C 
BRANCH  10  11
ATOM     11  C   UNL     1       1.987   3.822  17.489  0.00  0.00    +0.000 C 
BRANCH  11  12
ATOM     12  C   UNL     1       1.248   3.553  18.791  0.00  0.00    +0.000 C 
BRANCH  12  13
ATOM     13  C   UNL     1       2.204   3.005  19.841  0.00  0.00    +0.000 C 
BRANCH  13  15
ATOM     14  C   UNL     1       1.558   5.253  20.738  0.00  0.00    +0.000 C 
ATOM     15  C   UNL     1       2.333   3.976  21.008  0.00  0.00    +0.000 C 
ENDBRANCH  13  15
ENDBRANCH  12  13
ENDBRANCH  11  12
ENDBRANCH  10  11
ENDBRANCH   9  10
ENDBRANCH   8   9
ENDBRANCH   7   8
ENDBRANCH   6   7
ENDBRANCH   5   6
ENDBRANCH   4   5
ENDBRANCH   1   4
BRANCH   1  16
ATOM     16  C   UNL     1      -0.915  10.522  19.232  0.00  0.00    +0.000 C 
BRANCH  16  17
ATOM     17  C   UNL     1      -1.280  11.967  19.646  0.00  0.00    +0.000 C 
BRANCH  17  18
ATOM     18  N   UNL     1      -2.599  12.457  19.206  0.00  0.00    +0.000 NA
ATOM     19  C   UNL     1      -3.274  11.508  18.316  0.00  0.00    +0.000 C 
BRANCH  18  20
ATOM     20  C   UNL     1      -3.484  12.761  20.357  0.00  0.00    +0.000 C 
BRANCH  20  21
ATOM     21  C   UNL     1      -3.541  14.247  20.823  0.00  0.00    +0.000 C 
BRANCH  21  22
ATOM     22  N   UNL     1      -4.874  14.764  21.216  0.00  0.00    +0.000 NA
ATOM     23  C   UNL     1      -5.895  13.726  21.026  0.00  0.00    +0.000 C 
BRANCH  22  24
ATOM     24  C   UNL     1      -4.871  15.194  22.637  0.00  0.00    +0.000 C 
BRANCH  24  25
ATOM     25  C   UNL     1      -5.209  14.095  23.688  0.00  0.00    +0.000 C 
BRANCH  25  26
ATOM     26  N   UNL     1      -4.076  13.582  24.491  0.00  0.00    +0.000 NA
ATOM     27  C   UNL     1      -3.619  12.279  23.994  0.00  0.00    +0.000 C 
ATOM     28  C   UNL     1      -2.976  14.544  24.484  0.00  0.00    +0.000 C 
ENDBRANCH  25  26
ENDBRANCH  24  25
ENDBRANCH  22  24
ENDBRANCH  21  22
ENDBRANCH  20  21
ENDBRANCH  18  20
ENDBRANCH  17  18
ENDBRANCH  16  17
ENDBRANCH   1  16
TORSDOF 20
ENDMDL
MODEL 9
REMARK VINA RESULT:      -5.0      3.883      7.446
REMARK  Name = 
REMARK  27 active torsions:
REMARK  status: ('A' for Active; 'I' for Inactive)
REMARK    1  A    between atoms: C_1  and  C_2
REMARK    2  A    between atoms: C_2  and  C_3
REMARK    3  A    between atoms: C_3  and  C_4
REMARK    4  A    between atoms: C_4  and  C_5
REMARK    5  A    between atoms: C_5  and  C_6
REMARK    6  A    between atoms: C_6  and  C_7
REMARK    7  A    between atoms: C_7  and  C_8
REMARK    8  A    between atoms: C_8  and  C_9
REMARK    9  A    between atoms: C_9  and  C_10
REMARK   10  A    between atoms: C_10  and  C_11
REMARK   11  A    between atoms: C_11  and  C_12
REMARK   12  A    between atoms: C_12  and  N_13
REMARK   13  A    between atoms: N_13  and  C_14
REMARK   14  A    between atoms: N_13  and  C_15
REMARK   15  A    between atoms: N_13  and  C_16
REMARK   16  A    between atoms: C_16  and  C_17
REMARK   17  A    between atoms: C_17  and  N_18
REMARK   18  A    between atoms: N_18  and  C_19
REMARK   19  A    between atoms: N_18  and  C_20
REMARK   20  A    between atoms: C_20  and  C_21
REMARK   21  A    between atoms: C_21  and  N_22
REMARK   22  A    between atoms: N_22  and  C_23
REMARK   23  A    between atoms: N_22  and  C_24
REMARK   24  A    between atoms: C_24  and  C_25
REMARK   25  A    between atoms: C_25  and  N_26
REMARK   26  A    between atoms: N_26  and  C_27
REMARK   27  A    between atoms: N_26  and  C_28
REMARK                            x       y       z     vdW  Elec       q    Type
REMARK                         _______ _______ _______ _____ _____    ______ ____
ROOT
ATOM      1  N   UNL     1       0.423  10.417  19.177  0.00  0.00    +0.000 N 
ATOM      2  C   UNL     1      -0.983  10.956  19.031  0.00  0.00    +0.000 C 
ATOM      3  C   UNL     1       0.498   9.717  20.529  0.00  0.00    +0.000 C 
ENDROOT
BRANCH   1   4
ATOM      4  C   UNL     1       0.773   9.459  18.036  0.00  0.00    +0.000 C 
BRANCH   4   5
ATOM      5  C   UNL     1       2.245   9.097  17.999  0.00  0.00    +0.000 C 
BRANCH   5   6
ATOM      6  C   UNL     1       2.434   7.596  18.107  0.00  0.00    +0.000 C 
BRANCH   6   7
ATOM      7  C   UNL     1       3.795   7.255  17.528  0.00  0.00    +0.000 C 
BRANCH   7   8
ATOM      8  C   UNL     1       4.325   5.969  18.122  0.00  0.00    +0.000 C 
BRANCH   8   9
ATOM      9  C   UNL     1       4.909   5.113  17.013  0.00  0.00    +0.000 C 
BRANCH   9  10
ATOM     10  C   UNL     1       4.028   3.902  16.782  0.00  0.00    +0.000 C 
BRANCH  10  11
ATOM     11  C   UNL     1       3.381   3.465  18.086  0.00  0.00    +0.000 C 
BRANCH  11  12
ATOM     12  C   UNL     1       2.349   2.380  17.816  0.00  0.00    +0.000 C 
BRANCH  12  13
ATOM     13  C   UNL     1       1.573   2.058  19.085  0.00  0.00    +0.000 C 
BRANCH  13  15
ATOM     14  C   UNL     1       1.509   3.343  21.235  0.00  0.00    +0.000 C 
ATOM     15  C   UNL     1       1.109   3.337  19.770  0.00  0.00    +0.000 C 
ENDBRANCH  13  15
ENDBRANCH  12  13
ENDBRANCH  11  12
ENDBRANCH  10  11
ENDBRANCH   9  10
ENDBRANCH   8   9
ENDBRANCH   7   8
ENDBRANCH   6   7
ENDBRANCH   5   6
ENDBRANCH   4   5
ENDBRANCH   1   4
BRANCH   1  16
ATOM     16  C   UNL     1       1.436  11.592  19.061  0.00  0.00    +0.000 C 
BRANCH  16  17
ATOM     17  C   UNL     1       0.881  12.937  18.537  0.00  0.00    +0.000 C 
BRANCH  17  18
ATOM     18  N   UNL     1       0.807  14.037  19.515  0.00  0.00    +0.000 NA
ATOM     19  C   UNL     1       0.986  13.567  20.892  0.00  0.00    +0.000 C 
BRANCH  18  20
ATOM     20  C   UNL     1       1.805  15.096  19.227  0.00  0.00    +0.000 C 
BRANCH  20  21
ATOM     21  C   UNL     1       2.815  14.811  18.075  0.00  0.00    +0.000 C 
BRANCH  21  22
ATOM     22  N   UNL     1       3.692  15.939  17.672  0.00  0.00    +0.000 NA
ATOM     23  C   UNL     1       2.915  16.944  16.935  0.00  0.00    +0.000 C 
BRANCH  22  24
ATOM     24  C   UNL     1       4.308  16.574  18.863  0.00  0.00    +0.000 C 
BRANCH  24  25
ATOM     25  C   UNL     1       5.850  16.410  19.010  0.00  0.00    +0.000 C 
BRANCH  25  26
ATOM     26  N   UNL     1       6.374  15.027  18.956  0.00  0.00    +0.000 NA
ATOM     27  C   UNL     1       7.073  14.771  17.692  0.00  0.00    +0.000 C 
ATOM     28  C   UNL     1       7.264  14.781  20.089  0.00  0.00    +0.000 C 
ENDBRANCH  25  26
ENDBRANCH  24  25
ENDBRANCH  22  24
ENDBRANCH  21  22
ENDBRANCH  20  21
ENDBRANCH  18  20
ENDBRANCH  17  18
ENDBRANCH  16  17
ENDBRANCH   1  16
TORSDOF 20
ENDMDL
