MODEL 1
REMARK VINA RESULT:      -7.0      0.000      0.000
REMARK  Name = 
REMARK  11 active torsions:
REMARK  status: ('A' for Active; 'I' for Inactive)
REMARK    1  A    between atoms: C_1  and  C_2
REMARK    2  A    between atoms: C_2  and  N_3
REMARK    3  A    between atoms: N_3  and  C_4
REMARK    4  A    between atoms: C_4  and  C_5
REMARK    5  A    between atoms: C_6  and  C_8
REMARK    6  A    between atoms: C_8  and  N_9
REMARK    7  A    between atoms: N_9  and  C_10
REMARK    8  A    between atoms: C_11  and  C_13
REMARK    9  A    between atoms: N_17  and  C_18
REMARK   10  A    between atoms: C_18  and  C_19
REMARK   11  A    between atoms: C_19  and  C_20
REMARK                            x       y       z     vdW  Elec       q    Type
REMARK                         _______ _______ _______ _____ _____    ______ ____
ROOT
ATOM      1  C   UNL     1       2.280   6.295  19.262  0.00  0.00    +0.000 A 
ATOM      2  C   UNL     1       2.639   6.653  17.964  0.00  0.00    +0.000 A 
ATOM      3  C   UNL     1       2.647   8.048  17.829  0.00  0.00    +0.000 A 
ATOM      4  C   UNL     1       2.126   8.543  18.988  0.00  0.00    +0.000 A 
ATOM      5  N   UNL     1       1.803   7.487  19.820  0.00  0.00    +0.000 N 
ENDROOT
BRANCH   1   8
ATOM      6  N   UNL     1       3.500   4.203  19.831  0.00  0.00    +0.000 N 
ATOM      7  C   UNL     1       3.481   2.867  20.403  0.00  0.00    +0.000 C 
ATOM      8  C   UNL     1       2.314   4.964  19.896  0.00  0.00    +0.000 C 
ATOM      9  O   UNL     1       1.335   4.530  20.516  0.00  0.00    +0.000 OA
BRANCH   6  10
ATOM     10  C   UNL     1       4.808   4.679  19.338  0.00  0.00    +0.000 C 
BRANCH  10  12
ATOM     11  N   UNL     1       6.394   4.604  17.359  0.00  0.00    +0.000 N 
ATOM     12  C   UNL     1       5.166   4.177  17.909  0.00  0.00    +0.000 C 
ATOM     13  O   UNL     1       4.383   3.482  17.257  0.00  0.00    +0.000 OA
BRANCH  11  15
ATOM     14  C   UNL     1       5.797   5.295  15.021  0.00  0.00    +0.000 C 
ATOM     15  C   UNL     1       6.603   4.366  15.924  0.00  0.00    +0.000 C 
ENDBRANCH  11  15
BRANCH  11  16
ATOM     16  C   UNL     1       7.330   5.429  18.136  0.00  0.00    +0.000 C 
ATOM     17  C   UNL     1       7.491   6.897  17.778  0.00  0.00    +0.000 C 
ENDBRANCH  11  16
ENDBRANCH  10  12
ENDBRANCH   6  10
ENDBRANCH   1   8
BRANCH   5  18
ATOM     18  C   UNL     1       1.131   7.673  21.101  0.00  0.00    +0.000 C 
BRANCH  18  19
ATOM     19  C   UNL     1       1.545   8.964  21.834  0.00  0.00    +0.000 C 
BRANCH  19  20
ATOM     20  C   UNL     1       0.424   9.962  21.945  0.00  0.00    +0.000 A 
ATOM     21  C   UNL     1       0.199  10.884  20.911  0.00  0.00    +0.000 A 
ATOM     22  C   UNL     1      -0.809  11.838  21.026  0.00  0.00    +0.000 A 
ATOM     23  C   UNL     1      -1.604  11.874  22.170  0.00  0.00    +0.000 A 
ATOM     24  C   UNL     1      -1.399  10.948  23.193  0.00  0.00    +0.000 A 
ATOM     25  C   UNL     1      -0.389   9.994  23.082  0.00  0.00    +0.000 A 
ENDBRANCH  19  20
ENDBRANCH  18  19
ENDBRANCH   5  18
TORSDOF 8
ENDMDL
MODEL 2
REMARK VINA RESULT:      -7.0      1.806      8.271
REMARK  Name = 
REMARK  11 active torsions:
REMARK  status: ('A' for Active; 'I' for Inactive)
REMARK    1  A    between atoms: C_1  and  C_2
REMARK    2  A    between atoms: C_2  and  N_3
REMARK    3  A    between atoms: N_3  and  C_4
REMARK    4  A    between atoms: C_4  and  C_5
REMARK    5  A    between atoms: C_6  and  C_8
REMARK    6  A    between atoms: C_8  and  N_9
REMARK    7  A    between atoms: N_9  and  C_10
REMARK    8  A    between atoms: C_11  and  C_13
REMARK    9  A    between atoms: N_17  and  C_18
REMARK   10  A    between atoms: C_18  and  C_19
REMARK   11  A    between atoms: C_19  and  C_20
REMARK                            x       y       z     vdW  Elec       q    Type
REMARK                         _______ _______ _______ _____ _____    ______ ____
ROOT
ATOM      1  C   UNL     1       5.910   5.316  18.636  0.00  0.00    +0.000 A 
ATOM      2  C   UNL     1       7.080   5.670  19.304  0.00  0.00    +0.000 A 
ATOM      3  C   UNL     1       7.779   6.644  18.577  0.00  0.00    +0.000 A 
ATOM      4  C   UNL     1       7.131   6.760  17.382  0.00  0.00    +0.000 A 
ATOM      5  N   UNL     1       6.061   5.886  17.367  0.00  0.00    +0.000 N 
ENDROOT
BRANCH   1   8
ATOM      6  N   UNL     1       3.520   5.054  19.277  0.00  0.00    +0.000 N 
ATOM      7  C   UNL     1       2.460   4.217  19.812  0.00  0.00    +0.000 C 
ATOM      8  C   UNL     1       4.795   4.474  19.109  0.00  0.00    +0.000 C 
ATOM      9  O   UNL     1       4.956   3.265  19.318  0.00  0.00    +0.000 OA
BRANCH   6  10
ATOM     10  C   UNL     1       3.123   6.410  18.848  0.00  0.00    +0.000 C 
BRANCH  10  12
ATOM     11  N   UNL     1       1.629   8.372  19.450  0.00  0.00    +0.000 N 
ATOM     12  C   UNL     1       2.208   7.152  19.865  0.00  0.00    +0.000 C 
ATOM     13  O   UNL     1       2.040   6.724  21.010  0.00  0.00    +0.000 OA
BRANCH  11  15
ATOM     14  C   UNL     1      -0.379   9.725  20.109  0.00  0.00    +0.000 C 
ATOM     15  C   UNL     1       1.004   9.203  20.488  0.00  0.00    +0.000 C 
ENDBRANCH  11  15
BRANCH  11  16
ATOM     16  C   UNL     1       1.825   8.880  18.085  0.00  0.00    +0.000 C 
ATOM     17  C   UNL     1       2.239  10.330  17.891  0.00  0.00    +0.000 C 
ENDBRANCH  11  16
ENDBRANCH  10  12
ENDBRANCH   6  10
ENDBRANCH   1   8
BRANCH   5  18
ATOM     18  C   UNL     1       5.222   5.692  16.189  0.00  0.00    +0.000 C 
BRANCH  18  19
ATOM     19  C   UNL     1       5.314   4.275  15.591  0.00  0.00    +0.000 C 
BRANCH  19  20
ATOM     20  C   UNL     1       6.014   4.244  14.259  0.00  0.00    +0.000 A 
ATOM     21  C   UNL     1       7.149   5.039  14.043  0.00  0.00    +0.000 A 
ATOM     22  C   UNL     1       7.776   5.047  12.799  0.00  0.00    +0.000 A 
ATOM     23  C   UNL     1       7.278   4.258  11.765  0.00  0.00    +0.000 A 
ATOM     24  C   UNL     1       6.162   3.449  11.978  0.00  0.00    +0.000 A 
ATOM     25  C   UNL     1       5.531   3.441  13.221  0.00  0.00    +0.000 A 
ENDBRANCH  19  20
ENDBRANCH  18  19
ENDBRANCH   5  18
TORSDOF 8
ENDMDL
MODEL 3
REMARK VINA RESULT:      -6.9      1.793      8.369
REMARK  Name = 
REMARK  11 active torsions:
REMARK  status: ('A' for Active; 'I' for Inactive)
REMARK    1  A    between atoms: C_1  and  C_2
REMARK    2  A    between atoms: C_2  and  N_3
REMARK    3  A    between atoms: N_3  and  C_4
REMARK    4  A    between atoms: C_4  and  C_5
REMARK    5  A    between atoms: C_6  and  C_8
REMARK    6  A    between atoms: C_8  and  N_9
REMARK    7  A    between atoms: N_9  and  C_10
REMARK    8  A    between atoms: C_11  and  C_13
REMARK    9  A    between atoms: N_17  and  C_18
REMARK   10  A    between atoms: C_18  and  C_19
REMARK   11  A    between atoms: C_19  and  C_20
REMARK                            x       y       z     vdW  Elec       q    Type
REMARK                         _______ _______ _______ _____ _____    ______ ____
ROOT
ATOM      1  C   UNL     1       5.565   5.001  18.561  0.00  0.00    +0.000 A 
ATOM      2  C   UNL     1       6.655   5.205  19.405  0.00  0.00    +0.000 A 
ATOM      3  C   UNL     1       7.497   6.195  18.880  0.00  0.00    +0.000 A 
ATOM      4  C   UNL     1       7.020   6.475  17.633  0.00  0.00    +0.000 A 
ATOM      5  N   UNL     1       5.914   5.682  17.390  0.00  0.00    +0.000 N 
ENDROOT
BRANCH   1   8
ATOM      6  N   UNL     1       3.123   4.853  19.012  0.00  0.00    +0.000 N 
ATOM      7  C   UNL     1       1.960   4.035  19.313  0.00  0.00    +0.000 C 
ATOM      8  C   UNL     1       4.353   4.196  18.798  0.00  0.00    +0.000 C 
ATOM      9  O   UNL     1       4.395   2.959  18.770  0.00  0.00    +0.000 OA
BRANCH   6  10
ATOM     10  C   UNL     1       2.873   6.298  18.842  0.00  0.00    +0.000 C 
BRANCH  10  12
ATOM     11  N   UNL     1       1.619   8.258  19.856  0.00  0.00    +0.000 N 
ATOM     12  C   UNL     1       2.140   6.960  20.046  0.00  0.00    +0.000 C 
ATOM     13  O   UNL     1       2.068   6.397  21.141  0.00  0.00    +0.000 OA
BRANCH  11  15
ATOM     14  C   UNL     1      -0.240   8.654  21.494  0.00  0.00    +0.000 C 
ATOM     15  C   UNL     1       1.183   8.986  21.056  0.00  0.00    +0.000 C 
ENDBRANCH  11  15
BRANCH  11  16
ATOM     16  C   UNL     1       1.701   8.927  18.550  0.00  0.00    +0.000 C 
ATOM     17  C   UNL     1       0.753  10.077  18.250  0.00  0.00    +0.000 C 
ENDBRANCH  11  16
ENDBRANCH  10  12
ENDBRANCH   6  10
ENDBRANCH   1   8
BRANCH   5  18
ATOM     18  C   UNL     1       5.227   5.666  16.103  0.00  0.00    +0.000 C 
BRANCH  18  19
ATOM     19  C   UNL     1       5.230   4.285  15.419  0.00  0.00    +0.000 C 
BRANCH  19  20
ATOM     20  C   UNL     1       5.982   4.277  14.116  0.00  0.00    +0.000 A 
ATOM     21  C   UNL     1       5.578   3.428  13.075  0.00  0.00    +0.000 A 
ATOM     22  C   UNL     1       6.296   3.384  11.883  0.00  0.00    +0.000 A 
ATOM     23  C   UNL     1       7.418   4.193  11.718  0.00  0.00    +0.000 A 
ATOM     24  C   UNL     1       7.815   5.056  12.741  0.00  0.00    +0.000 A 
ATOM     25  C   UNL     1       7.100   5.099  13.936  0.00  0.00    +0.000 A 
ENDBRANCH  19  20
ENDBRANCH  18  19
ENDBRANCH   5  18
TORSDOF 8
ENDMDL
MODEL 4
REMARK VINA RESULT:      -6.8      2.209      4.141
REMARK  Name = 
REMARK  11 active torsions:
REMARK  status: ('A' for Active; 'I' for Inactive)
REMARK    1  A    between atoms: C_1  and  C_2
REMARK    2  A    between atoms: C_2  and  N_3
REMARK    3  A    between atoms: N_3  and  C_4
REMARK    4  A    between atoms: C_4  and  C_5
REMARK    5  A    between atoms: C_6  and  C_8
REMARK    6  A    between atoms: C_8  and  N_9
REMARK    7  A    between atoms: N_9  and  C_10
REMARK    8  A    between atoms: C_11  and  C_13
REMARK    9  A    between atoms: N_17  and  C_18
REMARK   10  A    between atoms: C_18  and  C_19
REMARK   11  A    between atoms: C_19  and  C_20
REMARK                            x       y       z     vdW  Elec       q    Type
REMARK                         _______ _______ _______ _____ _____    ______ ____
ROOT
ATOM      1  C   UNL     1       4.005   4.046  18.399  0.00  0.00    +0.000 A 
ATOM      2  C   UNL     1       3.392   2.856  18.010  0.00  0.00    +0.000 A 
ATOM      3  C   UNL     1       2.036   3.076  17.733  0.00  0.00    +0.000 A 
ATOM      4  C   UNL     1       1.775   4.358  18.119  0.00  0.00    +0.000 A 
ATOM      5  N   UNL     1       2.934   4.919  18.620  0.00  0.00    +0.000 N 
ENDROOT
BRANCH   1   8
ATOM      6  N   UNL     1       6.302   4.353  17.494  0.00  0.00    +0.000 N 
ATOM      7  C   UNL     1       7.720   4.555  17.740  0.00  0.00    +0.000 C 
ATOM      8  C   UNL     1       5.438   4.320  18.609  0.00  0.00    +0.000 C 
ATOM      9  O   UNL     1       5.880   4.563  19.739  0.00  0.00    +0.000 OA
BRANCH   6  10
ATOM     10  C   UNL     1       5.888   4.318  16.077  0.00  0.00    +0.000 C 
BRANCH  10  12
ATOM     11  N   UNL     1       6.985   4.572  13.803  0.00  0.00    +0.000 N 
ATOM     12  C   UNL     1       6.853   5.071  15.117  0.00  0.00    +0.000 C 
ATOM     13  O   UNL     1       7.523   6.033  15.503  0.00  0.00    +0.000 OA
BRANCH  11  15
ATOM     14  C   UNL     1       7.635   5.919  11.788  0.00  0.00    +0.000 C 
ATOM     15  C   UNL     1       8.091   5.102  12.993  0.00  0.00    +0.000 C 
ENDBRANCH  11  15
BRANCH  11  16
ATOM     16  C   UNL     1       6.185   3.429  13.340  0.00  0.00    +0.000 C 
ATOM     17  C   UNL     1       5.205   3.631  12.196  0.00  0.00    +0.000 C 
ENDBRANCH  11  16
ENDBRANCH  10  12
ENDBRANCH   6  10
ENDBRANCH   1   8
BRANCH   5  18
ATOM     18  C   UNL     1       2.970   6.252  19.212  0.00  0.00    +0.000 C 
BRANCH  18  19
ATOM     19  C   UNL     1       2.662   7.382  18.209  0.00  0.00    +0.000 C 
BRANCH  19  20
ATOM     20  C   UNL     1       1.810   8.473  18.797  0.00  0.00    +0.000 A 
ATOM     21  C   UNL     1       1.443   8.427  20.150  0.00  0.00    +0.000 A 
ATOM     22  C   UNL     1       0.619   9.411  20.690  0.00  0.00    +0.000 A 
ATOM     23  C   UNL     1       0.161  10.452  19.885  0.00  0.00    +0.000 A 
ATOM     24  C   UNL     1       0.538  10.516  18.543  0.00  0.00    +0.000 A 
ATOM     25  C   UNL     1       1.360   9.531  18.000  0.00  0.00    +0.000 A 
ENDBRANCH  19  20
ENDBRANCH  18  19
ENDBRANCH   5  18
TORSDOF 8
ENDMDL
MODEL 5
REMARK VINA RESULT:      -6.8      0.621      1.200
REMARK  Name = 
REMARK  11 active torsions:
REMARK  status: ('A' for Active; 'I' for Inactive)
REMARK    1  A    between atoms: C_1  and  C_2
REMARK    2  A    between atoms: C_2  and  N_3
REMARK    3  A    between atoms: N_3  and  C_4
REMARK    4  A    between atoms: C_4  and  C_5
REMARK    5  A    between atoms: C_6  and  C_8
REMARK    6  A    between atoms: C_8  and  N_9
REMARK    7  A    between atoms: N_9  and  C_10
REMARK    8  A    between atoms: C_11  and  C_13
REMARK    9  A    between atoms: N_17  and  C_18
REMARK   10  A    between atoms: C_18  and  C_19
REMARK   11  A    between atoms: C_19  and  C_20
REMARK                            x       y       z     vdW  Elec       q    Type
REMARK                         _______ _______ _______ _____ _____    ______ ____
ROOT
ATOM      1  C   UNL     1       2.178   6.512  19.270  0.00  0.00    +0.000 A 
ATOM      2  C   UNL     1       2.344   6.815  17.920  0.00  0.00    +0.000 A 
ATOM      3  C   UNL     1       2.482   8.199  17.745  0.00  0.00    +0.000 A 
ATOM      4  C   UNL     1       2.227   8.760  18.962  0.00  0.00    +0.000 A 
ATOM      5  N   UNL     1       1.939   7.756  19.866  0.00  0.00    +0.000 N 
ENDROOT
BRANCH   1   8
ATOM      6  N   UNL     1       3.345   4.406  19.893  0.00  0.00    +0.000 N 
ATOM      7  C   UNL     1       3.289   3.080  20.487  0.00  0.00    +0.000 C 
ATOM      8  C   UNL     1       2.175   5.192  19.926  0.00  0.00    +0.000 C 
ATOM      9  O   UNL     1       1.177   4.789  20.538  0.00  0.00    +0.000 OA
BRANCH   6  10
ATOM     10  C   UNL     1       4.670   4.846  19.413  0.00  0.00    +0.000 C 
BRANCH  10  12
ATOM     11  N   UNL     1       5.905   5.423  17.271  0.00  0.00    +0.000 N 
ATOM     12  C   UNL     1       4.880   4.667  17.881  0.00  0.00    +0.000 C 
ATOM     13  O   UNL     1       4.142   3.938  17.212  0.00  0.00    +0.000 OA
BRANCH  11  15
ATOM     14  C   UNL     1       6.947   4.536  15.168  0.00  0.00    +0.000 C 
ATOM     15  C   UNL     1       5.920   5.468  15.803  0.00  0.00    +0.000 C 
ENDBRANCH  11  15
BRANCH  11  16
ATOM     16  C   UNL     1       6.786   6.288  18.068  0.00  0.00    +0.000 C 
ATOM     17  C   UNL     1       7.448   7.481  17.398  0.00  0.00    +0.000 C 
ENDBRANCH  11  16
ENDBRANCH  10  12
ENDBRANCH   6  10
ENDBRANCH   1   8
BRANCH   5  18
ATOM     18  C   UNL     1       1.523   8.028  21.238  0.00  0.00    +0.000 C 
BRANCH  18  19
ATOM     19  C   UNL     1      -0.000   8.204  21.398  0.00  0.00    +0.000 C 
BRANCH  19  20
ATOM     20  C   UNL     1      -0.408   9.638  21.602  0.00  0.00    +0.000 A 
ATOM     21  C   UNL     1      -0.712  10.106  22.888  0.00  0.00    +0.000 A 
ATOM     22  C   UNL     1      -1.131  11.421  23.078  0.00  0.00    +0.000 A 
ATOM     23  C   UNL     1      -1.244  12.278  21.986  0.00  0.00    +0.000 A 
ATOM     24  C   UNL     1      -0.924  11.826  20.706  0.00  0.00    +0.000 A 
ATOM     25  C   UNL     1      -0.506  10.510  20.513  0.00  0.00    +0.000 A 
ENDBRANCH  19  20
ENDBRANCH  18  19
ENDBRANCH   5  18
TORSDOF 8
ENDMDL
MODEL 6
REMARK VINA RESULT:      -6.8      1.830      8.162
REMARK  Name = 
REMARK  11 active torsions:
REMARK  status: ('A' for Active; 'I' for Inactive)
REMARK    1  A    between atoms: C_1  and  C_2
REMARK    2  A    between atoms: C_2  and  N_3
REMARK    3  A    between atoms: N_3  and  C_4
REMARK    4  A    between atoms: C_4  and  C_5
REMARK    5  A    between atoms: C_6  and  C_8
REMARK    6  A    between atoms: C_8  and  N_9
REMARK    7  A    between atoms: N_9  and  C_10
REMARK    8  A    between atoms: C_11  and  C_13
REMARK    9  A    between atoms: N_17  and  C_18
REMARK   10  A    between atoms: C_18  and  C_19
REMARK   11  A    between atoms: C_19  and  C_20
REMARK                            x       y       z     vdW  Elec       q    Type
REMARK                         _______ _______ _______ _____ _____    ______ ____
ROOT
ATOM      1  C   UNL     1       5.590   4.387  18.966  0.00  0.00    +0.000 A 
ATOM      2  C   UNL     1       6.528   5.193  19.607  0.00  0.00    +0.000 A 
ATOM      3  C   UNL     1       7.084   6.107  18.700  0.00  0.00    +0.000 A 
ATOM      4  C   UNL     1       6.618   5.748  17.469  0.00  0.00    +0.000 A 
ATOM      5  N   UNL     1       5.797   4.644  17.606  0.00  0.00    +0.000 N 
ENDROOT
BRANCH   1   8
ATOM      6  N   UNL     1       3.278   3.765  19.643  0.00  0.00    +0.000 N 
ATOM      7  C   UNL     1       2.383   2.825  20.296  0.00  0.00    +0.000 C 
ATOM      8  C   UNL     1       4.644   3.423  19.558  0.00  0.00    +0.000 C 
ATOM      9  O   UNL     1       5.026   2.309  19.939  0.00  0.00    +0.000 OA
BRANCH   6  10
ATOM     10  C   UNL     1       2.642   4.944  19.024  0.00  0.00    +0.000 C 
BRANCH  10  12
ATOM     11  N   UNL     1       2.066   7.326  19.686  0.00  0.00    +0.000 N 
ATOM     12  C   UNL     1       2.061   5.962  20.050  0.00  0.00    +0.000 C 
ATOM     13  O   UNL     1       1.667   5.600  21.161  0.00  0.00    +0.000 OA
BRANCH  11  15
ATOM     14  C   UNL     1       0.303   8.626  20.909  0.00  0.00    +0.000 C 
ATOM     15  C   UNL     1       1.784   8.303  20.747  0.00  0.00    +0.000 C 
ENDBRANCH  11  15
BRANCH  11  16
ATOM     16  C   UNL     1       2.532   7.758  18.361  0.00  0.00    +0.000 C 
ATOM     17  C   UNL     1       1.965   9.034  17.760  0.00  0.00    +0.000 C 
ENDBRANCH  11  16
ENDBRANCH  10  12
ENDBRANCH   6  10
ENDBRANCH   1   8
BRANCH   5  18
ATOM     18  C   UNL     1       5.216   3.950  16.462  0.00  0.00    +0.000 C 
BRANCH  18  19
ATOM     19  C   UNL     1       4.962   4.865  15.248  0.00  0.00    +0.000 C 
BRANCH  19  20
ATOM     20  C   UNL     1       5.691   4.415  14.011  0.00  0.00    +0.000 A 
ATOM     21  C   UNL     1       6.959   4.936  13.714  0.00  0.00    +0.000 A 
ATOM     22  C   UNL     1       7.620   4.556  12.548  0.00  0.00    +0.000 A 
ATOM     23  C   UNL     1       7.023   3.649  11.675  0.00  0.00    +0.000 A 
ATOM     24  C   UNL     1       5.771   3.112  11.974  0.00  0.00    +0.000 A 
ATOM     25  C   UNL     1       5.106   3.492  13.138  0.00  0.00    +0.000 A 
ENDBRANCH  19  20
ENDBRANCH  18  19
ENDBRANCH   5  18
TORSDOF 8
ENDMDL
MODEL 7
REMARK VINA RESULT:      -6.8      2.053      8.592
REMARK  Name = 
REMARK  11 active torsions:
REMARK  status: ('A' for Active; 'I' for Inactive)
REMARK    1  A    between atoms: C_1  and  C_2
REMARK    2  A    between atoms: C_2  and  N_3
REMARK    3  A    between atoms: N_3  and  C_4
REMARK    4  A    between atoms: C_4  and  C_5
REMARK    5  A    between atoms: C_6  and  C_8
REMARK    6  A    between atoms: C_8  and  N_9
REMARK    7  A    between atoms: N_9  and  C_10
REMARK    8  A    between atoms: C_11  and  C_13
REMARK    9  A    between atoms: N_17  and  C_18
REMARK   10  A    between atoms: C_18  and  C_19
REMARK   11  A    between atoms: C_19  and  C_20
REMARK                            x       y       z     vdW  Elec       q    Type
REMARK                         _______ _______ _______ _____ _____    ______ ____
ROOT
ATOM      1  C   UNL     1       5.384   4.535  18.110  0.00  0.00    +0.000 A 
ATOM      2  C   UNL     1       5.874   5.095  19.288  0.00  0.00    +0.000 A 
ATOM      3  C   UNL     1       7.097   5.737  19.049  0.00  0.00    +0.000 A 
ATOM      4  C   UNL     1       7.444   5.424  17.767  0.00  0.00    +0.000 A 
ATOM      5  N   UNL     1       6.466   4.611  17.225  0.00  0.00    +0.000 N 
ENDROOT
BRANCH   1   8
ATOM      6  N   UNL     1       2.909   4.730  17.961  0.00  0.00    +0.000 N 
ATOM      7  C   UNL     1       1.619   4.088  17.775  0.00  0.00    +0.000 C 
ATOM      8  C   UNL     1       4.065   3.928  17.855  0.00  0.00    +0.000 C 
ATOM      9  O   UNL     1       3.965   2.744  17.510  0.00  0.00    +0.000 OA
BRANCH   6  10
ATOM     10  C   UNL     1       2.885   6.196  18.130  0.00  0.00    +0.000 C 
BRANCH  10  12
ATOM     11  N   UNL     1       1.858   8.003  19.588  0.00  0.00    +0.000 N 
ATOM     12  C   UNL     1       2.307   6.667  19.497  0.00  0.00    +0.000 C 
ATOM     13  O   UNL     1       2.294   5.922  20.480  0.00  0.00    +0.000 OA
BRANCH  11  15
ATOM     14  C   UNL     1       0.098   8.513  21.302  0.00  0.00    +0.000 C 
ATOM     15  C   UNL     1       1.578   8.525  20.932  0.00  0.00    +0.000 C 
ENDBRANCH  11  15
BRANCH  11  16
ATOM     16  C   UNL     1       1.868   8.890  18.415  0.00  0.00    +0.000 C 
ATOM     17  C   UNL     1       0.619   9.692  18.088  0.00  0.00    +0.000 C 
ENDBRANCH  11  16
ENDBRANCH  10  12
ENDBRANCH   6  10
ENDBRANCH   1   8
BRANCH   5  18
ATOM     18  C   UNL     1       6.585   4.016  15.899  0.00  0.00    +0.000 C 
BRANCH  18  19
ATOM     19  C   UNL     1       5.875   4.824  14.794  0.00  0.00    +0.000 C 
BRANCH  19  20
ATOM     20  C   UNL     1       5.807   4.091  13.482  0.00  0.00    +0.000 A 
ATOM     21  C   UNL     1       4.563   3.787  12.910  0.00  0.00    +0.000 A 
ATOM     22  C   UNL     1       4.493   3.071  11.717  0.00  0.00    +0.000 A 
ATOM     23  C   UNL     1       5.664   2.659  11.084  0.00  0.00    +0.000 A 
ATOM     24  C   UNL     1       6.906   2.975  11.636  0.00  0.00    +0.000 A 
ATOM     25  C   UNL     1       6.978   3.689  12.831  0.00  0.00    +0.000 A 
ENDBRANCH  19  20
ENDBRANCH  18  19
ENDBRANCH   5  18
TORSDOF 8
ENDMDL
MODEL 8
REMARK VINA RESULT:      -6.7      1.849      3.619
REMARK  Name = 
REMARK  11 active torsions:
REMARK  status: ('A' for Active; 'I' for Inactive)
REMARK    1  A    between atoms: C_1  and  C_2
REMARK    2  A    between atoms: C_2  and  N_3
REMARK    3  A    between atoms: N_3  and  C_4
REMARK    4  A    between atoms: C_4  and  C_5
REMARK    5  A    between atoms: C_6  and  C_8
REMARK    6  A    between atoms: C_8  and  N_9
REMARK    7  A    between atoms: N_9  and  C_10
REMARK    8  A    between atoms: C_11  and  C_13
REMARK    9  A    between atoms: N_17  and  C_18
REMARK   10  A    between atoms: C_18  and  C_19
REMARK   11  A    between atoms: C_19  and  C_20
REMARK                            x       y       z     vdW  Elec       q    Type
REMARK                         _______ _______ _______ _____ _____    ______ ____
ROOT
ATOM      1  C   UNL     1       2.720   3.278  19.401  0.00  0.00    +0.000 A 
ATOM      2  C   UNL     1       2.782   2.362  20.449  0.00  0.00    +0.000 A 
ATOM      3  C   UNL     1       1.870   2.711  21.454  0.00  0.00    +0.000 A 
ATOM      4  C   UNL     1       1.374   3.934  21.106  0.00  0.00    +0.000 A 
ATOM      5  N   UNL     1       1.960   4.332  19.919  0.00  0.00    +0.000 N 
ENDROOT
BRANCH   1   8
ATOM      6  N   UNL     1       4.634   3.789  17.896  0.00  0.00    +0.000 N 
ATOM      7  C   UNL     1       5.209   3.766  16.562  0.00  0.00    +0.000 C 
ATOM      8  C   UNL     1       3.362   3.208  18.075  0.00  0.00    +0.000 C 
ATOM      9  O   UNL     1       2.819   2.611  17.137  0.00  0.00    +0.000 OA
BRANCH   6  10
ATOM     10  C   UNL     1       5.501   4.322  18.966  0.00  0.00    +0.000 C 
BRANCH  10  12
ATOM     11  N   UNL     1       6.510   6.423  17.961  0.00  0.00    +0.000 N 
ATOM     12  C   UNL     1       6.734   5.116  18.446  0.00  0.00    +0.000 C 
ATOM     13  O   UNL     1       7.856   4.605  18.404  0.00  0.00    +0.000 OA
BRANCH  11  15
ATOM     14  C   UNL     1       8.132   8.335  17.871  0.00  0.00    +0.000 C 
ATOM     15  C   UNL     1       7.607   7.060  17.220  0.00  0.00    +0.000 C 
ENDBRANCH  11  15
BRANCH  11  16
ATOM     16  C   UNL     1       5.174   7.035  18.016  0.00  0.00    +0.000 C 
ATOM     17  C   UNL     1       4.422   7.279  16.717  0.00  0.00    +0.000 C 
ENDBRANCH  11  16
ENDBRANCH  10  12
ENDBRANCH   6  10
ENDBRANCH   1   8
BRANCH   5  18
ATOM     18  C   UNL     1       1.720   5.643  19.325  0.00  0.00    +0.000 C 
BRANCH  18  19
ATOM     19  C   UNL     1       2.417   6.797  20.072  0.00  0.00    +0.000 C 
BRANCH  19  20
ATOM     20  C   UNL     1       1.618   8.071  20.061  0.00  0.00    +0.000 A 
ATOM     21  C   UNL     1       0.941   8.487  21.217  0.00  0.00    +0.000 A 
ATOM     22  C   UNL     1       0.164   9.644  21.201  0.00  0.00    +0.000 A 
ATOM     23  C   UNL     1       0.064  10.396  20.032  0.00  0.00    +0.000 A 
ATOM     24  C   UNL     1       0.750  10.000  18.884  0.00  0.00    +0.000 A 
ATOM     25  C   UNL     1       1.526   8.842  18.897  0.00  0.00    +0.000 A 
ENDBRANCH  19  20
ENDBRANCH  18  19
ENDBRANCH   5  18
TORSDOF 8
ENDMDL
MODEL 9
REMARK VINA RESULT:      -6.7      2.202      4.031
REMARK  Name = 
REMARK  11 active torsions:
REMARK  status: ('A' for Active; 'I' for Inactive)
REMARK    1  A    between atoms: C_1  and  C_2
REMARK    2  A    between atoms: C_2  and  N_3
REMARK    3  A    between atoms: N_3  and  C_4
REMARK    4  A    between atoms: C_4  and  C_5
REMARK    5  A    between atoms: C_6  and  C_8
REMARK    6  A    between atoms: C_8  and  N_9
REMARK    7  A    between atoms: N_9  and  C_10
REMARK    8  A    between atoms: C_11  and  C_13
REMARK    9  A    between atoms: N_17  and  C_18
REMARK   10  A    between atoms: C_18  and  C_19
REMARK   11  A    between atoms: C_19  and  C_20
REMARK                            x       y       z     vdW  Elec       q    Type
REMARK                         _______ _______ _______ _____ _____    ______ ____
ROOT
ATOM      1  C   UNL     1       4.038   4.021  18.346  0.00  0.00    +0.000 A 
ATOM      2  C   UNL     1       3.366   2.812  18.179  0.00  0.00    +0.000 A 
ATOM      3  C   UNL     1       2.024   3.044  17.845  0.00  0.00    +0.000 A 
ATOM      4  C   UNL     1       1.829   4.387  17.978  0.00  0.00    +0.000 A 
ATOM      5  N   UNL     1       3.014   4.973  18.383  0.00  0.00    +0.000 N 
ENDROOT
BRANCH   1   8
ATOM      6  N   UNL     1       6.311   4.330  17.383  0.00  0.00    +0.000 N 
ATOM      7  C   UNL     1       7.740   4.492  17.591  0.00  0.00    +0.000 C 
ATOM      8  C   UNL     1       5.483   4.257  18.522  0.00  0.00    +0.000 C 
ATOM      9  O   UNL     1       5.966   4.433  19.648  0.00  0.00    +0.000 OA
BRANCH   6  10
ATOM     10  C   UNL     1       5.851   4.375  15.980  0.00  0.00    +0.000 C 
BRANCH  10  12
ATOM     11  N   UNL     1       6.991   4.580  13.721  0.00  0.00    +0.000 N 
ATOM     12  C   UNL     1       6.826   5.114  15.018  0.00  0.00    +0.000 C 
ATOM     13  O   UNL     1       7.475   6.095  15.390  0.00  0.00    +0.000 OA
BRANCH  11  15
ATOM     14  C   UNL     1       7.670   6.044  11.800  0.00  0.00    +0.000 C 
ATOM     15  C   UNL     1       8.105   5.102  12.919  0.00  0.00    +0.000 C 
ENDBRANCH  11  15
BRANCH  11  16
ATOM     16  C   UNL     1       6.214   3.415  13.276  0.00  0.00    +0.000 C 
ATOM     17  C   UNL     1       5.137   3.607  12.220  0.00  0.00    +0.000 C 
ENDBRANCH  11  16
ENDBRANCH  10  12
ENDBRANCH   6  10
ENDBRANCH   1   8
BRANCH   5  18
ATOM     18  C   UNL     1       3.117   6.391  18.713  0.00  0.00    +0.000 C 
BRANCH  18  19
ATOM     19  C   UNL     1       2.202   6.822  19.876  0.00  0.00    +0.000 C 
BRANCH  19  20
ATOM     20  C   UNL     1       1.654   8.212  19.708  0.00  0.00    +0.000 A 
ATOM     21  C   UNL     1       1.769   8.869  18.474  0.00  0.00    +0.000 A 
ATOM     22  C   UNL     1       1.302  10.173  18.324  0.00  0.00    +0.000 A 
ATOM     23  C   UNL     1       0.710  10.827  19.402  0.00  0.00    +0.000 A 
ATOM     24  C   UNL     1       0.572  10.173  20.627  0.00  0.00    +0.000 A 
ATOM     25  C   UNL     1       1.042   8.869  20.780  0.00  0.00    +0.000 A 
ENDBRANCH  19  20
ENDBRANCH  18  19
ENDBRANCH   5  18
TORSDOF 8
ENDMDL
