MODEL 1
REMARK VINA RESULT:      -8.3      0.000      0.000
REMARK  Name = 
REMARK  4 active torsions:
REMARK  status: ('A' for Active; 'I' for Inactive)
REMARK    1  A    between atoms: C_1  and  C_2
REMARK    2  A    between atoms: C_7  and  C_8
REMARK    3  A    between atoms: C_9  and  C_10
REMARK    4  A    between atoms: C_15  and  C_16
REMARK                            x       y       z     vdW  Elec       q    Type
REMARK                         _______ _______ _______ _____ _____    ______ ____
ROOT
ATOM      1  C   UNL     1       2.325   5.873  19.774  0.00  0.00    +0.000 C 
ATOM      2  O   UNL     1       2.275   5.490  20.945  0.00  0.00    +0.000 OA
ATOM      3  N   UNL     1       2.037   7.211  19.435  0.00  0.00    +0.000 N 
ATOM      4  C   UNL     1       1.808   7.627  18.069  0.00  0.00    +0.000 C 
ATOM      5  C   UNL     1       2.091   9.085  17.772  0.00  0.00    +0.000 C 
ATOM      6  C   UNL     1       1.390  10.022  18.753  0.00  0.00    +0.000 C 
ATOM      7  C   UNL     1       1.775   9.573  20.180  0.00  0.00    +0.000 C 
ATOM      8  C   UNL     1       1.465   8.097  20.456  0.00  0.00    +0.000 C 
ENDROOT
BRANCH   1  17
ATOM      9  C   UNL     1       7.234   7.085  17.530  0.00  0.00    +0.000 C 
ATOM     10  C   UNL     1       6.103   6.110  17.419  0.00  0.00    +0.000 A 
ATOM     11  C   UNL     1       6.173   5.105  16.363  0.00  0.00    +0.000 A 
ATOM     12  C   UNL     1       5.212   4.180  16.210  0.00  0.00    +0.000 A 
ATOM     13  C   UNL     1       4.097   4.169  17.088  0.00  0.00    +0.000 A 
ATOM     14  N   UNL     1       3.084   3.350  17.131  0.00  0.00    +0.000 NA
ATOM     15  C   UNL     1       2.283   3.789  18.158  0.00  0.00    +0.000 A 
ATOM     16  C   UNL     1       1.087   2.943  18.415  0.00  0.00    +0.000 C 
ATOM     17  C   UNL     1       2.796   4.965  18.728  0.00  0.00    +0.000 A 
ATOM     18  N   UNL     1       4.017   5.148  18.070  0.00  0.00    +0.000 N 
ATOM     19  C   UNL     1       5.029   6.111  18.239  0.00  0.00    +0.000 A 
ENDBRANCH   1  17
BRANCH   6  20
ATOM     20  C   UNL     1      -0.107  10.244  18.530  0.00  0.00    +0.000 A 
ATOM     21  C   UNL     1      -0.839   9.678  17.470  0.00  0.00    +0.000 A 
ATOM     22  C   UNL     1      -2.192   9.981  17.277  0.00  0.00    +0.000 A 
ATOM     23  C   UNL     1      -2.822  10.873  18.129  0.00  0.00    +0.000 A 
ATOM     24  F   UNL     1      -4.108  11.185  17.927  0.00  0.00    +0.000 F 
ATOM     25  C   UNL     1      -2.128  11.460  19.175  0.00  0.00    +0.000 A 
ATOM     26  C   UNL     1      -0.780  11.148  19.373  0.00  0.00    +0.000 A 
ENDBRANCH   6  20
TORSDOF 2
ENDMDL
MODEL 2
REMARK VINA RESULT:      -7.4      5.685      9.605
REMARK  Name = 
REMARK  4 active torsions:
REMARK  status: ('A' for Active; 'I' for Inactive)
REMARK    1  A    between atoms: C_1  and  C_2
REMARK    2  A    between atoms: C_7  and  C_8
REMARK    3  A    between atoms: C_9  and  C_10
REMARK    4  A    between atoms: C_15  and  C_16
REMARK                            x       y       z     vdW  Elec       q    Type
REMARK                         _______ _______ _______ _____ _____    ______ ____
ROOT
ATOM      1  C   UNL     1       1.849  14.827  20.375  0.00  0.00    +0.000 C 
ATOM      2  O   UNL     1       2.139  15.119  21.537  0.00  0.00    +0.000 OA
ATOM      3  N   UNL     1       1.098  13.669  20.083  0.00  0.00    +0.000 N 
ATOM      4  C   UNL     1       0.982  13.145  18.740  0.00  0.00    +0.000 C 
ATOM      5  C   UNL     1      -0.254  12.314  18.466  0.00  0.00    +0.000 C 
ATOM      6  C   UNL     1      -0.450  11.209  19.503  0.00  0.00    +0.000 C 
ATOM      7  C   UNL     1      -0.420  11.871  20.898  0.00  0.00    +0.000 C 
ATOM      8  C   UNL     1       0.848  12.695  21.152  0.00  0.00    +0.000 C 
ENDROOT
BRANCH   1  17
ATOM      9  C   UNL     1      -2.213  18.173  18.667  0.00  0.00    +0.000 C 
ATOM     10  C   UNL     1      -0.792  17.807  18.369  0.00  0.00    +0.000 A 
ATOM     11  C   UNL     1      -0.150  18.451  17.228  0.00  0.00    +0.000 A 
ATOM     12  C   UNL     1       1.128  18.197  16.906  0.00  0.00    +0.000 A 
ATOM     13  C   UNL     1       1.883  17.281  17.685  0.00  0.00    +0.000 A 
ATOM     14  N   UNL     1       3.130  16.921  17.564  0.00  0.00    +0.000 NA
ATOM     15  C   UNL     1       3.360  16.004  18.562  0.00  0.00    +0.000 A 
ATOM     16  C   UNL     1       4.759  15.508  18.635  0.00  0.00    +0.000 C 
ATOM     17  C   UNL     1       2.185  15.744  19.285  0.00  0.00    +0.000 A 
ATOM     18  N   UNL     1       1.258  16.645  18.750  0.00  0.00    +0.000 N 
ATOM     19  C   UNL     1      -0.079  16.919  19.096  0.00  0.00    +0.000 A 
ENDBRANCH   1  17
BRANCH   6  20
ATOM     20  C   UNL     1       0.442   9.974  19.357  0.00  0.00    +0.000 A 
ATOM     21  C   UNL     1       0.856   9.169  20.435  0.00  0.00    +0.000 A 
ATOM     22  C   UNL     1       1.735   8.097  20.245  0.00  0.00    +0.000 A 
ATOM     23  C   UNL     1       2.228   7.831  18.978  0.00  0.00    +0.000 A 
ATOM     24  F   UNL     1       3.091   6.823  18.802  0.00  0.00    +0.000 F 
ATOM     25  C   UNL     1       1.853   8.613  17.897  0.00  0.00    +0.000 A 
ATOM     26  C   UNL     1       0.967   9.676  18.086  0.00  0.00    +0.000 A 
ENDBRANCH   6  20
TORSDOF 2
ENDMDL
MODEL 3
REMARK VINA RESULT:      -7.4      1.346      2.960
REMARK  Name = 
REMARK  4 active torsions:
REMARK  status: ('A' for Active; 'I' for Inactive)
REMARK    1  A    between atoms: C_1  and  C_2
REMARK    2  A    between atoms: C_7  and  C_8
REMARK    3  A    between atoms: C_9  and  C_10
REMARK    4  A    between atoms: C_15  and  C_16
REMARK                            x       y       z     vdW  Elec       q    Type
REMARK                         _______ _______ _______ _____ _____    ______ ____
ROOT
ATOM      1  C   UNL     1       2.280   7.012  19.776  0.00  0.00    +0.000 C 
ATOM      2  O   UNL     1       2.238   6.618  20.943  0.00  0.00    +0.000 OA
ATOM      3  N   UNL     1       1.741   8.263  19.411  0.00  0.00    +0.000 N 
ATOM      4  C   UNL     1       1.517   8.633  18.032  0.00  0.00    +0.000 C 
ATOM      5  C   UNL     1       1.507  10.120  17.745  0.00  0.00    +0.000 C 
ATOM      6  C   UNL     1       0.565  10.883  18.675  0.00  0.00    +0.000 C 
ATOM      7  C   UNL     1       0.945  10.512  20.126  0.00  0.00    +0.000 C 
ATOM      8  C   UNL     1       0.933   9.002  20.390  0.00  0.00    +0.000 C 
ENDROOT
BRANCH   1  17
ATOM      9  C   UNL     1       0.462   1.852  18.953  0.00  0.00    +0.000 C 
ATOM     10  C   UNL     1       1.531   2.803  18.512  0.00  0.00    +0.000 A 
ATOM     11  C   UNL     1       2.533   2.309  17.573  0.00  0.00    +0.000 A 
ATOM     12  C   UNL     1       3.511   3.103  17.109  0.00  0.00    +0.000 A 
ATOM     13  C   UNL     1       3.584   4.456  17.535  0.00  0.00    +0.000 A 
ATOM     14  N   UNL     1       4.423   5.390  17.187  0.00  0.00    +0.000 NA
ATOM     15  C   UNL     1       4.063   6.509  17.898  0.00  0.00    +0.000 A 
ATOM     16  C   UNL     1       4.870   7.721  17.597  0.00  0.00    +0.000 C 
ATOM     17  C   UNL     1       2.995   6.231  18.766  0.00  0.00    +0.000 A 
ATOM     18  N   UNL     1       2.649   4.912  18.454  0.00  0.00    +0.000 N 
ATOM     19  C   UNL     1       1.615   4.084  18.932  0.00  0.00    +0.000 A 
ENDBRANCH   1  17
BRANCH   6  20
ATOM     20  C   UNL     1      -0.928  10.788  18.357  0.00  0.00    +0.000 A 
ATOM     21  C   UNL     1      -1.476   9.925  17.390  0.00  0.00    +0.000 A 
ATOM     22  C   UNL     1      -2.843   9.941  17.091  0.00  0.00    +0.000 A 
ATOM     23  C   UNL     1      -3.675  10.837  17.742  0.00  0.00    +0.000 A 
ATOM     24  F   UNL     1      -4.979  10.872  17.435  0.00  0.00    +0.000 F 
ATOM     25  C   UNL     1      -3.168  11.712  18.689  0.00  0.00    +0.000 A 
ATOM     26  C   UNL     1      -1.804  11.688  18.994  0.00  0.00    +0.000 A 
ENDBRANCH   6  20
TORSDOF 2
ENDMDL
MODEL 4
REMARK VINA RESULT:      -7.4      3.777      7.794
REMARK  Name = 
REMARK  4 active torsions:
REMARK  status: ('A' for Active; 'I' for Inactive)
REMARK    1  A    between atoms: C_1  and  C_2
REMARK    2  A    between atoms: C_7  and  C_8
REMARK    3  A    between atoms: C_9  and  C_10
REMARK    4  A    between atoms: C_15  and  C_16
REMARK                            x       y       z     vdW  Elec       q    Type
REMARK                         _______ _______ _______ _____ _____    ______ ____
ROOT
ATOM      1  C   UNL     1       0.862   9.694  20.375  0.00  0.00    +0.000 C 
ATOM      2  O   UNL     1       0.690   9.664  21.595  0.00  0.00    +0.000 OA
ATOM      3  N   UNL     1       1.389   8.579  19.689  0.00  0.00    +0.000 N 
ATOM      4  C   UNL     1       1.866   8.669  18.327  0.00  0.00    +0.000 C 
ATOM      5  C   UNL     1       1.844   7.376  17.539  0.00  0.00    +0.000 C 
ATOM      6  C   UNL     1       2.530   6.232  18.284  0.00  0.00    +0.000 C 
ATOM      7  C   UNL     1       1.886   6.139  19.685  0.00  0.00    +0.000 C 
ATOM      8  C   UNL     1       1.934   7.459  20.464  0.00  0.00    +0.000 C 
ENDROOT
BRANCH   1  17
ATOM      9  C   UNL     1       3.641  14.402  21.222  0.00  0.00    +0.000 C 
ATOM     10  C   UNL     1       2.479  13.847  20.458  0.00  0.00    +0.000 A 
ATOM     11  C   UNL     1       1.693  14.775  19.650  0.00  0.00    +0.000 A 
ATOM     12  C   UNL     1       0.650  14.355  18.916  0.00  0.00    +0.000 A 
ATOM     13  C   UNL     1       0.293  12.981  18.918  0.00  0.00    +0.000 A 
ATOM     14  N   UNL     1      -0.652  12.370  18.261  0.00  0.00    +0.000 NA
ATOM     15  C   UNL     1      -0.577  11.048  18.629  0.00  0.00    +0.000 A 
ATOM     16  C   UNL     1      -1.545  10.157  17.937  0.00  0.00    +0.000 C 
ATOM     17  C   UNL     1       0.416  10.852  19.602  0.00  0.00    +0.000 A 
ATOM     18  N   UNL     1       1.022  12.108  19.714  0.00  0.00    +0.000 N 
ATOM     19  C   UNL     1       2.124  12.544  20.475  0.00  0.00    +0.000 A 
ENDBRANCH   1  17
BRANCH   6  20
ATOM     20  C   UNL     1       4.060   6.237  18.278  0.00  0.00    +0.000 A 
ATOM     21  C   UNL     1       4.843   6.898  17.313  0.00  0.00    +0.000 A 
ATOM     22  C   UNL     1       6.239   6.801  17.319  0.00  0.00    +0.000 A 
ATOM     23  C   UNL     1       6.867   6.021  18.277  0.00  0.00    +0.000 A 
ATOM     24  F   UNL     1       8.201   5.905  18.265  0.00  0.00    +0.000 F 
ATOM     25  C   UNL     1       6.126   5.344  19.233  0.00  0.00    +0.000 A 
ATOM     26  C   UNL     1       4.733   5.451  19.233  0.00  0.00    +0.000 A 
ENDBRANCH   6  20
TORSDOF 2
ENDMDL
MODEL 5
REMARK VINA RESULT:      -7.3      4.088      8.365
REMARK  Name = 
REMARK  4 active torsions:
REMARK  status: ('A' for Active; 'I' for Inactive)
REMARK    1  A    between atoms: C_1  and  C_2
REMARK    2  A    between atoms: C_7  and  C_8
REMARK    3  A    between atoms: C_9  and  C_10
REMARK    4  A    between atoms: C_15  and  C_16
REMARK                            x       y       z     vdW  Elec       q    Type
REMARK                         _______ _______ _______ _____ _____    ______ ____
ROOT
ATOM      1  C   UNL     1      -0.798  12.166  19.925  0.00  0.00    +0.000 C 
ATOM      2  O   UNL     1      -0.132  13.172  19.673  0.00  0.00    +0.000 OA
ATOM      3  N   UNL     1      -0.192  11.007  20.452  0.00  0.00    +0.000 N 
ATOM      4  C   UNL     1      -0.874   9.732  20.494  0.00  0.00    +0.000 C 
ATOM      5  C   UNL     1      -0.394   8.767  21.558  0.00  0.00    +0.000 C 
ATOM      6  C   UNL     1       1.121   8.575  21.525  0.00  0.00    +0.000 C 
ATOM      7  C   UNL     1       1.768   9.977  21.593  0.00  0.00    +0.000 C 
ATOM      8  C   UNL     1       1.273  10.927  20.496  0.00  0.00    +0.000 C 
ENDROOT
BRANCH   1  17
ATOM      9  C   UNL     1      -2.820  10.423  15.079  0.00  0.00    +0.000 C 
ATOM     10  C   UNL     1      -3.253  11.001  16.391  0.00  0.00    +0.000 A 
ATOM     11  C   UNL     1      -4.671  11.298  16.567  0.00  0.00    +0.000 A 
ATOM     12  C   UNL     1      -5.146  11.796  17.720  0.00  0.00    +0.000 A 
ATOM     13  C   UNL     1      -4.259  12.044  18.800  0.00  0.00    +0.000 A 
ATOM     14  N   UNL     1      -4.515  12.490  19.998  0.00  0.00    +0.000 NA
ATOM     15  C   UNL     1      -3.305  12.559  20.645  0.00  0.00    +0.000 A 
ATOM     16  C   UNL     1      -3.386  12.993  22.065  0.00  0.00    +0.000 C 
ATOM     17  C   UNL     1      -2.254  12.200  19.786  0.00  0.00    +0.000 A 
ATOM     18  N   UNL     1      -2.905  11.792  18.617  0.00  0.00    +0.000 N 
ATOM     19  C   UNL     1      -2.407  11.259  17.412  0.00  0.00    +0.000 A 
ENDBRANCH   1  17
BRANCH   6  20
ATOM     20  C   UNL     1       1.668   7.667  20.422  0.00  0.00    +0.000 A 
ATOM     21  C   UNL     1       2.074   8.123  19.153  0.00  0.00    +0.000 A 
ATOM     22  C   UNL     1       2.493   7.231  18.160  0.00  0.00    +0.000 A 
ATOM     23  C   UNL     1       2.490   5.870  18.416  0.00  0.00    +0.000 A 
ATOM     24  F   UNL     1       2.864   5.015  17.456  0.00  0.00    +0.000 F 
ATOM     25  C   UNL     1       2.082   5.385  19.649  0.00  0.00    +0.000 A 
ATOM     26  C   UNL     1       1.674   6.277  20.643  0.00  0.00    +0.000 A 
ENDBRANCH   6  20
TORSDOF 2
ENDMDL
MODEL 6
REMARK VINA RESULT:      -7.3      3.444      7.969
REMARK  Name = 
REMARK  4 active torsions:
REMARK  status: ('A' for Active; 'I' for Inactive)
REMARK    1  A    between atoms: C_1  and  C_2
REMARK    2  A    between atoms: C_7  and  C_8
REMARK    3  A    between atoms: C_9  and  C_10
REMARK    4  A    between atoms: C_15  and  C_16
REMARK                            x       y       z     vdW  Elec       q    Type
REMARK                         _______ _______ _______ _____ _____    ______ ____
ROOT
ATOM      1  C   UNL     1       1.122   9.547  20.744  0.00  0.00    +0.000 C 
ATOM      2  O   UNL     1       0.947   9.408  21.956  0.00  0.00    +0.000 OA
ATOM      3  N   UNL     1       1.559   8.469  19.946  0.00  0.00    +0.000 N 
ATOM      4  C   UNL     1       2.042   8.657  18.596  0.00  0.00    +0.000 C 
ATOM      5  C   UNL     1       1.919   7.455  17.683  0.00  0.00    +0.000 C 
ATOM      6  C   UNL     1       2.511   6.192  18.305  0.00  0.00    +0.000 C 
ATOM      7  C   UNL     1       1.861   6.010  19.694  0.00  0.00    +0.000 C 
ATOM      8  C   UNL     1       2.013   7.237  20.601  0.00  0.00    +0.000 C 
ENDROOT
BRANCH   1  17
ATOM      9  C   UNL     1      -3.392   9.458  17.546  0.00  0.00    +0.000 C 
ATOM     10  C   UNL     1      -2.288  10.367  17.992  0.00  0.00    +0.000 A 
ATOM     11  C   UNL     1      -2.247  11.712  17.428  0.00  0.00    +0.000 A 
ATOM     12  C   UNL     1      -1.304  12.597  17.792  0.00  0.00    +0.000 A 
ATOM     13  C   UNL     1      -0.320  12.228  18.747  0.00  0.00    +0.000 A 
ATOM     14  N   UNL     1       0.650  12.935  19.254  0.00  0.00    +0.000 NA
ATOM     15  C   UNL     1       1.316  12.102  20.120  0.00  0.00    +0.000 A 
ATOM     16  C   UNL     1       2.437  12.743  20.856  0.00  0.00    +0.000 C 
ATOM     17  C   UNL     1       0.769  10.809  20.094  0.00  0.00    +0.000 A 
ATOM     18  N   UNL     1      -0.344  10.936  19.256  0.00  0.00    +0.000 N 
ATOM     19  C   UNL     1      -1.338  10.010  18.884  0.00  0.00    +0.000 A 
ENDBRANCH   1  17
BRANCH   6  20
ATOM     20  C   UNL     1       4.037   6.077  18.288  0.00  0.00    +0.000 A 
ATOM     21  C   UNL     1       4.786   5.391  19.262  0.00  0.00    +0.000 A 
ATOM     22  C   UNL     1       6.186   5.387  19.233  0.00  0.00    +0.000 A 
ATOM     23  C   UNL     1       6.852   6.088  18.242  0.00  0.00    +0.000 A 
ATOM     24  F   UNL     1       8.191   6.108  18.231  0.00  0.00    +0.000 F 
ATOM     25  C   UNL     1       6.146   6.787  17.275  0.00  0.00    +0.000 A 
ATOM     26  C   UNL     1       4.749   6.781  17.299  0.00  0.00    +0.000 A 
ENDBRANCH   6  20
TORSDOF 2
ENDMDL
MODEL 7
REMARK VINA RESULT:      -7.2      3.253      7.736
REMARK  Name = 
REMARK  4 active torsions:
REMARK  status: ('A' for Active; 'I' for Inactive)
REMARK    1  A    between atoms: C_1  and  C_2
REMARK    2  A    between atoms: C_7  and  C_8
REMARK    3  A    between atoms: C_9  and  C_10
REMARK    4  A    between atoms: C_15  and  C_16
REMARK                            x       y       z     vdW  Elec       q    Type
REMARK                         _______ _______ _______ _____ _____    ______ ____
ROOT
ATOM      1  C   UNL     1       1.320   9.645  18.242  0.00  0.00    +0.000 C 
ATOM      2  O   UNL     1       1.849  10.049  17.204  0.00  0.00    +0.000 OA
ATOM      3  N   UNL     1       1.803   8.497  18.903  0.00  0.00    +0.000 N 
ATOM      4  C   UNL     1       1.051   7.835  19.946  0.00  0.00    +0.000 C 
ATOM      5  C   UNL     1       1.870   7.035  20.937  0.00  0.00    +0.000 C 
ATOM      6  C   UNL     1       2.822   6.060  20.247  0.00  0.00    +0.000 C 
ATOM      7  C   UNL     1       3.658   6.868  19.231  0.00  0.00    +0.000 C 
ATOM      8  C   UNL     1       2.803   7.658  18.233  0.00  0.00    +0.000 C 
ENDROOT
BRANCH   1  17
ATOM      9  C   UNL     1      -3.477   9.822  15.491  0.00  0.00    +0.000 C 
ATOM     10  C   UNL     1      -2.810  10.355  16.721  0.00  0.00    +0.000 A 
ATOM     11  C   UNL     1      -3.562  11.295  17.548  0.00  0.00    +0.000 A 
ATOM     12  C   UNL     1      -3.046  11.801  18.679  0.00  0.00    +0.000 A 
ATOM     13  C   UNL     1      -1.741  11.424  19.092  0.00  0.00    +0.000 A 
ATOM     14  N   UNL     1      -1.075  11.771  20.157  0.00  0.00    +0.000 NA
ATOM     15  C   UNL     1       0.141  11.137  20.069  0.00  0.00    +0.000 A 
ATOM     16  C   UNL     1       1.039  11.357  21.233  0.00  0.00    +0.000 C 
ATOM     17  C   UNL     1       0.249  10.421  18.866  0.00  0.00    +0.000 A 
ATOM     18  N   UNL     1      -1.017  10.556  18.285  0.00  0.00    +0.000 N 
ATOM     19  C   UNL     1      -1.560  10.015  17.104  0.00  0.00    +0.000 A 
ENDBRANCH   1  17
BRANCH   6  20
ATOM     20  C   UNL     1       2.198   4.778  19.692  0.00  0.00    +0.000 A 
ATOM     21  C   UNL     1       2.400   4.306  18.381  0.00  0.00    +0.000 A 
ATOM     22  C   UNL     1       1.739   3.166  17.909  0.00  0.00    +0.000 A 
ATOM     23  C   UNL     1       0.851   2.498  18.736  0.00  0.00    +0.000 A 
ATOM     24  F   UNL     1       0.197   1.424  18.274  0.00  0.00    +0.000 F 
ATOM     25  C   UNL     1       0.617   2.943  20.027  0.00  0.00    +0.000 A 
ATOM     26  C   UNL     1       1.286   4.074  20.501  0.00  0.00    +0.000 A 
ENDBRANCH   6  20
TORSDOF 2
ENDMDL
MODEL 8
REMARK VINA RESULT:      -7.2      4.125      8.836
REMARK  Name = 
REMARK  4 active torsions:
REMARK  status: ('A' for Active; 'I' for Inactive)
REMARK    1  A    between atoms: C_1  and  C_2
REMARK    2  A    between atoms: C_7  and  C_8
REMARK    3  A    between atoms: C_9  and  C_10
REMARK    4  A    between atoms: C_15  and  C_16
REMARK                            x       y       z     vdW  Elec       q    Type
REMARK                         _______ _______ _______ _____ _____    ______ ____
ROOT
ATOM      1  C   UNL     1      -1.352  12.034  18.266  0.00  0.00    +0.000 C 
ATOM      2  O   UNL     1      -0.833  13.064  17.830  0.00  0.00    +0.000 OA
ATOM      3  N   UNL     1      -0.622  11.142  19.079  0.00  0.00    +0.000 N 
ATOM      4  C   UNL     1      -1.093   9.806  19.370  0.00  0.00    +0.000 C 
ATOM      5  C   UNL     1      -0.571   9.193  20.653  0.00  0.00    +0.000 C 
ATOM      6  C   UNL     1       0.951   9.271  20.755  0.00  0.00    +0.000 C 
ATOM      7  C   UNL     1       1.356  10.746  20.539  0.00  0.00    +0.000 C 
ATOM      8  C   UNL     1       0.825  11.335  19.227  0.00  0.00    +0.000 C 
ENDROOT
BRANCH   1  17
ATOM      9  C   UNL     1      -4.759  13.324  22.430  0.00  0.00    +0.000 C 
ATOM     10  C   UNL     1      -4.758  12.723  21.058  0.00  0.00    +0.000 A 
ATOM     11  C   UNL     1      -6.026  12.221  20.536  0.00  0.00    +0.000 A 
ATOM     12  C   UNL     1      -6.116  11.689  19.307  0.00  0.00    +0.000 A 
ATOM     13  C   UNL     1      -4.961  11.605  18.486  0.00  0.00    +0.000 A 
ATOM     14  N   UNL     1      -4.839  11.159  17.268  0.00  0.00    +0.000 NA
ATOM     15  C   UNL     1      -3.510  11.290  16.946  0.00  0.00    +0.000 A 
ATOM     16  C   UNL     1      -3.168  10.886  15.556  0.00  0.00    +0.000 C 
ATOM     17  C   UNL     1      -2.774  11.779  18.036  0.00  0.00    +0.000 A 
ATOM     18  N   UNL     1      -3.750  12.053  19.000  0.00  0.00    +0.000 N 
ATOM     19  C   UNL     1      -3.656  12.622  20.284  0.00  0.00    +0.000 A 
ENDBRANCH   1  17
BRANCH   6  20
ATOM     20  C   UNL     1       1.741   8.259  19.923  0.00  0.00    +0.000 A 
ATOM     21  C   UNL     1       2.208   8.503  18.618  0.00  0.00    +0.000 A 
ATOM     22  C   UNL     1       2.858   7.507  17.881  0.00  0.00    +0.000 A 
ATOM     23  C   UNL     1       3.029   6.248  18.432  0.00  0.00    +0.000 A 
ATOM     24  F   UNL     1       3.626   5.287  17.715  0.00  0.00    +0.000 F 
ATOM     25  C   UNL     1       2.569   5.968  19.709  0.00  0.00    +0.000 A 
ATOM     26  C   UNL     1       1.929   6.966  20.448  0.00  0.00    +0.000 A 
ENDBRANCH   6  20
TORSDOF 2
ENDMDL
MODEL 9
REMARK VINA RESULT:      -7.1      6.998      8.896
REMARK  Name = 
REMARK  4 active torsions:
REMARK  status: ('A' for Active; 'I' for Inactive)
REMARK    1  A    between atoms: C_1  and  C_2
REMARK    2  A    between atoms: C_7  and  C_8
REMARK    3  A    between atoms: C_9  and  C_10
REMARK    4  A    between atoms: C_15  and  C_16
REMARK                            x       y       z     vdW  Elec       q    Type
REMARK                         _______ _______ _______ _____ _____    ______ ____
ROOT
ATOM      1  C   UNL     1       7.672  15.209  20.062  0.00  0.00    +0.000 C 
ATOM      2  O   UNL     1       8.002  15.413  21.232  0.00  0.00    +0.000 OA
ATOM      3  N   UNL     1       6.317  15.249  19.673  0.00  0.00    +0.000 N 
ATOM      4  C   UNL     1       5.868  14.743  18.395  0.00  0.00    +0.000 C 
ATOM      5  C   UNL     1       4.584  15.346  17.865  0.00  0.00    +0.000 C 
ATOM      6  C   UNL     1       3.457  15.305  18.896  0.00  0.00    +0.000 C 
ATOM      7  C   UNL     1       3.988  15.961  20.190  0.00  0.00    +0.000 C 
ATOM      8  C   UNL     1       5.280  15.321  20.709  0.00  0.00    +0.000 C 
ENDROOT
BRANCH   1  17
ATOM      9  C   UNL     1       9.270  10.002  19.093  0.00  0.00    +0.000 C 
ATOM     10  C   UNL     1       9.557  11.412  18.681  0.00  0.00    +0.000 A 
ATOM     11  C   UNL     1      10.643  11.635  17.731  0.00  0.00    +0.000 A 
ATOM     12  C   UNL     1      10.950  12.866  17.293  0.00  0.00    +0.000 A 
ATOM     13  C   UNL     1      10.210  13.986  17.756  0.00  0.00    +0.000 A 
ATOM     14  N   UNL     1      10.323  15.244  17.436  0.00  0.00    +0.000 NA
ATOM     15  C   UNL     1       9.377  15.911  18.177  0.00  0.00    +0.000 A 
ATOM     16  C   UNL     1       9.301  17.372  17.911  0.00  0.00    +0.000 C 
ATOM     17  C   UNL     1       8.697  15.031  19.034  0.00  0.00    +0.000 A 
ATOM     18  N   UNL     1       9.199  13.773  18.684  0.00  0.00    +0.000 N 
ATOM     19  C   UNL     1       8.868  12.481  19.137  0.00  0.00    +0.000 A 
ENDBRANCH   1  17
BRANCH   6  20
ATOM     20  C   UNL     1       2.767  13.955  19.095  0.00  0.00    +0.000 A 
ATOM     21  C   UNL     1       2.671  12.963  18.101  0.00  0.00    +0.000 A 
ATOM     22  C   UNL     1       1.959  11.779  18.322  0.00  0.00    +0.000 A 
ATOM     23  C   UNL     1       1.315  11.582  19.532  0.00  0.00    +0.000 A 
ATOM     24  F   UNL     1       0.610  10.461  19.732  0.00  0.00    +0.000 F 
ATOM     25  C   UNL     1       1.376  12.544  20.528  0.00  0.00    +0.000 A 
ATOM     26  C   UNL     1       2.096  13.721  20.311  0.00  0.00    +0.000 A 
ENDBRANCH   6  20
TORSDOF 2
ENDMDL
