MODEL 1
REMARK VINA RESULT:      -9.5      0.000      0.000
REMARK  Name = 
REMARK  7 active torsions:
REMARK  status: ('A' for Active; 'I' for Inactive)
REMARK    1  A    between atoms: C_1  and  C_2
REMARK    2  A    between atoms: C_5  and  C_6
REMARK    3  A    between atoms: C_12  and  C_13
REMARK    4  A    between atoms: C_13  and  O_14
REMARK    5  A    between atoms: O_14  and  C_15
REMARK    6  A    between atoms: C_18  and  C_19
REMARK    7  A    between atoms: N_21  and  C_22
REMARK                            x       y       z     vdW  Elec       q    Type
REMARK                         _______ _______ _______ _____ _____    ______ ____
ROOT
ATOM      1  C   UNL     1       3.878   5.235  17.845  0.00  0.00    +0.000 A 
ATOM      2  C   UNL     1       3.836   6.496  17.261  0.00  0.00    +0.000 A 
ATOM      3  C   UNL     1       3.108   7.600  17.899  0.00  0.00    +0.000 A 
ATOM      4  C   UNL     1       2.423   7.439  19.114  0.00  0.00    +0.000 A 
ATOM      5  C   UNL     1       2.578   6.138  19.623  0.00  0.00    +0.000 A 
ATOM      6  N   UNL     1       3.270   5.066  19.041  0.00  0.00    +0.000 NA
ENDROOT
BRANCH   4   7
ATOM      7  C   UNL     1       1.542   8.470  19.962  0.00  0.00    +0.000 C 
ATOM      8  O   UNL     1       1.257   8.178  21.120  0.00  0.00    +0.000 OA
ATOM      9  N   UNL     1       1.122   9.690  19.413  0.00  0.00    +0.000 N 
ATOM     10  H   UNL     1       1.700   9.916  18.616  0.00  0.00    +0.000 HD
BRANCH   9  11
ATOM     11  C   UNL     1       0.593  11.021  20.090  0.00  0.00    +0.000 C 
ATOM     12  C   UNL     1       0.404  11.972  18.852  0.00  0.00    +0.000 C 
ATOM     13  O   UNL     1      -0.379  13.145  19.032  0.00  0.00    +0.000 OA
ATOM     14  C   UNL     1      -1.718  12.778  19.327  0.00  0.00    +0.000 C 
ATOM     15  C   UNL     1      -1.706  12.141  20.683  0.00  0.00    +0.000 A 
ATOM     16  C   UNL     1      -2.690  12.612  21.592  0.00  0.00    +0.000 A 
ATOM     17  C   UNL     1      -2.665  12.216  22.917  0.00  0.00    +0.000 A 
ATOM     18  C   UNL     1      -1.675  11.321  23.310  0.00  0.00    +0.000 A 
ATOM     19  C   UNL     1      -0.700  10.816  22.391  0.00  0.00    +0.000 A 
ATOM     20  C   UNL     1      -0.677  11.201  21.035  0.00  0.00    +0.000 A 
ENDBRANCH   9  11
ENDBRANCH   4   7
BRANCH   1  21
ATOM     21  O   UNL     1       4.591   4.128  17.383  0.00  0.00    +0.000 OA
BRANCH  21  22
ATOM     22  C   UNL     1       4.525   3.813  15.963  0.00  0.00    +0.000 C 
BRANCH  22  28
ATOM     23  C   UNL     1       5.241   3.334  12.580  0.00  0.00    +0.000 C 
ATOM     24  C   UNL     1       5.911   4.043  13.677  0.00  0.00    +0.000 A 
ATOM     25  O   UNL     1       7.064   4.633  13.301  0.00  0.00    +0.000 OA
ATOM     26  N   UNL     1       7.663   5.255  14.364  0.00  0.00    +0.000 NA
ATOM     27  C   UNL     1       6.869   5.041  15.427  0.00  0.00    +0.000 A 
ATOM     28  C   UNL     1       5.680   4.264  15.043  0.00  0.00    +0.000 A 
BRANCH  27  29
ATOM     29  C   UNL     1       7.322   5.598  16.718  0.00  0.00    +0.000 A 
ATOM     30  C   UNL     1       7.613   4.782  17.810  0.00  0.00    +0.000 A 
ATOM     31  C   UNL     1       8.044   5.336  19.024  0.00  0.00    +0.000 A 
ATOM     32  C   UNL     1       8.164   6.711  19.173  0.00  0.00    +0.000 A 
ATOM     33  C   UNL     1       7.835   7.552  18.109  0.00  0.00    +0.000 A 
ATOM     34  C   UNL     1       7.418   6.994  16.890  0.00  0.00    +0.000 A 
ENDBRANCH  27  29
ENDBRANCH  22  28
ENDBRANCH  21  22
ENDBRANCH   1  21
TORSDOF 6
ENDMDL
MODEL 2
REMARK VINA RESULT:      -9.4      2.689      4.653
REMARK  Name = 
REMARK  7 active torsions:
REMARK  status: ('A' for Active; 'I' for Inactive)
REMARK    1  A    between atoms: C_1  and  C_2
REMARK    2  A    between atoms: C_5  and  C_6
REMARK    3  A    between atoms: C_12  and  C_13
REMARK    4  A    between atoms: C_13  and  O_14
REMARK    5  A    between atoms: O_14  and  C_15
REMARK    6  A    between atoms: C_18  and  C_19
REMARK    7  A    between atoms: N_21  and  C_22
REMARK                            x       y       z     vdW  Elec       q    Type
REMARK                         _______ _______ _______ _____ _____    ______ ____
ROOT
ATOM      1  C   UNL     1       2.059   8.052  18.394  0.00  0.00    +0.000 A 
ATOM      2  C   UNL     1       1.827   9.272  17.769  0.00  0.00    +0.000 A 
ATOM      3  C   UNL     1       1.232  10.395  18.503  0.00  0.00    +0.000 A 
ATOM      4  C   UNL     1       0.868  10.295  19.855  0.00  0.00    +0.000 A 
ATOM      5  C   UNL     1       1.193   9.033  20.382  0.00  0.00    +0.000 A 
ATOM      6  N   UNL     1       1.766   7.944  19.709  0.00  0.00    +0.000 NA
ENDROOT
BRANCH   4   7
ATOM      7  C   UNL     1       0.177  11.355  20.834  0.00  0.00    +0.000 C 
ATOM      8  O   UNL     1       0.863  11.869  21.713  0.00  0.00    +0.000 OA
ATOM      9  N   UNL     1      -1.170  11.713  20.683  0.00  0.00    +0.000 N 
ATOM     10  H   UNL     1      -1.478  11.474  19.751  0.00  0.00    +0.000 HD
BRANCH   9  11
ATOM     11  C   UNL     1      -1.995  12.953  21.223  0.00  0.00    +0.000 C 
ATOM     12  C   UNL     1      -3.433  12.669  20.655  0.00  0.00    +0.000 C 
ATOM     13  O   UNL     1      -4.521  13.392  21.215  0.00  0.00    +0.000 OA
ATOM     14  C   UNL     1      -4.670  13.037  22.582  0.00  0.00    +0.000 C 
ATOM     15  C   UNL     1      -3.470  13.572  23.303  0.00  0.00    +0.000 A 
ATOM     16  C   UNL     1      -3.742  14.295  24.496  0.00  0.00    +0.000 A 
ATOM     17  C   UNL     1      -2.729  14.971  25.151  0.00  0.00    +0.000 A 
ATOM     18  C   UNL     1      -1.444  14.887  24.623  0.00  0.00    +0.000 A 
ATOM     19  C   UNL     1      -1.157  14.133  23.440  0.00  0.00    +0.000 A 
ATOM     20  C   UNL     1      -2.159  13.439  22.732  0.00  0.00    +0.000 A 
ENDBRANCH   9  11
ENDBRANCH   4   7
BRANCH   1  21
ATOM     21  O   UNL     1       2.683   6.936  17.833  0.00  0.00    +0.000 OA
BRANCH  21  22
ATOM     22  C   UNL     1       4.120   6.997  17.606  0.00  0.00    +0.000 C 
BRANCH  22  28
ATOM     23  C   UNL     1       7.574   6.513  17.745  0.00  0.00    +0.000 C 
ATOM     24  C   UNL     1       6.415   5.762  18.243  0.00  0.00    +0.000 A 
ATOM     25  O   UNL     1       6.755   4.629  18.889  0.00  0.00    +0.000 OA
ATOM     26  N   UNL     1       5.641   3.953  19.309  0.00  0.00    +0.000 NA
ATOM     27  C   UNL     1       4.583   4.677  18.907  0.00  0.00    +0.000 A 
ATOM     28  C   UNL     1       5.019   5.899  18.213  0.00  0.00    +0.000 A 
BRANCH  27  29
ATOM     29  C   UNL     1       3.247   4.132  19.220  0.00  0.00    +0.000 A 
ATOM     30  C   UNL     1       2.597   4.419  20.419  0.00  0.00    +0.000 A 
ATOM     31  C   UNL     1       1.326   3.892  20.692  0.00  0.00    +0.000 A 
ATOM     32  C   UNL     1       0.700   3.050  19.784  0.00  0.00    +0.000 A 
ATOM     33  C   UNL     1       1.348   2.710  18.595  0.00  0.00    +0.000 A 
ATOM     34  C   UNL     1       2.614   3.251  18.319  0.00  0.00    +0.000 A 
ENDBRANCH  27  29
ENDBRANCH  22  28
ENDBRANCH  21  22
ENDBRANCH   1  21
TORSDOF 6
ENDMDL
MODEL 3
REMARK VINA RESULT:      -9.2      2.632      4.457
REMARK  Name = 
REMARK  7 active torsions:
REMARK  status: ('A' for Active; 'I' for Inactive)
REMARK    1  A    between atoms: C_1  and  C_2
REMARK    2  A    between atoms: C_5  and  C_6
REMARK    3  A    between atoms: C_12  and  C_13
REMARK    4  A    between atoms: C_13  and  O_14
REMARK    5  A    between atoms: O_14  and  C_15
REMARK    6  A    between atoms: C_18  and  C_19
REMARK    7  A    between atoms: N_21  and  C_22
REMARK                            x       y       z     vdW  Elec       q    Type
REMARK                         _______ _______ _______ _____ _____    ______ ____
ROOT
ATOM      1  C   UNL     1       2.163   7.629  18.886  0.00  0.00    +0.000 A 
ATOM      2  C   UNL     1       2.096   7.163  20.195  0.00  0.00    +0.000 A 
ATOM      3  C   UNL     1       1.416   7.938  21.239  0.00  0.00    +0.000 A 
ATOM      4  C   UNL     1       0.808   9.176  20.973  0.00  0.00    +0.000 A 
ATOM      5  C   UNL     1       0.903   9.514  19.612  0.00  0.00    +0.000 A 
ATOM      6  N   UNL     1       1.540   8.793  18.592  0.00  0.00    +0.000 NA
ENDROOT
BRANCH   4   7
ATOM      7  C   UNL     1       0.057  10.201  21.944  0.00  0.00    +0.000 C 
ATOM      8  O   UNL     1       0.325  10.173  23.142  0.00  0.00    +0.000 OA
ATOM      9  N   UNL     1      -0.868  11.130  21.444  0.00  0.00    +0.000 N 
ATOM     10  H   UNL     1      -0.723  11.247  20.452  0.00  0.00    +0.000 HD
BRANCH   9  11
ATOM     11  C   UNL     1      -1.459  12.463  22.064  0.00  0.00    +0.000 C 
ATOM     12  C   UNL     1      -1.147  13.518  20.941  0.00  0.00    +0.000 C 
ATOM     13  O   UNL     1      -1.831  14.763  20.994  0.00  0.00    +0.000 OA
ATOM     14  C   UNL     1      -3.223  14.545  20.814  0.00  0.00    +0.000 C 
ATOM     15  C   UNL     1      -3.709  13.814  22.028  0.00  0.00    +0.000 A 
ATOM     16  C   UNL     1      -4.885  14.336  22.631  0.00  0.00    +0.000 A 
ATOM     17  C   UNL     1      -5.326  13.844  23.846  0.00  0.00    +0.000 A 
ATOM     18  C   UNL     1      -4.605  12.806  24.428  0.00  0.00    +0.000 A 
ATOM     19  C   UNL     1      -3.438  12.252  23.810  0.00  0.00    +0.000 A 
ATOM     20  C   UNL     1      -2.943  12.730  22.579  0.00  0.00    +0.000 A 
ENDBRANCH   9  11
ENDBRANCH   4   7
BRANCH   1  21
ATOM     21  O   UNL     1       2.711   6.958  17.792  0.00  0.00    +0.000 OA
BRANCH  21  22
ATOM     22  C   UNL     1       4.148   7.053  17.579  0.00  0.00    +0.000 C 
BRANCH  22  28
ATOM     23  C   UNL     1       7.611   6.694  17.838  0.00  0.00    +0.000 C 
ATOM     24  C   UNL     1       6.464   5.883  18.265  0.00  0.00    +0.000 A 
ATOM     25  O   UNL     1       6.823   4.743  18.888  0.00  0.00    +0.000 OA
ATOM     26  N   UNL     1       5.720   4.012  19.241  0.00  0.00    +0.000 NA
ATOM     27  C   UNL     1       4.651   4.709  18.822  0.00  0.00    +0.000 A 
ATOM     28  C   UNL     1       5.065   5.969  18.186  0.00  0.00    +0.000 A 
BRANCH  27  29
ATOM     29  C   UNL     1       3.326   4.105  19.065  0.00  0.00    +0.000 A 
ATOM     30  C   UNL     1       2.849   3.869  20.354  0.00  0.00    +0.000 A 
ATOM     31  C   UNL     1       1.585   3.297  20.558  0.00  0.00    +0.000 A 
ATOM     32  C   UNL     1       0.793   2.927  19.480  0.00  0.00    +0.000 A 
ATOM     33  C   UNL     1       1.265   3.111  18.180  0.00  0.00    +0.000 A 
ATOM     34  C   UNL     1       2.525   3.698  17.979  0.00  0.00    +0.000 A 
ENDBRANCH  27  29
ENDBRANCH  22  28
ENDBRANCH  21  22
ENDBRANCH   1  21
TORSDOF 6
ENDMDL
MODEL 4
REMARK VINA RESULT:      -9.2      2.517      4.310
REMARK  Name = 
REMARK  7 active torsions:
REMARK  status: ('A' for Active; 'I' for Inactive)
REMARK    1  A    between atoms: C_1  and  C_2
REMARK    2  A    between atoms: C_5  and  C_6
REMARK    3  A    between atoms: C_12  and  C_13
REMARK    4  A    between atoms: C_13  and  O_14
REMARK    5  A    between atoms: O_14  and  C_15
REMARK    6  A    between atoms: C_18  and  C_19
REMARK    7  A    between atoms: N_21  and  C_22
REMARK                            x       y       z     vdW  Elec       q    Type
REMARK                         _______ _______ _______ _____ _____    ______ ____
ROOT
ATOM      1  C   UNL     1       2.094   7.520  18.645  0.00  0.00    +0.000 A 
ATOM      2  C   UNL     1       1.899   8.665  17.879  0.00  0.00    +0.000 A 
ATOM      3  C   UNL     1       1.367   9.894  18.481  0.00  0.00    +0.000 A 
ATOM      4  C   UNL     1       1.029   9.974  19.841  0.00  0.00    +0.000 A 
ATOM      5  C   UNL     1       1.314   8.772  20.513  0.00  0.00    +0.000 A 
ATOM      6  N   UNL     1       1.826   7.586  19.968  0.00  0.00    +0.000 NA
ENDROOT
BRANCH   4   7
ATOM      7  C   UNL     1       0.405  11.174  20.695  0.00  0.00    +0.000 C 
ATOM      8  O   UNL     1       1.166  11.879  21.352  0.00  0.00    +0.000 OA
ATOM      9  N   UNL     1      -0.972  11.437  20.679  0.00  0.00    +0.000 N 
ATOM     10  H   UNL     1      -1.386  11.008  19.864  0.00  0.00    +0.000 HD
BRANCH   9  11
ATOM     11  C   UNL     1      -1.801  12.722  21.092  0.00  0.00    +0.000 C 
ATOM     12  C   UNL     1      -3.174  12.481  20.363  0.00  0.00    +0.000 C 
ATOM     13  O   UNL     1      -4.288  13.260  20.776  0.00  0.00    +0.000 OA
ATOM     14  C   UNL     1      -4.612  12.945  22.122  0.00  0.00    +0.000 C 
ATOM     15  C   UNL     1      -3.485  13.450  22.970  0.00  0.00    +0.000 A 
ATOM     16  C   UNL     1      -3.865  14.212  24.107  0.00  0.00    +0.000 A 
ATOM     17  C   UNL     1      -2.908  14.864  24.864  0.00  0.00    +0.000 A 
ATOM     18  C   UNL     1      -1.575  14.716  24.495  0.00  0.00    +0.000 A 
ATOM     19  C   UNL     1      -1.182  13.922  23.370  0.00  0.00    +0.000 A 
ATOM     20  C   UNL     1      -2.122  13.251  22.561  0.00  0.00    +0.000 A 
ENDBRANCH   9  11
ENDBRANCH   4   7
BRANCH   1  21
ATOM     21  O   UNL     1       2.659   6.319  18.214  0.00  0.00    +0.000 OA
BRANCH  21  22
ATOM     22  C   UNL     1       2.072   5.075  18.692  0.00  0.00    +0.000 C 
BRANCH  22  28
ATOM     23  C   UNL     1       1.756   3.058  21.524  0.00  0.00    +0.000 C 
ATOM     24  C   UNL     1       2.800   3.237  20.507  0.00  0.00    +0.000 A 
ATOM     25  O   UNL     1       3.881   2.460  20.714  0.00  0.00    +0.000 OA
ATOM     26  N   UNL     1       4.834   2.683  19.757  0.00  0.00    +0.000 NA
ATOM     27  C   UNL     1       4.339   3.628  18.941  0.00  0.00    +0.000 A 
ATOM     28  C   UNL     1       2.987   4.028  19.363  0.00  0.00    +0.000 A 
BRANCH  27  29
ATOM     29  C   UNL     1       5.205   4.068  17.829  0.00  0.00    +0.000 A 
ATOM     30  C   UNL     1       4.820   3.933  16.496  0.00  0.00    +0.000 A 
ATOM     31  C   UNL     1       5.660   4.362  15.458  0.00  0.00    +0.000 A 
ATOM     32  C   UNL     1       6.907   4.904  15.736  0.00  0.00    +0.000 A 
ATOM     33  C   UNL     1       7.337   5.008  17.060  0.00  0.00    +0.000 A 
ATOM     34  C   UNL     1       6.487   4.592  18.097  0.00  0.00    +0.000 A 
ENDBRANCH  27  29
ENDBRANCH  22  28
ENDBRANCH  21  22
ENDBRANCH   1  21
TORSDOF 6
ENDMDL
MODEL 5
REMARK VINA RESULT:      -9.1      2.652      4.630
REMARK  Name = 
REMARK  7 active torsions:
REMARK  status: ('A' for Active; 'I' for Inactive)
REMARK    1  A    between atoms: C_1  and  C_2
REMARK    2  A    between atoms: C_5  and  C_6
REMARK    3  A    between atoms: C_12  and  C_13
REMARK    4  A    between atoms: C_13  and  O_14
REMARK    5  A    between atoms: O_14  and  C_15
REMARK    6  A    between atoms: C_18  and  C_19
REMARK    7  A    between atoms: N_21  and  C_22
REMARK                            x       y       z     vdW  Elec       q    Type
REMARK                         _______ _______ _______ _____ _____    ______ ____
ROOT
ATOM      1  C   UNL     1       2.027   7.927  18.567  0.00  0.00    +0.000 A 
ATOM      2  C   UNL     1       1.807   7.902  19.940  0.00  0.00    +0.000 A 
ATOM      3  C   UNL     1       1.077   8.987  20.608  0.00  0.00    +0.000 A 
ATOM      4  C   UNL     1       0.573  10.092  19.904  0.00  0.00    +0.000 A 
ATOM      5  C   UNL     1       0.819   9.978  18.524  0.00  0.00    +0.000 A 
ATOM      6  N   UNL     1       1.507   8.954  17.858  0.00  0.00    +0.000 NA
ENDROOT
BRANCH   4   7
ATOM      7  C   UNL     1      -0.205  11.392  20.416  0.00  0.00    +0.000 C 
ATOM      8  O   UNL     1      -1.096  11.854  19.710  0.00  0.00    +0.000 OA
ATOM      9  N   UNL     1       0.100  11.982  21.652  0.00  0.00    +0.000 N 
ATOM     10  H   UNL     1       0.589  11.314  22.230  0.00  0.00    +0.000 HD
BRANCH   9  11
ATOM     11  C   UNL     1      -0.711  12.993  22.563  0.00  0.00    +0.000 C 
ATOM     12  C   UNL     1      -0.257  14.388  21.997  0.00  0.00    +0.000 C 
ATOM     13  O   UNL     1      -1.034  15.527  22.342  0.00  0.00    +0.000 OA
ATOM     14  C   UNL     1      -2.336  15.395  21.790  0.00  0.00    +0.000 C 
ATOM     15  C   UNL     1      -3.004  14.268  22.516  0.00  0.00    +0.000 A 
ATOM     16  C   UNL     1      -4.318  14.534  22.988  0.00  0.00    +0.000 A 
ATOM     17  C   UNL     1      -4.962  13.628  23.811  0.00  0.00    +0.000 A 
ATOM     18  C   UNL     1      -4.298  12.447  24.124  0.00  0.00    +0.000 A 
ATOM     19  C   UNL     1      -2.987  12.157  23.625  0.00  0.00    +0.000 A 
ATOM     20  C   UNL     1      -2.286  13.055  22.794  0.00  0.00    +0.000 A 
ENDBRANCH   9  11
ENDBRANCH   4   7
BRANCH   1  21
ATOM     21  O   UNL     1       2.636   6.930  17.804  0.00  0.00    +0.000 OA
BRANCH  21  22
ATOM     22  C   UNL     1       4.074   7.011  17.593  0.00  0.00    +0.000 C 
BRANCH  22  28
ATOM     23  C   UNL     1       7.532   6.550  17.730  0.00  0.00    +0.000 C 
ATOM     24  C   UNL     1       6.379   5.793  18.231  0.00  0.00    +0.000 A 
ATOM     25  O   UNL     1       6.727   4.665  18.882  0.00  0.00    +0.000 OA
ATOM     26  N   UNL     1       5.618   3.983  19.305  0.00  0.00    +0.000 NA
ATOM     27  C   UNL     1       4.554   4.699  18.902  0.00  0.00    +0.000 A 
ATOM     28  C   UNL     1       4.981   5.921  18.203  0.00  0.00    +0.000 A 
BRANCH  27  29
ATOM     29  C   UNL     1       3.222   4.147  19.219  0.00  0.00    +0.000 A 
ATOM     30  C   UNL     1       2.617   4.347  20.459  0.00  0.00    +0.000 A 
ATOM     31  C   UNL     1       1.350   3.814  20.734  0.00  0.00    +0.000 A 
ATOM     32  C   UNL     1       0.681   3.052  19.786  0.00  0.00    +0.000 A 
ATOM     33  C   UNL     1       1.283   2.799  18.553  0.00  0.00    +0.000 A 
ATOM     34  C   UNL     1       2.546   3.346  18.275  0.00  0.00    +0.000 A 
ENDBRANCH  27  29
ENDBRANCH  22  28
ENDBRANCH  21  22
ENDBRANCH   1  21
TORSDOF 6
ENDMDL
MODEL 6
REMARK VINA RESULT:      -9.1      2.629      4.481
REMARK  Name = 
REMARK  7 active torsions:
REMARK  status: ('A' for Active; 'I' for Inactive)
REMARK    1  A    between atoms: C_1  and  C_2
REMARK    2  A    between atoms: C_5  and  C_6
REMARK    3  A    between atoms: C_12  and  C_13
REMARK    4  A    between atoms: C_13  and  O_14
REMARK    5  A    between atoms: O_14  and  C_15
REMARK    6  A    between atoms: C_18  and  C_19
REMARK    7  A    between atoms: N_21  and  C_22
REMARK                            x       y       z     vdW  Elec       q    Type
REMARK                         _______ _______ _______ _____ _____    ______ ____
ROOT
ATOM      1  C   UNL     1       2.526   7.575  18.866  0.00  0.00    +0.000 A 
ATOM      2  C   UNL     1       2.229   8.366  17.761  0.00  0.00    +0.000 A 
ATOM      3  C   UNL     1       1.235   9.442  17.848  0.00  0.00    +0.000 A 
ATOM      4  C   UNL     1       0.539   9.721  19.035  0.00  0.00    +0.000 A 
ATOM      5  C   UNL     1       0.958   8.886  20.086  0.00  0.00    +0.000 A 
ATOM      6  N   UNL     1       1.908   7.856  20.035  0.00  0.00    +0.000 NA
ENDROOT
BRANCH   4   7
ATOM      7  C   UNL     1      -0.600  10.798  19.350  0.00  0.00    +0.000 C 
ATOM      8  O   UNL     1      -0.353  11.688  20.159  0.00  0.00    +0.000 OA
ATOM      9  N   UNL     1      -1.845  10.751  18.705  0.00  0.00    +0.000 N 
ATOM     10  H   UNL     1      -1.765  10.197  17.864  0.00  0.00    +0.000 HD
BRANCH   9  11
ATOM     11  C   UNL     1      -2.979  11.842  18.528  0.00  0.00    +0.000 C 
ATOM     12  C   UNL     1      -3.652  11.406  17.175  0.00  0.00    +0.000 C 
ATOM     13  O   UNL     1      -4.928  11.950  16.865  0.00  0.00    +0.000 OA
ATOM     14  C   UNL     1      -5.877  11.504  17.822  0.00  0.00    +0.000 C 
ATOM     15  C   UNL     1      -5.517  12.149  19.125  0.00  0.00    +0.000 A 
ATOM     16  C   UNL     1      -6.590  12.764  19.824  0.00  0.00    +0.000 A 
ATOM     17  C   UNL     1      -6.345  13.529  20.950  0.00  0.00    +0.000 A 
ATOM     18  C   UNL     1      -5.028  13.641  21.386  0.00  0.00    +0.000 A 
ATOM     19  C   UNL     1      -3.945  12.997  20.706  0.00  0.00    +0.000 A 
ATOM     20  C   UNL     1      -4.145  12.219  19.547  0.00  0.00    +0.000 A 
ENDBRANCH   9  11
ENDBRANCH   4   7
BRANCH   1  21
ATOM     21  O   UNL     1       3.498   6.576  18.936  0.00  0.00    +0.000 OA
BRANCH  21  22
ATOM     22  C   UNL     1       3.293   5.484  19.876  0.00  0.00    +0.000 C 
BRANCH  22  28
ATOM     23  C   UNL     1       1.284   2.770  20.765  0.00  0.00    +0.000 C 
ATOM     24  C   UNL     1       2.301   2.995  19.731  0.00  0.00    +0.000 A 
ATOM     25  O   UNL     1       2.516   1.913  18.955  0.00  0.00    +0.000 OA
ATOM     26  N   UNL     1       3.490   2.164  18.026  0.00  0.00    +0.000 NA
ATOM     27  C   UNL     1       3.896   3.429  18.232  0.00  0.00    +0.000 A 
ATOM     28  C   UNL     1       3.138   4.048  19.331  0.00  0.00    +0.000 A 
BRANCH  27  29
ATOM     29  C   UNL     1       4.977   3.931  17.360  0.00  0.00    +0.000 A 
ATOM     30  C   UNL     1       4.844   3.975  15.973  0.00  0.00    +0.000 A 
ATOM     31  C   UNL     1       5.884   4.460  15.168  0.00  0.00    +0.000 A 
ATOM     32  C   UNL     1       7.080   4.881  15.733  0.00  0.00    +0.000 A 
ATOM     33  C   UNL     1       7.256   4.805  17.115  0.00  0.00    +0.000 A 
ATOM     34  C   UNL     1       6.207   4.333  17.921  0.00  0.00    +0.000 A 
ENDBRANCH  27  29
ENDBRANCH  22  28
ENDBRANCH  21  22
ENDBRANCH   1  21
TORSDOF 6
ENDMDL
MODEL 7
REMARK VINA RESULT:      -9.1      2.583      4.180
REMARK  Name = 
REMARK  7 active torsions:
REMARK  status: ('A' for Active; 'I' for Inactive)
REMARK    1  A    between atoms: C_1  and  C_2
REMARK    2  A    between atoms: C_5  and  C_6
REMARK    3  A    between atoms: C_12  and  C_13
REMARK    4  A    between atoms: C_13  and  O_14
REMARK    5  A    between atoms: O_14  and  C_15
REMARK    6  A    between atoms: C_18  and  C_19
REMARK    7  A    between atoms: N_21  and  C_22
REMARK                            x       y       z     vdW  Elec       q    Type
REMARK                         _______ _______ _______ _____ _____    ______ ____
ROOT
ATOM      1  C   UNL     1       2.202   7.570  18.546  0.00  0.00    +0.000 A 
ATOM      2  C   UNL     1       1.744   8.834  18.190  0.00  0.00    +0.000 A 
ATOM      3  C   UNL     1       1.144   9.728  19.187  0.00  0.00    +0.000 A 
ATOM      4  C   UNL     1       1.001   9.356  20.533  0.00  0.00    +0.000 A 
ATOM      5  C   UNL     1       1.541   8.080  20.775  0.00  0.00    +0.000 A 
ATOM      6  N   UNL     1       2.124   7.207  19.846  0.00  0.00    +0.000 NA
ENDROOT
BRANCH   4   7
ATOM      7  C   UNL     1       0.352  10.135  21.770  0.00  0.00    +0.000 C 
ATOM      8  O   UNL     1       0.613   9.747  22.906  0.00  0.00    +0.000 OA
ATOM      9  N   UNL     1      -0.476  11.249  21.573  0.00  0.00    +0.000 N 
ATOM     10  H   UNL     1      -0.318  11.626  20.650  0.00  0.00    +0.000 HD
BRANCH   9  11
ATOM     11  C   UNL     1      -0.935  12.405  22.555  0.00  0.00    +0.000 C 
ATOM     12  C   UNL     1      -0.099  13.632  22.037  0.00  0.00    +0.000 C 
ATOM     13  O   UNL     1      -0.497  14.930  22.459  0.00  0.00    +0.000 OA
ATOM     14  C   UNL     1      -1.790  15.217  21.945  0.00  0.00    +0.000 C 
ATOM     15  C   UNL     1      -2.748  14.301  22.642  0.00  0.00    +0.000 A 
ATOM     16  C   UNL     1      -3.915  14.917  23.169  0.00  0.00    +0.000 A 
ATOM     17  C   UNL     1      -4.783  14.199  23.972  0.00  0.00    +0.000 A 
ATOM     18  C   UNL     1      -4.493  12.860  24.209  0.00  0.00    +0.000 A 
ATOM     19  C   UNL     1      -3.337  12.223  23.654  0.00  0.00    +0.000 A 
ATOM     20  C   UNL     1      -2.416  12.917  22.842  0.00  0.00    +0.000 A 
ENDBRANCH   9  11
ENDBRANCH   4   7
BRANCH   1  21
ATOM     21  O   UNL     1       2.856   6.658  17.715  0.00  0.00    +0.000 OA
BRANCH  21  22
ATOM     22  C   UNL     1       4.217   6.964  17.299  0.00  0.00    +0.000 C 
BRANCH  22  28
ATOM     23  C   UNL     1       7.663   7.451  17.572  0.00  0.00    +0.000 C 
ATOM     24  C   UNL     1       6.753   6.357  17.932  0.00  0.00    +0.000 A 
ATOM     25  O   UNL     1       7.385   5.302  18.483  0.00  0.00    +0.000 OA
ATOM     26  N   UNL     1       6.498   4.300  18.777  0.00  0.00    +0.000 NA
ATOM     27  C   UNL     1       5.288   4.739  18.392  0.00  0.00    +0.000 A 
ATOM     28  C   UNL     1       5.376   6.102  17.843  0.00  0.00    +0.000 A 
BRANCH  27  29
ATOM     29  C   UNL     1       4.153   3.813  18.581  0.00  0.00    +0.000 A 
ATOM     30  C   UNL     1       3.546   3.163  17.507  0.00  0.00    +0.000 A 
ATOM     31  C   UNL     1       2.473   2.285  17.714  0.00  0.00    +0.000 A 
ATOM     32  C   UNL     1       1.973   2.066  18.990  0.00  0.00    +0.000 A 
ATOM     33  C   UNL     1       2.533   2.738  20.077  0.00  0.00    +0.000 A 
ATOM     34  C   UNL     1       3.618   3.605  19.869  0.00  0.00    +0.000 A 
ENDBRANCH  27  29
ENDBRANCH  22  28
ENDBRANCH  21  22
ENDBRANCH   1  21
TORSDOF 6
ENDMDL
MODEL 8
REMARK VINA RESULT:      -9.1      2.664     10.540
REMARK  Name = 
REMARK  7 active torsions:
REMARK  status: ('A' for Active; 'I' for Inactive)
REMARK    1  A    between atoms: C_1  and  C_2
REMARK    2  A    between atoms: C_5  and  C_6
REMARK    3  A    between atoms: C_12  and  C_13
REMARK    4  A    between atoms: C_13  and  O_14
REMARK    5  A    between atoms: O_14  and  C_15
REMARK    6  A    between atoms: C_18  and  C_19
REMARK    7  A    between atoms: N_21  and  C_22
REMARK                            x       y       z     vdW  Elec       q    Type
REMARK                         _______ _______ _______ _____ _____    ______ ____
ROOT
ATOM      1  C   UNL     1      -0.196  10.301  22.528  0.00  0.00    +0.000 A 
ATOM      2  C   UNL     1      -0.673   9.006  22.350  0.00  0.00    +0.000 A 
ATOM      3  C   UNL     1       0.011   8.066  21.454  0.00  0.00    +0.000 A 
ATOM      4  C   UNL     1       1.164   8.423  20.737  0.00  0.00    +0.000 A 
ATOM      5  C   UNL     1       1.570   9.735  21.036  0.00  0.00    +0.000 A 
ATOM      6  N   UNL     1       0.943  10.653  21.890  0.00  0.00    +0.000 NA
ENDROOT
BRANCH   4   7
ATOM      7  C   UNL     1       2.041   7.593  19.688  0.00  0.00    +0.000 C 
ATOM      8  O   UNL     1       2.174   8.045  18.553  0.00  0.00    +0.000 OA
ATOM      9  N   UNL     1       2.667   6.392  20.052  0.00  0.00    +0.000 N 
ATOM     10  H   UNL     1       2.739   6.344  21.058  0.00  0.00    +0.000 HD
BRANCH   9  11
ATOM     11  C   UNL     1       3.854   5.581  19.387  0.00  0.00    +0.000 C 
ATOM     12  C   UNL     1       3.574   4.115  19.883  0.00  0.00    +0.000 C 
ATOM     13  O   UNL     1       4.237   3.052  19.212  0.00  0.00    +0.000 OA
ATOM     14  C   UNL     1       3.796   2.995  17.864  0.00  0.00    +0.000 C 
ATOM     15  C   UNL     1       4.311   4.227  17.185  0.00  0.00    +0.000 A 
ATOM     16  C   UNL     1       4.953   4.017  15.935  0.00  0.00    +0.000 A 
ATOM     17  C   UNL     1       5.610   5.057  15.302  0.00  0.00    +0.000 A 
ATOM     18  C   UNL     1       5.586   6.307  15.912  0.00  0.00    +0.000 A 
ATOM     19  C   UNL     1       4.913   6.534  17.155  0.00  0.00    +0.000 A 
ATOM     20  C   UNL     1       4.242   5.502  17.843  0.00  0.00    +0.000 A 
ENDBRANCH   9  11
ENDBRANCH   4   7
BRANCH   1  21
ATOM     21  O   UNL     1      -0.706  11.262  23.403  0.00  0.00    +0.000 OA
BRANCH  21  22
ATOM     22  C   UNL     1      -1.774  12.127  22.923  0.00  0.00    +0.000 C 
BRANCH  22  28
ATOM     23  C   UNL     1      -0.781  15.450  23.320  0.00  0.00    +0.000 C 
ATOM     24  C   UNL     1      -1.026  14.587  22.157  0.00  0.00    +0.000 A 
ATOM     25  O   UNL     1      -0.836  15.217  20.981  0.00  0.00    +0.000 OA
ATOM     26  N   UNL     1      -1.104  14.380  19.930  0.00  0.00    +0.000 NA
ATOM     27  C   UNL     1      -1.477  13.205  20.466  0.00  0.00    +0.000 A 
ATOM     28  C   UNL     1      -1.429  13.261  21.935  0.00  0.00    +0.000 A 
BRANCH  27  29
ATOM     29  C   UNL     1      -1.850  12.132  19.522  0.00  0.00    +0.000 A 
ATOM     30  C   UNL     1      -0.903  11.263  18.983  0.00  0.00    +0.000 A 
ATOM     31  C   UNL     1      -1.283  10.250  18.091  0.00  0.00    +0.000 A 
ATOM     32  C   UNL     1      -2.608  10.109  17.703  0.00  0.00    +0.000 A 
ATOM     33  C   UNL     1      -3.570  10.995  18.192  0.00  0.00    +0.000 A 
ATOM     34  C   UNL     1      -3.188  11.999  19.097  0.00  0.00    +0.000 A 
ENDBRANCH  27  29
ENDBRANCH  22  28
ENDBRANCH  21  22
ENDBRANCH   1  21
TORSDOF 6
ENDMDL
MODEL 9
REMARK VINA RESULT:      -9.1      3.147      5.470
REMARK  Name = 
REMARK  7 active torsions:
REMARK  status: ('A' for Active; 'I' for Inactive)
REMARK    1  A    between atoms: C_1  and  C_2
REMARK    2  A    between atoms: C_5  and  C_6
REMARK    3  A    between atoms: C_12  and  C_13
REMARK    4  A    between atoms: C_13  and  O_14
REMARK    5  A    between atoms: O_14  and  C_15
REMARK    6  A    between atoms: C_18  and  C_19
REMARK    7  A    between atoms: N_21  and  C_22
REMARK                            x       y       z     vdW  Elec       q    Type
REMARK                         _______ _______ _______ _____ _____    ______ ____
ROOT
ATOM      1  C   UNL     1       1.426   8.027  20.692  0.00  0.00    +0.000 A 
ATOM      2  C   UNL     1       0.963   8.807  21.746  0.00  0.00    +0.000 A 
ATOM      3  C   UNL     1       0.664  10.232  21.557  0.00  0.00    +0.000 A 
ATOM      4  C   UNL     1       0.832  10.872  20.319  0.00  0.00    +0.000 A 
ATOM      5  C   UNL     1       1.259   9.971  19.328  0.00  0.00    +0.000 A 
ATOM      6  N   UNL     1       1.546   8.607  19.477  0.00  0.00    +0.000 NA
ENDROOT
BRANCH   4   7
ATOM      7  C   UNL     1       0.614  12.398  19.893  0.00  0.00    +0.000 C 
ATOM      8  O   UNL     1      -0.530  12.782  19.665  0.00  0.00    +0.000 OA
ATOM      9  N   UNL     1       1.693  13.290  19.804  0.00  0.00    +0.000 N 
ATOM     10  H   UNL     1       2.474  12.924  20.330  0.00  0.00    +0.000 HD
BRANCH   9  11
ATOM     11  C   UNL     1       1.750  14.873  19.783  0.00  0.00    +0.000 C 
ATOM     12  C   UNL     1       3.298  15.150  19.787  0.00  0.00    +0.000 C 
ATOM     13  O   UNL     1       3.738  16.453  19.430  0.00  0.00    +0.000 OA
ATOM     14  C   UNL     1       3.396  16.713  18.076  0.00  0.00    +0.000 C 
ATOM     15  C   UNL     1       1.902  16.807  18.016  0.00  0.00    +0.000 A 
ATOM     16  C   UNL     1       1.385  17.931  17.317  0.00  0.00    +0.000 A 
ATOM     17  C   UNL     1       0.029  18.205  17.340  0.00  0.00    +0.000 A 
ATOM     18  C   UNL     1      -0.800  17.329  18.033  0.00  0.00    +0.000 A 
ATOM     19  C   UNL     1      -0.290  16.176  18.711  0.00  0.00    +0.000 A 
ATOM     20  C   UNL     1       1.085  15.863  18.727  0.00  0.00    +0.000 A 
ENDBRANCH   9  11
ENDBRANCH   4   7
BRANCH   1  21
ATOM     21  O   UNL     1       1.674   6.654  20.720  0.00  0.00    +0.000 OA
BRANCH  21  22
ATOM     22  C   UNL     1       2.305   6.047  19.557  0.00  0.00    +0.000 C 
BRANCH  22  28
ATOM     23  C   UNL     1       1.575   2.940  20.971  0.00  0.00    +0.000 C 
ATOM     24  C   UNL     1       2.757   3.514  20.317  0.00  0.00    +0.000 A 
ATOM     25  O   UNL     1       3.795   2.657  20.253  0.00  0.00    +0.000 OA
ATOM     26  N   UNL     1       4.880   3.247  19.659  0.00  0.00    +0.000 NA
ATOM     27  C   UNL     1       4.509   4.502  19.353  0.00  0.00    +0.000 A 
ATOM     28  C   UNL     1       3.110   4.743  19.740  0.00  0.00    +0.000 A 
BRANCH  27  29
ATOM     29  C   UNL     1       5.530   5.361  18.720  0.00  0.00    +0.000 A 
ATOM     30  C   UNL     1       5.292   6.025  17.518  0.00  0.00    +0.000 A 
ATOM     31  C   UNL     1       6.277   6.838  16.939  0.00  0.00    +0.000 A 
ATOM     32  C   UNL     1       7.522   6.976  17.538  0.00  0.00    +0.000 A 
ATOM     33  C   UNL     1       7.802   6.286  18.718  0.00  0.00    +0.000 A 
ATOM     34  C   UNL     1       6.808   5.485  19.303  0.00  0.00    +0.000 A 
ENDBRANCH  27  29
ENDBRANCH  22  28
ENDBRANCH  21  22
ENDBRANCH   1  21
TORSDOF 6
ENDMDL
