MODEL 1
REMARK VINA RESULT:      -7.7      0.000      0.000
REMARK  Name = 
REMARK  7 active torsions:
REMARK  status: ('A' for Active; 'I' for Inactive)
REMARK    1  A    between atoms: C_1  and  O_2
REMARK    2  A    between atoms: O_2  and  C_3
REMARK    3  A    between atoms: C_6  and  C_7
REMARK    4  A    between atoms: C_7  and  N_8
REMARK    5  A    between atoms: C_9  and  C_11
REMARK    6  A    between atoms: C_11  and  N_12
REMARK    7  A    between atoms: C_14  and  C_15
REMARK                            x       y       z     vdW  Elec       q    Type
REMARK                         _______ _______ _______ _____ _____    ______ ____
ROOT
ATOM      1  N   UNL     1       2.760   4.612  20.270  0.00  0.00    +0.000 N 
ATOM      2  C   UNL     1       2.992   3.329  20.720  0.00  0.00    +0.000 C 
ATOM      3  O   UNL     1       2.547   2.904  21.784  0.00  0.00    +0.000 OA
ATOM      4  H   UNL     1       3.174   4.887  19.384  0.00  0.00    +0.000 HD
ENDROOT
BRANCH   1   5
ATOM      5  C   UNL     1       1.830   5.498  20.928  0.00  0.00    +0.000 C 
BRANCH   5   9
ATOM      6  C   UNL     1       1.520   9.387  19.041  0.00  0.00    +0.000 A 
ATOM      7  C   UNL     1       2.175   8.329  18.412  0.00  0.00    +0.000 A 
ATOM      8  C   UNL     1       2.284   7.087  19.039  0.00  0.00    +0.000 A 
ATOM      9  C   UNL     1       1.760   6.881  20.324  0.00  0.00    +0.000 A 
ATOM     10  C   UNL     1       1.102   7.949  20.949  0.00  0.00    +0.000 A 
ATOM     11  C   UNL     1       0.992   9.196  20.318  0.00  0.00    +0.000 A 
BRANCH   6  13
ATOM     12  C   UNL     1       0.641  11.574  18.844  0.00  0.00    +0.000 C 
ATOM     13  O   UNL     1       1.485  10.552  18.328  0.00  0.00    +0.000 OA
ENDBRANCH   6  13
ENDBRANCH   5   9
ENDBRANCH   1   5
BRANCH   2  14
ATOM     14  C   UNL     1       3.992   2.539  19.888  0.00  0.00    +0.000 C 
BRANCH  14  15
ATOM     15  N   UNL     1       4.696   3.396  18.938  0.00  0.00    +0.000 N 
ATOM     16  N   UNL     1       5.734   4.188  19.436  0.00  0.00    +0.000 NA
ATOM     17  C   UNL     1       6.444   4.873  18.587  0.00  0.00    +0.000 A 
ATOM     18  C   UNL     1       7.572   5.756  19.020  0.00  0.00    +0.000 C 
ATOM     19  N   UNL     1       6.202   4.832  17.212  0.00  0.00    +0.000 N 
ATOM     20  C   UNL     1       6.866   5.427  16.162  0.00  0.00    +0.000 A 
ATOM     21  C   UNL     1       6.246   5.054  14.988  0.00  0.00    +0.000 A 
ATOM     22  C   UNL     1       5.155   4.224  15.333  0.00  0.00    +0.000 A 
ATOM     23  C   UNL     1       5.157   4.100  16.707  0.00  0.00    +0.000 A 
ATOM     24  C   UNL     1       4.301   3.355  17.590  0.00  0.00    +0.000 A 
ATOM     25  O   UNL     1       3.330   2.720  17.191  0.00  0.00    +0.000 OA
ENDBRANCH  14  15
ENDBRANCH   2  14
TORSDOF 5
ENDMDL
MODEL 2
REMARK VINA RESULT:      -7.6      0.402      1.061
REMARK  Name = 
REMARK  7 active torsions:
REMARK  status: ('A' for Active; 'I' for Inactive)
REMARK    1  A    between atoms: C_1  and  O_2
REMARK    2  A    between atoms: O_2  and  C_3
REMARK    3  A    between atoms: C_6  and  C_7
REMARK    4  A    between atoms: C_7  and  N_8
REMARK    5  A    between atoms: C_9  and  C_11
REMARK    6  A    between atoms: C_11  and  N_12
REMARK    7  A    between atoms: C_14  and  C_15
REMARK                            x       y       z     vdW  Elec       q    Type
REMARK                         _______ _______ _______ _____ _____    ______ ____
ROOT
ATOM      1  N   UNL     1       2.840   5.063  20.274  0.00  0.00    +0.000 N 
ATOM      2  C   UNL     1       2.872   3.747  20.685  0.00  0.00    +0.000 C 
ATOM      3  O   UNL     1       2.293   3.348  21.694  0.00  0.00    +0.000 OA
ATOM      4  H   UNL     1       3.355   5.311  19.434  0.00  0.00    +0.000 HD
ENDROOT
BRANCH   1   5
ATOM      5  C   UNL     1       1.980   6.040  20.897  0.00  0.00    +0.000 C 
BRANCH   5   9
ATOM      6  C   UNL     1       1.563   9.771  18.734  0.00  0.00    +0.000 A 
ATOM      7  C   UNL     1       1.033   9.615  20.014  0.00  0.00    +0.000 A 
ATOM      8  C   UNL     1       1.159   8.402  20.692  0.00  0.00    +0.000 A 
ATOM      9  C   UNL     1       1.797   7.306  20.094  0.00  0.00    +0.000 A 
ATOM     10  C   UNL     1       2.328   7.471  18.807  0.00  0.00    +0.000 A 
ATOM     11  C   UNL     1       2.204   8.691  18.128  0.00  0.00    +0.000 A 
BRANCH   6  13
ATOM     12  C   UNL     1       1.315  12.098  19.081  0.00  0.00    +0.000 C 
ATOM     13  O   UNL     1       1.371  11.003  18.175  0.00  0.00    +0.000 OA
ENDBRANCH   6  13
ENDBRANCH   5   9
ENDBRANCH   1   5
BRANCH   2  14
ATOM     14  C   UNL     1       3.827   2.862  19.897  0.00  0.00    +0.000 C 
BRANCH  14  15
ATOM     15  N   UNL     1       4.604   3.635  18.933  0.00  0.00    +0.000 N 
ATOM     16  N   UNL     1       5.683   4.374  19.424  0.00  0.00    +0.000 NA
ATOM     17  C   UNL     1       6.453   4.979  18.566  0.00  0.00    +0.000 A 
ATOM     18  C   UNL     1       7.630   5.800  18.991  0.00  0.00    +0.000 C 
ATOM     19  N   UNL     1       6.233   4.905  17.189  0.00  0.00    +0.000 N 
ATOM     20  C   UNL     1       6.954   5.416  16.132  0.00  0.00    +0.000 A 
ATOM     21  C   UNL     1       6.332   5.044  14.959  0.00  0.00    +0.000 A 
ATOM     22  C   UNL     1       5.182   4.302  15.311  0.00  0.00    +0.000 A 
ATOM     23  C   UNL     1       5.151   4.227  16.688  0.00  0.00    +0.000 A 
ATOM     24  C   UNL     1       4.231   3.572  17.579  0.00  0.00    +0.000 A 
ATOM     25  O   UNL     1       3.226   2.990  17.182  0.00  0.00    +0.000 OA
ENDBRANCH  14  15
ENDBRANCH   2  14
TORSDOF 5
ENDMDL
MODEL 3
REMARK VINA RESULT:      -7.4      2.945      6.768
REMARK  Name = 
REMARK  7 active torsions:
REMARK  status: ('A' for Active; 'I' for Inactive)
REMARK    1  A    between atoms: C_1  and  O_2
REMARK    2  A    between atoms: O_2  and  C_3
REMARK    3  A    between atoms: C_6  and  C_7
REMARK    4  A    between atoms: C_7  and  N_8
REMARK    5  A    between atoms: C_9  and  C_11
REMARK    6  A    between atoms: C_11  and  N_12
REMARK    7  A    between atoms: C_14  and  C_15
REMARK                            x       y       z     vdW  Elec       q    Type
REMARK                         _______ _______ _______ _____ _____    ______ ____
ROOT
ATOM      1  N   UNL     1       6.831   5.817  17.061  0.00  0.00    +0.000 N 
ATOM      2  C   UNL     1       7.352   4.935  17.984  0.00  0.00    +0.000 C 
ATOM      3  O   UNL     1       8.260   4.150  17.719  0.00  0.00    +0.000 OA
ATOM      4  H   UNL     1       6.074   6.425  17.360  0.00  0.00    +0.000 HD
ENDROOT
BRANCH   1   5
ATOM      5  C   UNL     1       7.429   6.009  15.762  0.00  0.00    +0.000 C 
BRANCH   5   9
ATOM      6  C   UNL     1       5.731   3.488  12.673  0.00  0.00    +0.000 A 
ATOM      7  C   UNL     1       5.073   3.686  13.886  0.00  0.00    +0.000 A 
ATOM      8  C   UNL     1       5.640   4.485  14.879  0.00  0.00    +0.000 A 
ATOM      9  C   UNL     1       6.893   5.087  14.691  0.00  0.00    +0.000 A 
ATOM     10  C   UNL     1       7.548   4.884  13.469  0.00  0.00    +0.000 A 
ATOM     11  C   UNL     1       6.977   4.082  12.470  0.00  0.00    +0.000 A 
BRANCH   6  13
ATOM     12  C   UNL     1       3.957   3.260  11.125  0.00  0.00    +0.000 C 
ATOM     13  O   UNL     1       5.076   2.681  11.785  0.00  0.00    +0.000 OA
ENDBRANCH   6  13
ENDBRANCH   5   9
ENDBRANCH   1   5
BRANCH   2  14
ATOM     14  C   UNL     1       6.596   4.881  19.304  0.00  0.00    +0.000 C 
BRANCH  14  15
ATOM     15  N   UNL     1       5.162   4.704  19.094  0.00  0.00    +0.000 N 
ATOM     16  N   UNL     1       4.441   5.806  18.629  0.00  0.00    +0.000 NA
ATOM     17  C   UNL     1       3.185   5.636  18.331  0.00  0.00    +0.000 A 
ATOM     18  C   UNL     1       2.325   6.755  17.833  0.00  0.00    +0.000 C 
ATOM     19  N   UNL     1       2.553   4.398  18.457  0.00  0.00    +0.000 N 
ATOM     20  C   UNL     1       1.270   4.005  18.143  0.00  0.00    +0.000 A 
ATOM     21  C   UNL     1       1.143   2.662  18.433  0.00  0.00    +0.000 A 
ATOM     22  C   UNL     1       2.379   2.227  18.961  0.00  0.00    +0.000 A 
ATOM     23  C   UNL     1       3.229   3.314  18.958  0.00  0.00    +0.000 A 
ATOM     24  C   UNL     1       4.606   3.438  19.352  0.00  0.00    +0.000 A 
ATOM     25  O   UNL     1       5.240   2.510  19.844  0.00  0.00    +0.000 OA
ENDBRANCH  14  15
ENDBRANCH   2  14
TORSDOF 5
ENDMDL
MODEL 4
REMARK VINA RESULT:      -7.3      5.084      6.993
REMARK  Name = 
REMARK  7 active torsions:
REMARK  status: ('A' for Active; 'I' for Inactive)
REMARK    1  A    between atoms: C_1  and  O_2
REMARK    2  A    between atoms: O_2  and  C_3
REMARK    3  A    between atoms: C_6  and  C_7
REMARK    4  A    between atoms: C_7  and  N_8
REMARK    5  A    between atoms: C_9  and  C_11
REMARK    6  A    between atoms: C_11  and  N_12
REMARK    7  A    between atoms: C_14  and  C_15
REMARK                            x       y       z     vdW  Elec       q    Type
REMARK                         _______ _______ _______ _____ _____    ______ ____
ROOT
ATOM      1  N   UNL     1       8.174   8.743  17.913  0.00  0.00    +0.000 N 
ATOM      2  C   UNL     1       7.771   7.424  17.953  0.00  0.00    +0.000 C 
ATOM      3  O   UNL     1       8.165   6.632  18.806  0.00  0.00    +0.000 OA
ATOM      4  H   UNL     1       7.809   9.328  17.167  0.00  0.00    +0.000 HD
ENDROOT
BRANCH   1   5
ATOM      5  C   UNL     1       8.952   9.339  18.972  0.00  0.00    +0.000 C 
BRANCH   5   9
ATOM      6  C   UNL     1      10.184  13.422  18.205  0.00  0.00    +0.000 A 
ATOM      7  C   UNL     1      10.890  12.609  19.091  0.00  0.00    +0.000 A 
ATOM      8  C   UNL     1      10.471  11.302  19.343  0.00  0.00    +0.000 A 
ATOM      9  C   UNL     1       9.320  10.785  18.731  0.00  0.00    +0.000 A 
ATOM     10  C   UNL     1       8.617  11.607  17.841  0.00  0.00    +0.000 A 
ATOM     11  C   UNL     1       9.039  12.920  17.587  0.00  0.00    +0.000 A 
BRANCH   6  13
ATOM     12  C   UNL     1      11.750  14.815  17.107  0.00  0.00    +0.000 C 
ATOM     13  O   UNL     1      10.691  14.682  18.048  0.00  0.00    +0.000 OA
ENDBRANCH   6  13
ENDBRANCH   5   9
ENDBRANCH   1   5
BRANCH   2  14
ATOM     14  C   UNL     1       6.945   6.979  16.755  0.00  0.00    +0.000 C 
BRANCH  14  15
ATOM     15  N   UNL     1       5.663   6.416  17.167  0.00  0.00    +0.000 N 
ATOM     16  N   UNL     1       4.653   7.314  17.521  0.00  0.00    +0.000 NA
ATOM     17  C   UNL     1       3.470   6.835  17.783  0.00  0.00    +0.000 A 
ATOM     18  C   UNL     1       2.324   7.711  18.179  0.00  0.00    +0.000 C 
ATOM     19  N   UNL     1       3.191   5.468  17.715  0.00  0.00    +0.000 N 
ATOM     20  C   UNL     1       2.011   4.779  17.894  0.00  0.00    +0.000 A 
ATOM     21  C   UNL     1       2.255   3.437  17.693  0.00  0.00    +0.000 A 
ATOM     22  C   UNL     1       3.632   3.299  17.404  0.00  0.00    +0.000 A 
ATOM     23  C   UNL     1       4.180   4.565  17.418  0.00  0.00    +0.000 A 
ATOM     24  C   UNL     1       5.521   5.017  17.162  0.00  0.00    +0.000 A 
ATOM     25  O   UNL     1       6.448   4.246  16.934  0.00  0.00    +0.000 OA
ENDBRANCH  14  15
ENDBRANCH   2  14
TORSDOF 5
ENDMDL
MODEL 5
REMARK VINA RESULT:      -7.3      2.938      6.877
REMARK  Name = 
REMARK  7 active torsions:
REMARK  status: ('A' for Active; 'I' for Inactive)
REMARK    1  A    between atoms: C_1  and  O_2
REMARK    2  A    between atoms: O_2  and  C_3
REMARK    3  A    between atoms: C_6  and  C_7
REMARK    4  A    between atoms: C_7  and  N_8
REMARK    5  A    between atoms: C_9  and  C_11
REMARK    6  A    between atoms: C_11  and  N_12
REMARK    7  A    between atoms: C_14  and  C_15
REMARK                            x       y       z     vdW  Elec       q    Type
REMARK                         _______ _______ _______ _____ _____    ______ ____
ROOT
ATOM      1  N   UNL     1       7.155   5.875  16.490  0.00  0.00    +0.000 N 
ATOM      2  C   UNL     1       7.502   5.137  17.602  0.00  0.00    +0.000 C 
ATOM      3  O   UNL     1       8.244   4.158  17.548  0.00  0.00    +0.000 OA
ATOM      4  H   UNL     1       6.526   6.663  16.620  0.00  0.00    +0.000 HD
ENDROOT
BRANCH   1   5
ATOM      5  C   UNL     1       7.776   5.664  15.205  0.00  0.00    +0.000 C 
BRANCH   5   9
ATOM      6  C   UNL     1       5.472   3.318  12.383  0.00  0.00    +0.000 A 
ATOM      7  C   UNL     1       6.717   3.842  12.040  0.00  0.00    +0.000 A 
ATOM      8  C   UNL     1       7.440   4.611  12.952  0.00  0.00    +0.000 A 
ATOM      9  C   UNL     1       6.922   4.895  14.223  0.00  0.00    +0.000 A 
ATOM     10  C   UNL     1       5.670   4.364  14.562  0.00  0.00    +0.000 A 
ATOM     11  C   UNL     1       4.945   3.590  13.646  0.00  0.00    +0.000 A 
BRANCH   6  13
ATOM     12  C   UNL     1       3.664   3.138  10.867  0.00  0.00    +0.000 C 
ATOM     13  O   UNL     1       4.861   2.587  11.403  0.00  0.00    +0.000 OA
ENDBRANCH   6  13
ENDBRANCH   5   9
ENDBRANCH   1   5
BRANCH   2  14
ATOM     14  C   UNL     1       6.751   5.514  18.871  0.00  0.00    +0.000 C 
BRANCH  14  15
ATOM     15  N   UNL     1       5.312   5.320  18.721  0.00  0.00    +0.000 N 
ATOM     16  N   UNL     1       4.560   6.415  18.286  0.00  0.00    +0.000 NA
ATOM     17  C   UNL     1       3.294   6.231  18.040  0.00  0.00    +0.000 A 
ATOM     18  C   UNL     1       2.402   7.340  17.578  0.00  0.00    +0.000 C 
ATOM     19  N   UNL     1       2.682   4.985  18.193  0.00  0.00    +0.000 N 
ATOM     20  C   UNL     1       1.391   4.578  17.933  0.00  0.00    +0.000 A 
ATOM     21  C   UNL     1       1.291   3.235  18.228  0.00  0.00    +0.000 A 
ATOM     22  C   UNL     1       2.553   2.813  18.705  0.00  0.00    +0.000 A 
ATOM     23  C   UNL     1       3.389   3.910  18.666  0.00  0.00    +0.000 A 
ATOM     24  C   UNL     1       4.781   4.049  19.003  0.00  0.00    +0.000 A 
ATOM     25  O   UNL     1       5.445   3.129  19.469  0.00  0.00    +0.000 OA
ENDBRANCH  14  15
ENDBRANCH   2  14
TORSDOF 5
ENDMDL
MODEL 6
REMARK VINA RESULT:      -7.3      3.363      7.184
REMARK  Name = 
REMARK  7 active torsions:
REMARK  status: ('A' for Active; 'I' for Inactive)
REMARK    1  A    between atoms: C_1  and  O_2
REMARK    2  A    between atoms: O_2  and  C_3
REMARK    3  A    between atoms: C_6  and  C_7
REMARK    4  A    between atoms: C_7  and  N_8
REMARK    5  A    between atoms: C_9  and  C_11
REMARK    6  A    between atoms: C_11  and  N_12
REMARK    7  A    between atoms: C_14  and  C_15
REMARK                            x       y       z     vdW  Elec       q    Type
REMARK                         _______ _______ _______ _____ _____    ______ ____
ROOT
ATOM      1  N   UNL     1       6.780   5.976  16.285  0.00  0.00    +0.000 N 
ATOM      2  C   UNL     1       7.131   5.363  17.470  0.00  0.00    +0.000 C 
ATOM      3  O   UNL     1       8.012   4.509  17.543  0.00  0.00    +0.000 OA
ATOM      4  H   UNL     1       6.033   6.664  16.310  0.00  0.00    +0.000 HD
ENDROOT
BRANCH   1   5
ATOM      5  C   UNL     1       7.538   5.790  15.072  0.00  0.00    +0.000 C 
BRANCH   5   9
ATOM      6  C   UNL     1       5.765   3.110  12.164  0.00  0.00    +0.000 A 
ATOM      7  C   UNL     1       6.992   3.727  11.924  0.00  0.00    +0.000 A 
ATOM      8  C   UNL     1       7.543   4.602  12.861  0.00  0.00    +0.000 A 
ATOM      9  C   UNL     1       6.865   4.901  14.052  0.00  0.00    +0.000 A 
ATOM     10  C   UNL     1       5.633   4.276  14.287  0.00  0.00    +0.000 A 
ATOM     11  C   UNL     1       5.081   3.395  13.346  0.00  0.00    +0.000 A 
BRANCH   6  13
ATOM     12  C   UNL     1       6.059   1.068  11.006  0.00  0.00    +0.000 C 
ATOM     13  O   UNL     1       5.331   2.280  11.170  0.00  0.00    +0.000 OA
ENDBRANCH   6  13
ENDBRANCH   5   9
ENDBRANCH   1   5
BRANCH   2  14
ATOM     14  C   UNL     1       6.223   5.692  18.646  0.00  0.00    +0.000 C 
BRANCH  14  15
ATOM     15  N   UNL     1       5.139   4.722  18.775  0.00  0.00    +0.000 N 
ATOM     16  N   UNL     1       5.388   3.581  19.541  0.00  0.00    +0.000 NA
ATOM     17  C   UNL     1       4.401   2.761  19.760  0.00  0.00    +0.000 A 
ATOM     18  C   UNL     1       4.566   1.509  20.561  0.00  0.00    +0.000 C 
ATOM     19  N   UNL     1       3.118   2.994  19.258  0.00  0.00    +0.000 N 
ATOM     20  C   UNL     1       1.945   2.290  19.423  0.00  0.00    +0.000 A 
ATOM     21  C   UNL     1       0.943   2.947  18.740  0.00  0.00    +0.000 A 
ATOM     22  C   UNL     1       1.527   4.075  18.120  0.00  0.00    +0.000 A 
ATOM     23  C   UNL     1       2.864   4.081  18.462  0.00  0.00    +0.000 A 
ATOM     24  C   UNL     1       3.917   5.006  18.140  0.00  0.00    +0.000 A 
ATOM     25  O   UNL     1       3.750   5.969  17.398  0.00  0.00    +0.000 OA
ENDBRANCH  14  15
ENDBRANCH   2  14
TORSDOF 5
ENDMDL
MODEL 7
REMARK VINA RESULT:      -7.2      2.737      7.105
REMARK  Name = 
REMARK  7 active torsions:
REMARK  status: ('A' for Active; 'I' for Inactive)
REMARK    1  A    between atoms: C_1  and  O_2
REMARK    2  A    between atoms: O_2  and  C_3
REMARK    3  A    between atoms: C_6  and  C_7
REMARK    4  A    between atoms: C_7  and  N_8
REMARK    5  A    between atoms: C_9  and  C_11
REMARK    6  A    between atoms: C_11  and  N_12
REMARK    7  A    between atoms: C_14  and  C_15
REMARK                            x       y       z     vdW  Elec       q    Type
REMARK                         _______ _______ _______ _____ _____    ______ ____
ROOT
ATOM      1  N   UNL     1       5.892   5.984  17.330  0.00  0.00    +0.000 N 
ATOM      2  C   UNL     1       4.902   6.736  16.733  0.00  0.00    +0.000 C 
ATOM      3  O   UNL     1       5.027   7.240  15.619  0.00  0.00    +0.000 OA
ATOM      4  H   UNL     1       5.711   5.612  18.258  0.00  0.00    +0.000 HD
ENDROOT
BRANCH   1   5
ATOM      5  C   UNL     1       7.082   5.582  16.621  0.00  0.00    +0.000 C 
BRANCH   5   9
ATOM      6  C   UNL     1       6.122   3.596  12.891  0.00  0.00    +0.000 A 
ATOM      7  C   UNL     1       5.500   3.232  14.084  0.00  0.00    +0.000 A 
ATOM      8  C   UNL     1       5.832   3.867  15.282  0.00  0.00    +0.000 A 
ATOM      9  C   UNL     1       6.815   4.867  15.317  0.00  0.00    +0.000 A 
ATOM     10  C   UNL     1       7.435   5.228  14.113  0.00  0.00    +0.000 A 
ATOM     11  C   UNL     1       7.099   4.591  12.910  0.00  0.00    +0.000 A 
BRANCH   6  13
ATOM     12  C   UNL     1       4.382   3.139  11.355  0.00  0.00    +0.000 C 
ATOM     13  O   UNL     1       5.715   2.897  11.790  0.00  0.00    +0.000 OA
ENDBRANCH   6  13
ENDBRANCH   5   9
ENDBRANCH   1   5
BRANCH   2  14
ATOM     14  C   UNL     1       3.715   7.047  17.633  0.00  0.00    +0.000 C 
BRANCH  14  15
ATOM     15  N   UNL     1       3.132   5.832  18.193  0.00  0.00    +0.000 N 
ATOM     16  N   UNL     1       3.236   4.663  17.434  0.00  0.00    +0.000 NA
ATOM     17  C   UNL     1       2.821   3.549  17.965  0.00  0.00    +0.000 A 
ATOM     18  C   UNL     1       2.883   2.245  17.232  0.00  0.00    +0.000 C 
ATOM     19  N   UNL     1       2.288   3.493  19.254  0.00  0.00    +0.000 N 
ATOM     20  C   UNL     1       1.855   2.422  20.005  0.00  0.00    +0.000 A 
ATOM     21  C   UNL     1       1.438   2.891  21.233  0.00  0.00    +0.000 A 
ATOM     22  C   UNL     1       1.599   4.295  21.224  0.00  0.00    +0.000 A 
ATOM     23  C   UNL     1       2.130   4.635  19.997  0.00  0.00    +0.000 A 
ATOM     24  C   UNL     1       2.523   5.910  19.458  0.00  0.00    +0.000 A 
ATOM     25  O   UNL     1       2.364   6.963  20.066  0.00  0.00    +0.000 OA
ENDBRANCH  14  15
ENDBRANCH   2  14
TORSDOF 5
ENDMDL
MODEL 8
REMARK VINA RESULT:      -7.2      5.039      6.811
REMARK  Name = 
REMARK  7 active torsions:
REMARK  status: ('A' for Active; 'I' for Inactive)
REMARK    1  A    between atoms: C_1  and  O_2
REMARK    2  A    between atoms: O_2  and  C_3
REMARK    3  A    between atoms: C_6  and  C_7
REMARK    4  A    between atoms: C_7  and  N_8
REMARK    5  A    between atoms: C_9  and  C_11
REMARK    6  A    between atoms: C_11  and  N_12
REMARK    7  A    between atoms: C_14  and  C_15
REMARK                            x       y       z     vdW  Elec       q    Type
REMARK                         _______ _______ _______ _____ _____    ______ ____
ROOT
ATOM      1  N   UNL     1       8.188   8.806  17.897  0.00  0.00    +0.000 N 
ATOM      2  C   UNL     1       7.770   7.493  17.950  0.00  0.00    +0.000 C 
ATOM      3  O   UNL     1       8.149   6.707  18.816  0.00  0.00    +0.000 OA
ATOM      4  H   UNL     1       7.835   9.387  17.141  0.00  0.00    +0.000 HD
ENDROOT
BRANCH   1   5
ATOM      5  C   UNL     1       8.963   9.407  18.955  0.00  0.00    +0.000 C 
BRANCH   5   9
ATOM      6  C   UNL     1       9.888  13.587  18.285  0.00  0.00    +0.000 A 
ATOM      7  C   UNL     1       8.870  12.950  17.577  0.00  0.00    +0.000 A 
ATOM      8  C   UNL     1       8.594  11.599  17.789  0.00  0.00    +0.000 A 
ATOM      9  C   UNL     1       9.350  10.845  18.699  0.00  0.00    +0.000 A 
ATOM     10  C   UNL     1      10.371  11.493  19.408  0.00  0.00    +0.000 A 
ATOM     11  C   UNL     1      10.646  12.851  19.195  0.00  0.00    +0.000 A 
BRANCH   6  13
ATOM     12  C   UNL     1       9.330  15.832  18.781  0.00  0.00    +0.000 C 
ATOM     13  O   UNL     1      10.062  14.909  17.983  0.00  0.00    +0.000 OA
ENDBRANCH   6  13
ENDBRANCH   5   9
ENDBRANCH   1   5
BRANCH   2  14
ATOM     14  C   UNL     1       6.949   7.042  16.751  0.00  0.00    +0.000 C 
BRANCH  14  15
ATOM     15  N   UNL     1       5.674   6.460  17.162  0.00  0.00    +0.000 N 
ATOM     16  N   UNL     1       4.653   7.343  17.521  0.00  0.00    +0.000 NA
ATOM     17  C   UNL     1       3.478   6.847  17.783  0.00  0.00    +0.000 A 
ATOM     18  C   UNL     1       2.321   7.707  18.184  0.00  0.00    +0.000 C 
ATOM     19  N   UNL     1       3.216   5.477  17.707  0.00  0.00    +0.000 N 
ATOM     20  C   UNL     1       2.045   4.773  17.885  0.00  0.00    +0.000 A 
ATOM     21  C   UNL     1       2.306   3.435  17.676  0.00  0.00    +0.000 A 
ATOM     22  C   UNL     1       3.684   3.316  17.385  0.00  0.00    +0.000 A 
ATOM     23  C   UNL     1       4.216   4.589  17.405  0.00  0.00    +0.000 A 
ATOM     24  C   UNL     1       5.551   5.059  17.150  0.00  0.00    +0.000 A 
ATOM     25  O   UNL     1       6.487   4.302  16.917  0.00  0.00    +0.000 OA
ENDBRANCH  14  15
ENDBRANCH   2  14
TORSDOF 5
ENDMDL
MODEL 9
REMARK VINA RESULT:      -7.1      1.229      1.479
REMARK  Name = 
REMARK  7 active torsions:
REMARK  status: ('A' for Active; 'I' for Inactive)
REMARK    1  A    between atoms: C_1  and  O_2
REMARK    2  A    between atoms: O_2  and  C_3
REMARK    3  A    between atoms: C_6  and  C_7
REMARK    4  A    between atoms: C_7  and  N_8
REMARK    5  A    between atoms: C_9  and  C_11
REMARK    6  A    between atoms: C_11  and  N_12
REMARK    7  A    between atoms: C_14  and  C_15
REMARK                            x       y       z     vdW  Elec       q    Type
REMARK                         _______ _______ _______ _____ _____    ______ ____
ROOT
ATOM      1  N   UNL     1       2.258   6.129  20.060  0.00  0.00    +0.000 N 
ATOM      2  C   UNL     1       2.285   4.818  20.488  0.00  0.00    +0.000 C 
ATOM      3  O   UNL     1       2.226   4.502  21.675  0.00  0.00    +0.000 OA
ATOM      4  H   UNL     1       2.323   6.304  19.062  0.00  0.00    +0.000 HD
ENDROOT
BRANCH   1   5
ATOM      5  C   UNL     1       1.981   7.223  20.959  0.00  0.00    +0.000 C 
BRANCH   5   9
ATOM      6  C   UNL     1      -0.068  10.470  18.951  0.00  0.00    +0.000 A 
ATOM      7  C   UNL     1       0.950   9.758  18.319  0.00  0.00    +0.000 A 
ATOM      8  C   UNL     1       1.615   8.727  18.983  0.00  0.00    +0.000 A 
ATOM      9  C   UNL     1       1.291   8.399  20.308  0.00  0.00    +0.000 A 
ATOM     10  C   UNL     1       0.266   9.119  20.937  0.00  0.00    +0.000 A 
ATOM     11  C   UNL     1      -0.403  10.154  20.267  0.00  0.00    +0.000 A 
BRANCH   6  13
ATOM     12  C   UNL     1      -2.047  11.603  18.319  0.00  0.00    +0.000 C 
ATOM     13  O   UNL     1      -0.637  11.459  18.197  0.00  0.00    +0.000 OA
ENDBRANCH   6  13
ENDBRANCH   5   9
ENDBRANCH   1   5
BRANCH   2  14
ATOM     14  C   UNL     1       2.577   3.802  19.394  0.00  0.00    +0.000 C 
BRANCH  14  15
ATOM     15  N   UNL     1       3.738   4.188  18.598  0.00  0.00    +0.000 N 
ATOM     16  N   UNL     1       4.823   4.748  19.278  0.00  0.00    +0.000 NA
ATOM     17  C   UNL     1       5.909   4.995  18.602  0.00  0.00    +0.000 A 
ATOM     18  C   UNL     1       7.122   5.600  19.236  0.00  0.00    +0.000 C 
ATOM     19  N   UNL     1       6.015   4.715  17.238  0.00  0.00    +0.000 N 
ATOM     20  C   UNL     1       7.077   4.846  16.371  0.00  0.00    +0.000 A 
ATOM     21  C   UNL     1       6.680   4.409  15.125  0.00  0.00    +0.000 A 
ATOM     22  C   UNL     1       5.325   4.019  15.229  0.00  0.00    +0.000 A 
ATOM     23  C   UNL     1       4.945   4.213  16.541  0.00  0.00    +0.000 A 
ATOM     24  C   UNL     1       3.699   3.957  17.212  0.00  0.00    +0.000 A 
ATOM     25  O   UNL     1       2.702   3.549  16.624  0.00  0.00    +0.000 OA
ENDBRANCH  14  15
ENDBRANCH   2  14
TORSDOF 5
ENDMDL
