MODEL 1
REMARK VINA RESULT:      -7.9      0.000      0.000
REMARK  Name = 
REMARK  8 active torsions:
REMARK  status: ('A' for Active; 'I' for Inactive)
REMARK    1  A    between atoms: C_1  and  O_2
REMARK    2  A    between atoms: O_2  and  C_3
REMARK    3  A    between atoms: C_6  and  N_7
REMARK    4  A    between atoms: N_12  and  C_13
REMARK    5  A    between atoms: C_13  and  C_14
REMARK    6  A    between atoms: C_14  and  C_15
REMARK    7  A    between atoms: C_18  and  S_19
REMARK    8  A    between atoms: S_19  and  N_20
REMARK                            x       y       z     vdW  Elec       q    Type
REMARK                         _______ _______ _______ _____ _____    ______ ____
ROOT
ATOM      1  N   UNL     1      -1.033  11.641  21.317  0.00  0.00    +0.000 N 
ATOM      2  C   UNL     1      -1.399  11.776  19.989  0.00  0.00    +0.000 A 
ATOM      3  C   UNL     1      -0.874  10.997  19.032  0.00  0.00    +0.000 A 
ATOM      4  N   UNL     1      -0.038   9.946  19.245  0.00  0.00    +0.000 NA
ATOM      5  C   UNL     1       0.315   9.701  20.484  0.00  0.00    +0.000 A 
ATOM      6  N   UNL     1       1.079   8.580  20.785  0.00  0.00    +0.000 N 
ATOM      7  C   UNL     1      -0.101  10.639  21.651  0.00  0.00    +0.000 A 
ATOM      8  O   UNL     1       0.417  10.395  22.738  0.00  0.00    +0.000 OA
ATOM      9  H   UNL     1       1.345   8.494  21.763  0.00  0.00    +0.000 HD
ENDROOT
BRANCH   1  13
ATOM     10  C   UNL     1      -2.536  14.260  24.330  0.00  0.00    +0.000 A 
ATOM     11  C   UNL     1      -3.339  13.246  23.819  0.00  0.00    +0.000 A 
ATOM     12  C   UNL     1      -2.853  12.387  22.829  0.00  0.00    +0.000 A 
ATOM     13  C   UNL     1      -1.559  12.535  22.314  0.00  0.00    +0.000 A 
ATOM     14  C   UNL     1      -0.770  13.575  22.833  0.00  0.00    +0.000 A 
ATOM     15  C   UNL     1      -1.251  14.432  23.825  0.00  0.00    +0.000 A 
BRANCH  10  17
ATOM     16  C   UNL     1      -4.087  15.957  24.807  0.00  0.00    +0.000 C 
ATOM     17  O   UNL     1      -3.111  15.043  25.292  0.00  0.00    +0.000 OA
ENDBRANCH  10  17
ENDBRANCH   1  13
BRANCH   6  18
ATOM     18  C   UNL     1       1.978   8.036  19.776  0.00  0.00    +0.000 C 
BRANCH  18  19
ATOM     19  C   UNL     1       2.225   6.535  19.929  0.00  0.00    +0.000 C 
BRANCH  19  20
ATOM     20  C   UNL     1       3.388   6.087  19.067  0.00  0.00    +0.000 A 
ATOM     21  C   UNL     1       4.282   5.099  19.517  0.00  0.00    +0.000 A 
ATOM     22  C   UNL     1       5.381   4.731  18.739  0.00  0.00    +0.000 A 
ATOM     23  C   UNL     1       5.590   5.346  17.504  0.00  0.00    +0.000 A 
ATOM     24  C   UNL     1       4.717   6.330  17.037  0.00  0.00    +0.000 A 
ATOM     25  C   UNL     1       3.620   6.696  17.821  0.00  0.00    +0.000 A 
BRANCH  23  26
ATOM     26  S   UNL     1       6.994   4.875  16.541  0.00  0.00    +0.000 S 
ATOM     27  O   UNL     1       7.273   5.901  15.560  0.00  0.00    +0.000 OA
ATOM     28  O   UNL     1       8.013   4.336  17.411  0.00  0.00    +0.000 OA
BRANCH  26  29
ATOM     29  N   UNL     1       6.364   3.570  15.696  0.00  0.00    +0.000 NA
ATOM     30  H   UNL     1       7.107   2.946  15.387  0.00  0.00    +0.000 HD
ATOM     31  H   UNL     1       5.617   3.124  16.227  0.00  0.00    +0.000 HD
ENDBRANCH  26  29
ENDBRANCH  23  26
ENDBRANCH  19  20
ENDBRANCH  18  19
ENDBRANCH   6  18
TORSDOF 7
ENDMDL
MODEL 2
REMARK VINA RESULT:      -7.6      0.528      1.045
REMARK  Name = 
REMARK  8 active torsions:
REMARK  status: ('A' for Active; 'I' for Inactive)
REMARK    1  A    between atoms: C_1  and  O_2
REMARK    2  A    between atoms: O_2  and  C_3
REMARK    3  A    between atoms: C_6  and  N_7
REMARK    4  A    between atoms: N_12  and  C_13
REMARK    5  A    between atoms: C_13  and  C_14
REMARK    6  A    between atoms: C_14  and  C_15
REMARK    7  A    between atoms: C_18  and  S_19
REMARK    8  A    between atoms: S_19  and  N_20
REMARK                            x       y       z     vdW  Elec       q    Type
REMARK                         _______ _______ _______ _____ _____    ______ ____
ROOT
ATOM      1  N   UNL     1      -0.938  11.596  21.255  0.00  0.00    +0.000 N 
ATOM      2  C   UNL     1      -1.279  11.808  19.931  0.00  0.00    +0.000 A 
ATOM      3  C   UNL     1      -0.747  11.076  18.941  0.00  0.00    +0.000 A 
ATOM      4  N   UNL     1       0.072  10.004  19.110  0.00  0.00    +0.000 NA
ATOM      5  C   UNL     1       0.401   9.687  20.339  0.00  0.00    +0.000 A 
ATOM      6  N   UNL     1       1.146   8.542  20.589  0.00  0.00    +0.000 N 
ATOM      7  C   UNL     1      -0.023  10.565  21.549  0.00  0.00    +0.000 A 
ATOM      8  O   UNL     1       0.473  10.255  22.628  0.00  0.00    +0.000 OA
ATOM      9  H   UNL     1       1.394   8.399  21.566  0.00  0.00    +0.000 HD
ENDROOT
BRANCH   1  13
ATOM     10  C   UNL     1      -2.581  14.120  24.275  0.00  0.00    +0.000 A 
ATOM     11  C   UNL     1      -1.348  14.420  23.706  0.00  0.00    +0.000 A 
ATOM     12  C   UNL     1      -0.803  13.594  22.719  0.00  0.00    +0.000 A 
ATOM     13  C   UNL     1      -1.470  12.440  22.291  0.00  0.00    +0.000 A 
ATOM     14  C   UNL     1      -2.707  12.147  22.889  0.00  0.00    +0.000 A 
ATOM     15  C   UNL     1      -3.256  12.972  23.873  0.00  0.00    +0.000 A 
BRANCH  10  17
ATOM     16  C   UNL     1      -3.595  16.190  24.724  0.00  0.00    +0.000 C 
ATOM     17  O   UNL     1      -3.019  14.993  25.233  0.00  0.00    +0.000 OA
ENDBRANCH  10  17
ENDBRANCH   1  13
BRANCH   6  18
ATOM     18  C   UNL     1       2.056   8.042  19.567  0.00  0.00    +0.000 C 
BRANCH  18  19
ATOM     19  C   UNL     1       2.150   6.516  19.531  0.00  0.00    +0.000 C 
BRANCH  19  20
ATOM     20  C   UNL     1       3.251   6.064  18.593  0.00  0.00    +0.000 A 
ATOM     21  C   UNL     1       3.639   4.714  18.535  0.00  0.00    +0.000 A 
ATOM     22  C   UNL     1       4.690   4.315  17.707  0.00  0.00    +0.000 A 
ATOM     23  C   UNL     1       5.356   5.263  16.930  0.00  0.00    +0.000 A 
ATOM     24  C   UNL     1       4.989   6.610  16.973  0.00  0.00    +0.000 A 
ATOM     25  C   UNL     1       3.938   7.003  17.805  0.00  0.00    +0.000 A 
BRANCH  23  26
ATOM     26  S   UNL     1       6.692   4.740  15.899  0.00  0.00    +0.000 S 
ATOM     27  O   UNL     1       6.696   5.518  14.681  0.00  0.00    +0.000 OA
ATOM     28  O   UNL     1       7.875   4.556  16.706  0.00  0.00    +0.000 OA
BRANCH  26  29
ATOM     29  N   UNL     1       6.171   3.202  15.478  0.00  0.00    +0.000 NA
ATOM     30  H   UNL     1       5.272   3.242  15.002  0.00  0.00    +0.000 HD
ATOM     31  H   UNL     1       6.903   2.698  14.978  0.00  0.00    +0.000 HD
ENDBRANCH  26  29
ENDBRANCH  23  26
ENDBRANCH  19  20
ENDBRANCH  18  19
ENDBRANCH   6  18
TORSDOF 7
ENDMDL
MODEL 3
REMARK VINA RESULT:      -7.6      1.893      2.634
REMARK  Name = 
REMARK  8 active torsions:
REMARK  status: ('A' for Active; 'I' for Inactive)
REMARK    1  A    between atoms: C_1  and  O_2
REMARK    2  A    between atoms: O_2  and  C_3
REMARK    3  A    between atoms: C_6  and  N_7
REMARK    4  A    between atoms: N_12  and  C_13
REMARK    5  A    between atoms: C_13  and  C_14
REMARK    6  A    between atoms: C_14  and  C_15
REMARK    7  A    between atoms: C_18  and  S_19
REMARK    8  A    between atoms: S_19  and  N_20
REMARK                            x       y       z     vdW  Elec       q    Type
REMARK                         _______ _______ _______ _____ _____    ______ ____
ROOT
ATOM      1  N   UNL     1      -1.062  11.461  22.366  0.00  0.00    +0.000 N 
ATOM      2  C   UNL     1      -0.675  10.293  22.999  0.00  0.00    +0.000 A 
ATOM      3  C   UNL     1      -0.074   9.297  22.330  0.00  0.00    +0.000 A 
ATOM      4  N   UNL     1       0.318   9.348  21.030  0.00  0.00    +0.000 NA
ATOM      5  C   UNL     1       0.049  10.446  20.364  0.00  0.00    +0.000 A 
ATOM      6  N   UNL     1       0.515  10.607  19.065  0.00  0.00    +0.000 N 
ATOM      7  C   UNL     1      -0.789  11.595  20.991  0.00  0.00    +0.000 A 
ATOM      8  O   UNL     1      -1.107  12.498  20.222  0.00  0.00    +0.000 OA
ATOM      9  H   UNL     1       0.220  11.468  18.610  0.00  0.00    +0.000 HD
ENDROOT
BRANCH   1  13
ATOM     10  C   UNL     1      -3.204  14.506  24.448  0.00  0.00    +0.000 A 
ATOM     11  C   UNL     1      -1.882  14.713  24.071  0.00  0.00    +0.000 A 
ATOM     12  C   UNL     1      -1.174  13.717  23.392  0.00  0.00    +0.000 A 
ATOM     13  C   UNL     1      -1.767  12.485  23.091  0.00  0.00    +0.000 A 
ATOM     14  C   UNL     1      -3.099  12.291  23.494  0.00  0.00    +0.000 A 
ATOM     15  C   UNL     1      -3.810  13.285  24.169  0.00  0.00    +0.000 A 
BRANCH  10  17
ATOM     16  C   UNL     1      -3.771  16.784  24.413  0.00  0.00    +0.000 C 
ATOM     17  O   UNL     1      -3.801  15.544  25.109  0.00  0.00    +0.000 OA
ENDBRANCH  10  17
ENDBRANCH   1  13
BRANCH   6  18
ATOM     18  C   UNL     1       0.743   9.431  18.235  0.00  0.00    +0.000 C 
BRANCH  18  19
ATOM     19  C   UNL     1       2.186   9.303  17.748  0.00  0.00    +0.000 C 
BRANCH  19  20
ATOM     20  C   UNL     1       2.743   7.928  18.060  0.00  0.00    +0.000 A 
ATOM     21  C   UNL     1       2.353   7.238  19.222  0.00  0.00    +0.000 A 
ATOM     22  C   UNL     1       2.911   5.996  19.528  0.00  0.00    +0.000 A 
ATOM     23  C   UNL     1       3.858   5.435  18.672  0.00  0.00    +0.000 A 
ATOM     24  C   UNL     1       4.262   6.102  17.513  0.00  0.00    +0.000 A 
ATOM     25  C   UNL     1       3.702   7.345  17.213  0.00  0.00    +0.000 A 
BRANCH  23  26
ATOM     26  S   UNL     1       4.562   3.867  19.084  0.00  0.00    +0.000 S 
ATOM     27  O   UNL     1       5.982   4.019  19.312  0.00  0.00    +0.000 OA
ATOM     28  O   UNL     1       3.696   3.184  20.016  0.00  0.00    +0.000 OA
BRANCH  26  29
ATOM     29  N   UNL     1       4.401   3.063  17.621  0.00  0.00    +0.000 NA
ATOM     30  H   UNL     1       3.659   2.367  17.671  0.00  0.00    +0.000 HD
ATOM     31  H   UNL     1       4.320   3.727  16.852  0.00  0.00    +0.000 HD
ENDBRANCH  26  29
ENDBRANCH  23  26
ENDBRANCH  19  20
ENDBRANCH  18  19
ENDBRANCH   6  18
TORSDOF 7
ENDMDL
MODEL 4
REMARK VINA RESULT:      -7.5      3.226      4.041
REMARK  Name = 
REMARK  8 active torsions:
REMARK  status: ('A' for Active; 'I' for Inactive)
REMARK    1  A    between atoms: C_1  and  O_2
REMARK    2  A    between atoms: O_2  and  C_3
REMARK    3  A    between atoms: C_6  and  N_7
REMARK    4  A    between atoms: N_12  and  C_13
REMARK    5  A    between atoms: C_13  and  C_14
REMARK    6  A    between atoms: C_14  and  C_15
REMARK    7  A    between atoms: C_18  and  S_19
REMARK    8  A    between atoms: S_19  and  N_20
REMARK                            x       y       z     vdW  Elec       q    Type
REMARK                         _______ _______ _______ _____ _____    ______ ____
ROOT
ATOM      1  N   UNL     1      -1.886  11.584  18.778  0.00  0.00    +0.000 N 
ATOM      2  C   UNL     1      -1.130  12.480  19.513  0.00  0.00    +0.000 A 
ATOM      3  C   UNL     1       0.170  12.264  19.762  0.00  0.00    +0.000 A 
ATOM      4  N   UNL     1       0.908  11.242  19.255  0.00  0.00    +0.000 NA
ATOM      5  C   UNL     1       0.288  10.374  18.492  0.00  0.00    +0.000 A 
ATOM      6  N   UNL     1       1.003   9.368  17.854  0.00  0.00    +0.000 N 
ATOM      7  C   UNL     1      -1.249  10.435  18.271  0.00  0.00    +0.000 A 
ATOM      8  O   UNL     1      -1.735   9.482  17.668  0.00  0.00    +0.000 OA
ATOM      9  H   UNL     1       0.435   8.713  17.320  0.00  0.00    +0.000 HD
ENDROOT
BRANCH   1  13
ATOM     10  C   UNL     1      -6.043  12.302  18.145  0.00  0.00    +0.000 A 
ATOM     11  C   UNL     1      -5.478  12.511  19.399  0.00  0.00    +0.000 A 
ATOM     12  C   UNL     1      -4.118  12.273  19.613  0.00  0.00    +0.000 A 
ATOM     13  C   UNL     1      -3.294  11.805  18.583  0.00  0.00    +0.000 A 
ATOM     14  C   UNL     1      -3.887  11.586  17.328  0.00  0.00    +0.000 A 
ATOM     15  C   UNL     1      -5.246  11.826  17.110  0.00  0.00    +0.000 A 
BRANCH  10  17
ATOM     16  C   UNL     1      -7.886  13.451  19.037  0.00  0.00    +0.000 C 
ATOM     17  O   UNL     1      -7.382  12.563  18.047  0.00  0.00    +0.000 OA
ENDBRANCH  10  17
ENDBRANCH   1  13
BRANCH   6  18
ATOM     18  C   UNL     1       2.240   8.880  18.450  0.00  0.00    +0.000 C 
BRANCH  18  19
ATOM     19  C   UNL     1       2.248   7.369  18.680  0.00  0.00    +0.000 C 
BRANCH  19  20
ATOM     20  C   UNL     1       3.466   6.731  18.042  0.00  0.00    +0.000 A 
ATOM     21  C   UNL     1       3.985   7.220  16.830  0.00  0.00    +0.000 A 
ATOM     22  C   UNL     1       5.075   6.593  16.223  0.00  0.00    +0.000 A 
ATOM     23  C   UNL     1       5.653   5.476  16.826  0.00  0.00    +0.000 A 
ATOM     24  C   UNL     1       5.153   4.971  18.028  0.00  0.00    +0.000 A 
ATOM     25  C   UNL     1       4.062   5.602  18.630  0.00  0.00    +0.000 A 
BRANCH  23  26
ATOM     26  S   UNL     1       7.022   4.689  16.033  0.00  0.00    +0.000 S 
ATOM     27  O   UNL     1       7.430   5.468  14.885  0.00  0.00    +0.000 OA
ATOM     28  O   UNL     1       7.959   4.236  17.035  0.00  0.00    +0.000 OA
BRANCH  26  29
ATOM     29  N   UNL     1       6.279   3.311  15.432  0.00  0.00    +0.000 NA
ATOM     30  H   UNL     1       6.962   2.572  15.273  0.00  0.00    +0.000 HD
ATOM     31  H   UNL     1       5.484   3.047  16.013  0.00  0.00    +0.000 HD
ENDBRANCH  26  29
ENDBRANCH  23  26
ENDBRANCH  19  20
ENDBRANCH  18  19
ENDBRANCH   6  18
TORSDOF 7
ENDMDL
MODEL 5
REMARK VINA RESULT:      -7.5      3.217      4.113
REMARK  Name = 
REMARK  8 active torsions:
REMARK  status: ('A' for Active; 'I' for Inactive)
REMARK    1  A    between atoms: C_1  and  O_2
REMARK    2  A    between atoms: O_2  and  C_3
REMARK    3  A    between atoms: C_6  and  N_7
REMARK    4  A    between atoms: N_12  and  C_13
REMARK    5  A    between atoms: C_13  and  C_14
REMARK    6  A    between atoms: C_14  and  C_15
REMARK    7  A    between atoms: C_18  and  S_19
REMARK    8  A    between atoms: S_19  and  N_20
REMARK                            x       y       z     vdW  Elec       q    Type
REMARK                         _______ _______ _______ _____ _____    ______ ____
ROOT
ATOM      1  N   UNL     1      -1.953  11.219  19.097  0.00  0.00    +0.000 N 
ATOM      2  C   UNL     1      -1.453  11.639  20.317  0.00  0.00    +0.000 A 
ATOM      3  C   UNL     1      -0.258  11.227  20.766  0.00  0.00    +0.000 A 
ATOM      4  N   UNL     1       0.627  10.470  20.066  0.00  0.00    +0.000 NA
ATOM      5  C   UNL     1       0.264  10.075  18.869  0.00  0.00    +0.000 A 
ATOM      6  N   UNL     1       1.159   9.389  18.057  0.00  0.00    +0.000 N 
ATOM      7  C   UNL     1      -1.161  10.354  18.316  0.00  0.00    +0.000 A 
ATOM      8  O   UNL     1      -1.434   9.803  17.252  0.00  0.00    +0.000 OA
ATOM      9  H   UNL     1       0.778   9.082  17.165  0.00  0.00    +0.000 HD
ENDROOT
BRANCH   1  13
ATOM     10  C   UNL     1      -5.812  12.465  17.774  0.00  0.00    +0.000 A 
ATOM     11  C   UNL     1      -5.418  12.682  19.091  0.00  0.00    +0.000 A 
ATOM     12  C   UNL     1      -4.157  12.272  19.530  0.00  0.00    +0.000 A 
ATOM     13  C   UNL     1      -3.267  11.620  18.669  0.00  0.00    +0.000 A 
ATOM     14  C   UNL     1      -3.690  11.397  17.347  0.00  0.00    +0.000 A 
ATOM     15  C   UNL     1      -4.948  11.808  16.904  0.00  0.00    +0.000 A 
BRANCH  10  17
ATOM     16  C   UNL     1      -7.884  13.235  18.567  0.00  0.00    +0.000 C 
ATOM     17  O   UNL     1      -7.067  12.903  17.451  0.00  0.00    +0.000 OA
ENDBRANCH  10  17
ENDBRANCH   1  13
BRANCH   6  18
ATOM     18  C   UNL     1       2.212   8.589  18.670  0.00  0.00    +0.000 C 
BRANCH  18  19
ATOM     19  C   UNL     1       2.009   7.084  18.495  0.00  0.00    +0.000 C 
BRANCH  19  20
ATOM     20  C   UNL     1       3.174   6.464  17.750  0.00  0.00    +0.000 A 
ATOM     21  C   UNL     1       3.303   5.068  17.645  0.00  0.00    +0.000 A 
ATOM     22  C   UNL     1       4.407   4.505  17.003  0.00  0.00    +0.000 A 
ATOM     23  C   UNL     1       5.387   5.335  16.459  0.00  0.00    +0.000 A 
ATOM     24  C   UNL     1       5.282   6.724  16.553  0.00  0.00    +0.000 A 
ATOM     25  C   UNL     1       4.176   7.282  17.198  0.00  0.00    +0.000 A 
BRANCH  23  26
ATOM     26  S   UNL     1       6.784   4.602  15.663  0.00  0.00    +0.000 S 
ATOM     27  O   UNL     1       6.397   3.341  15.072  0.00  0.00    +0.000 OA
ATOM     28  O   UNL     1       7.501   5.616  14.925  0.00  0.00    +0.000 OA
BRANCH  26  29
ATOM     29  N   UNL     1       7.737   4.231  16.992  0.00  0.00    +0.000 NA
ATOM     30  H   UNL     1       8.705   4.500  16.829  0.00  0.00    +0.000 HD
ATOM     31  H   UNL     1       7.322   4.601  17.847  0.00  0.00    +0.000 HD
ENDBRANCH  26  29
ENDBRANCH  23  26
ENDBRANCH  19  20
ENDBRANCH  18  19
ENDBRANCH   6  18
TORSDOF 7
ENDMDL
MODEL 6
REMARK VINA RESULT:      -7.4      4.020     11.275
REMARK  Name = 
REMARK  8 active torsions:
REMARK  status: ('A' for Active; 'I' for Inactive)
REMARK    1  A    between atoms: C_1  and  O_2
REMARK    2  A    between atoms: O_2  and  C_3
REMARK    3  A    between atoms: C_6  and  N_7
REMARK    4  A    between atoms: N_12  and  C_13
REMARK    5  A    between atoms: C_13  and  C_14
REMARK    6  A    between atoms: C_14  and  C_15
REMARK    7  A    between atoms: C_18  and  S_19
REMARK    8  A    between atoms: S_19  and  N_20
REMARK                            x       y       z     vdW  Elec       q    Type
REMARK                         _______ _______ _______ _____ _____    ______ ____
ROOT
ATOM      1  N   UNL     1       2.086   7.756  19.115  0.00  0.00    +0.000 N 
ATOM      2  C   UNL     1       1.855   7.503  20.456  0.00  0.00    +0.000 A 
ATOM      3  C   UNL     1       1.216   8.386  21.238  0.00  0.00    +0.000 A 
ATOM      4  N   UNL     1       0.639   9.540  20.811  0.00  0.00    +0.000 NA
ATOM      5  C   UNL     1       0.753   9.833  19.538  0.00  0.00    +0.000 A 
ATOM      6  N   UNL     1       0.097  10.941  19.015  0.00  0.00    +0.000 N 
ATOM      7  C   UNL     1       1.611   8.967  18.575  0.00  0.00    +0.000 A 
ATOM      8  O   UNL     1       1.768   9.427  17.447  0.00  0.00    +0.000 OA
ATOM      9  H   UNL     1       0.278  11.118  18.030  0.00  0.00    +0.000 HD
ENDROOT
BRANCH   1  13
ATOM     10  C   UNL     1       4.326   4.950  16.812  0.00  0.00    +0.000 A 
ATOM     11  C   UNL     1       4.702   6.289  16.844  0.00  0.00    +0.000 A 
ATOM     12  C   UNL     1       3.969   7.213  17.594  0.00  0.00    +0.000 A 
ATOM     13  C   UNL     1       2.834   6.824  18.314  0.00  0.00    +0.000 A 
ATOM     14  C   UNL     1       2.463   5.469  18.257  0.00  0.00    +0.000 A 
ATOM     15  C   UNL     1       3.195   4.543  17.511  0.00  0.00    +0.000 A 
BRANCH  10  17
ATOM     16  C   UNL     1       5.792   4.791  14.984  0.00  0.00    +0.000 C 
ATOM     17  O   UNL     1       5.111   4.133  16.046  0.00  0.00    +0.000 OA
ENDBRANCH  10  17
ENDBRANCH   1  13
BRANCH   6  18
ATOM     18  C   UNL     1      -0.187  12.079  19.879  0.00  0.00    +0.000 C 
BRANCH  18  19
ATOM     19  C   UNL     1      -1.413  12.881  19.443  0.00  0.00    +0.000 C 
BRANCH  19  20
ATOM     20  C   UNL     1      -2.506  12.812  20.491  0.00  0.00    +0.000 A 
ATOM     21  C   UNL     1      -3.860  12.740  20.118  0.00  0.00    +0.000 A 
ATOM     22  C   UNL     1      -4.862  12.730  21.090  0.00  0.00    +0.000 A 
ATOM     23  C   UNL     1      -4.516  12.789  22.439  0.00  0.00    +0.000 A 
ATOM     24  C   UNL     1      -3.179  12.863  22.834  0.00  0.00    +0.000 A 
ATOM     25  C   UNL     1      -2.180  12.875  21.858  0.00  0.00    +0.000 A 
BRANCH  23  26
ATOM     26  S   UNL     1      -5.800  12.789  23.653  0.00  0.00    +0.000 S 
ATOM     27  O   UNL     1      -6.147  14.151  23.990  0.00  0.00    +0.000 OA
ATOM     28  O   UNL     1      -6.793  11.801  23.300  0.00  0.00    +0.000 OA
BRANCH  26  29
ATOM     29  N   UNL     1      -4.975  12.169  24.975  0.00  0.00    +0.000 NA
ATOM     30  H   UNL     1      -4.076  11.784  24.692  0.00  0.00    +0.000 HD
ATOM     31  H   UNL     1      -4.934  12.855  25.728  0.00  0.00    +0.000 HD
ENDBRANCH  26  29
ENDBRANCH  23  26
ENDBRANCH  19  20
ENDBRANCH  18  19
ENDBRANCH   6  18
TORSDOF 7
ENDMDL
MODEL 7
REMARK VINA RESULT:      -7.4      3.925     11.362
REMARK  Name = 
REMARK  8 active torsions:
REMARK  status: ('A' for Active; 'I' for Inactive)
REMARK    1  A    between atoms: C_1  and  O_2
REMARK    2  A    between atoms: O_2  and  C_3
REMARK    3  A    between atoms: C_6  and  N_7
REMARK    4  A    between atoms: N_12  and  C_13
REMARK    5  A    between atoms: C_13  and  C_14
REMARK    6  A    between atoms: C_14  and  C_15
REMARK    7  A    between atoms: C_18  and  S_19
REMARK    8  A    between atoms: S_19  and  N_20
REMARK                            x       y       z     vdW  Elec       q    Type
REMARK                         _______ _______ _______ _____ _____    ______ ____
ROOT
ATOM      1  N   UNL     1       2.435   7.274  18.867  0.00  0.00    +0.000 N 
ATOM      2  C   UNL     1       2.171   6.879  20.167  0.00  0.00    +0.000 A 
ATOM      3  C   UNL     1       1.489   7.662  21.015  0.00  0.00    +0.000 A 
ATOM      4  N   UNL     1       0.897   8.842  20.692  0.00  0.00    +0.000 NA
ATOM      5  C   UNL     1       1.041   9.268  19.460  0.00  0.00    +0.000 A 
ATOM      6  N   UNL     1       0.374  10.410  19.033  0.00  0.00    +0.000 N 
ATOM      7  C   UNL     1       1.947   8.525  18.441  0.00  0.00    +0.000 A 
ATOM      8  O   UNL     1       2.126   9.102  17.371  0.00  0.00    +0.000 OA
ATOM      9  H   UNL     1       0.580  10.693  18.078  0.00  0.00    +0.000 HD
ENDROOT
BRANCH   1  13
ATOM     10  C   UNL     1       4.816   4.777  16.360  0.00  0.00    +0.000 A 
ATOM     11  C   UNL     1       5.064   6.144  16.426  0.00  0.00    +0.000 A 
ATOM     12  C   UNL     1       4.285   6.967  17.243  0.00  0.00    +0.000 A 
ATOM     13  C   UNL     1       3.228   6.445  17.998  0.00  0.00    +0.000 A 
ATOM     14  C   UNL     1       2.985   5.065  17.906  0.00  0.00    +0.000 A 
ATOM     15  C   UNL     1       3.764   4.238  17.093  0.00  0.00    +0.000 A 
BRANCH  10  17
ATOM     16  C   UNL     1       6.940   4.612  15.372  0.00  0.00    +0.000 C 
ATOM     17  O   UNL     1       5.636   4.065  15.528  0.00  0.00    +0.000 OA
ENDBRANCH  10  17
ENDBRANCH   1  13
BRANCH   6  18
ATOM     18  C   UNL     1       0.038  11.446  20.001  0.00  0.00    +0.000 C 
BRANCH  18  19
ATOM     19  C   UNL     1      -1.011  12.435  19.492  0.00  0.00    +0.000 C 
BRANCH  19  20
ATOM     20  C   UNL     1      -2.126  12.611  20.504  0.00  0.00    +0.000 A 
ATOM     21  C   UNL     1      -1.846  12.685  21.880  0.00  0.00    +0.000 A 
ATOM     22  C   UNL     1      -2.884  12.793  22.808  0.00  0.00    +0.000 A 
ATOM     23  C   UNL     1      -4.205  12.831  22.365  0.00  0.00    +0.000 A 
ATOM     24  C   UNL     1      -4.507  12.757  21.003  0.00  0.00    +0.000 A 
ATOM     25  C   UNL     1      -3.466  12.647  20.080  0.00  0.00    +0.000 A 
BRANCH  23  26
ATOM     26  S   UNL     1      -5.504  12.955  23.556  0.00  0.00    +0.000 S 
ATOM     27  O   UNL     1      -5.643  14.330  23.980  0.00  0.00    +0.000 OA
ATOM     28  O   UNL     1      -6.629  12.160  23.123  0.00  0.00    +0.000 OA
BRANCH  26  29
ATOM     29  N   UNL     1      -4.819  12.129  24.846  0.00  0.00    +0.000 NA
ATOM     30  H   UNL     1      -5.234  11.205  24.945  0.00  0.00    +0.000 HD
ATOM     31  H   UNL     1      -3.801  12.141  24.781  0.00  0.00    +0.000 HD
ENDBRANCH  26  29
ENDBRANCH  23  26
ENDBRANCH  19  20
ENDBRANCH  18  19
ENDBRANCH   6  18
TORSDOF 7
ENDMDL
MODEL 8
REMARK VINA RESULT:      -7.4      3.818     11.320
REMARK  Name = 
REMARK  8 active torsions:
REMARK  status: ('A' for Active; 'I' for Inactive)
REMARK    1  A    between atoms: C_1  and  O_2
REMARK    2  A    between atoms: O_2  and  C_3
REMARK    3  A    between atoms: C_6  and  N_7
REMARK    4  A    between atoms: N_12  and  C_13
REMARK    5  A    between atoms: C_13  and  C_14
REMARK    6  A    between atoms: C_14  and  C_15
REMARK    7  A    between atoms: C_18  and  S_19
REMARK    8  A    between atoms: S_19  and  N_20
REMARK                            x       y       z     vdW  Elec       q    Type
REMARK                         _______ _______ _______ _____ _____    ______ ____
ROOT
ATOM      1  N   UNL     1       2.591   7.179  18.717  0.00  0.00    +0.000 N 
ATOM      2  C   UNL     1       2.266   6.889  20.030  0.00  0.00    +0.000 A 
ATOM      3  C   UNL     1       1.568   7.748  20.788  0.00  0.00    +0.000 A 
ATOM      4  N   UNL     1       1.015   8.910  20.353  0.00  0.00    +0.000 NA
ATOM      5  C   UNL     1       1.217   9.238  19.099  0.00  0.00    +0.000 A 
ATOM      6  N   UNL     1       0.593  10.357  18.560  0.00  0.00    +0.000 N 
ATOM      7  C   UNL     1       2.147   8.402  18.177  0.00  0.00    +0.000 A 
ATOM      8  O   UNL     1       2.381   8.893  17.075  0.00  0.00    +0.000 OA
ATOM      9  H   UNL     1       0.842  10.562  17.596  0.00  0.00    +0.000 HD
ENDROOT
BRANCH   1  13
ATOM     10  C   UNL     1       5.003   4.445  16.503  0.00  0.00    +0.000 A 
ATOM     11  C   UNL     1       5.402   5.768  16.654  0.00  0.00    +0.000 A 
ATOM     12  C   UNL     1       4.614   6.670  17.374  0.00  0.00    +0.000 A 
ATOM     13  C   UNL     1       3.399   6.272  17.946  0.00  0.00    +0.000 A 
ATOM     14  C   UNL     1       3.007   4.934  17.770  0.00  0.00    +0.000 A 
ATOM     15  C   UNL     1       3.794   4.031  17.054  0.00  0.00    +0.000 A 
BRANCH  10  17
ATOM     16  C   UNL     1       6.111   4.115  14.460  0.00  0.00    +0.000 C 
ATOM     17  O   UNL     1       5.847   3.650  15.778  0.00  0.00    +0.000 OA
ENDBRANCH  10  17
ENDBRANCH   1  13
BRANCH   6  18
ATOM     18  C   UNL     1       0.241  11.470  19.433  0.00  0.00    +0.000 C 
BRANCH  18  19
ATOM     19  C   UNL     1      -1.107  12.105  19.092  0.00  0.00    +0.000 C 
BRANCH  19  20
ATOM     20  C   UNL     1      -1.914  12.369  20.348  0.00  0.00    +0.000 A 
ATOM     21  C   UNL     1      -3.289  12.651  20.277  0.00  0.00    +0.000 A 
ATOM     22  C   UNL     1      -4.013  12.945  21.434  0.00  0.00    +0.000 A 
ATOM     23  C   UNL     1      -3.365  12.956  22.669  0.00  0.00    +0.000 A 
ATOM     24  C   UNL     1      -1.999  12.682  22.764  0.00  0.00    +0.000 A 
ATOM     25  C   UNL     1      -1.280  12.390  21.603  0.00  0.00    +0.000 A 
BRANCH  23  26
ATOM     26  S   UNL     1      -4.296  13.345  24.119  0.00  0.00    +0.000 S 
ATOM     27  O   UNL     1      -3.446  14.025  25.072  0.00  0.00    +0.000 OA
ATOM     28  O   UNL     1      -5.591  13.854  23.735  0.00  0.00    +0.000 OA
BRANCH  26  29
ATOM     29  N   UNL     1      -4.562  11.807  24.735  0.00  0.00    +0.000 NA
ATOM     30  H   UNL     1      -4.525  11.110  23.994  0.00  0.00    +0.000 HD
ATOM     31  H   UNL     1      -3.950  11.627  25.531  0.00  0.00    +0.000 HD
ENDBRANCH  26  29
ENDBRANCH  23  26
ENDBRANCH  19  20
ENDBRANCH  18  19
ENDBRANCH   6  18
TORSDOF 7
ENDMDL
MODEL 9
REMARK VINA RESULT:      -7.4      3.065      3.553
REMARK  Name = 
REMARK  8 active torsions:
REMARK  status: ('A' for Active; 'I' for Inactive)
REMARK    1  A    between atoms: C_1  and  O_2
REMARK    2  A    between atoms: O_2  and  C_3
REMARK    3  A    between atoms: C_6  and  N_7
REMARK    4  A    between atoms: N_12  and  C_13
REMARK    5  A    between atoms: C_13  and  C_14
REMARK    6  A    between atoms: C_14  and  C_15
REMARK    7  A    between atoms: C_18  and  S_19
REMARK    8  A    between atoms: S_19  and  N_20
REMARK                            x       y       z     vdW  Elec       q    Type
REMARK                         _______ _______ _______ _____ _____    ______ ____
ROOT
ATOM      1  N   UNL     1       0.372  10.481  20.639  0.00  0.00    +0.000 N 
ATOM      2  C   UNL     1      -0.262  10.215  21.840  0.00  0.00    +0.000 A 
ATOM      3  C   UNL     1      -0.220   8.999  22.403  0.00  0.00    +0.000 A 
ATOM      4  N   UNL     1       0.511   7.947  21.948  0.00  0.00    +0.000 NA
ATOM      5  C   UNL     1       1.198   8.126  20.846  0.00  0.00    +0.000 A 
ATOM      6  N   UNL     1       2.050   7.129  20.384  0.00  0.00    +0.000 N 
ATOM      7  C   UNL     1       1.092   9.439  20.022  0.00  0.00    +0.000 A 
ATOM      8  O   UNL     1       1.659   9.428  18.933  0.00  0.00    +0.000 OA
ATOM      9  H   UNL     1       2.507   7.335  19.499  0.00  0.00    +0.000 HD
ENDROOT
BRANCH   1  13
ATOM     10  C   UNL     1      -0.009  14.349  18.881  0.00  0.00    +0.000 A 
ATOM     11  C   UNL     1      -0.749  13.279  18.388  0.00  0.00    +0.000 A 
ATOM     12  C   UNL     1      -0.624  12.009  18.958  0.00  0.00    +0.000 A 
ATOM     13  C   UNL     1       0.255  11.775  20.022  0.00  0.00    +0.000 A 
ATOM     14  C   UNL     1       1.004  12.866  20.495  0.00  0.00    +0.000 A 
ATOM     15  C   UNL     1       0.880  14.137  19.930  0.00  0.00    +0.000 A 
BRANCH  10  17
ATOM     16  C   UNL     1       0.667  16.588  18.671  0.00  0.00    +0.000 C 
ATOM     17  O   UNL     1      -0.205  15.546  18.249  0.00  0.00    +0.000 OA
ENDBRANCH  10  17
ENDBRANCH   1  13
BRANCH   6  18
ATOM     18  C   UNL     1       1.763   5.737  20.705  0.00  0.00    +0.000 C 
BRANCH  18  19
ATOM     19  C   UNL     1       1.731   4.826  19.478  0.00  0.00    +0.000 C 
BRANCH  19  20
ATOM     20  C   UNL     1       3.071   4.828  18.768  0.00  0.00    +0.000 A 
ATOM     21  C   UNL     1       4.223   5.322  19.402  0.00  0.00    +0.000 A 
ATOM     22  C   UNL     1       5.441   5.369  18.722  0.00  0.00    +0.000 A 
ATOM     23  C   UNL     1       5.513   4.918  17.404  0.00  0.00    +0.000 A 
ATOM     24  C   UNL     1       4.381   4.424  16.752  0.00  0.00    +0.000 A 
ATOM     25  C   UNL     1       3.165   4.382  17.438  0.00  0.00    +0.000 A 
BRANCH  23  26
ATOM     26  S   UNL     1       7.061   4.998  16.556  0.00  0.00    +0.000 S 
ATOM     27  O   UNL     1       6.999   4.191  15.358  0.00  0.00    +0.000 OA
ATOM     28  O   UNL     1       7.532   6.363  16.547  0.00  0.00    +0.000 OA
BRANCH  26  29
ATOM     29  N   UNL     1       8.046   4.172  17.634  0.00  0.00    +0.000 NA
ATOM     30  H   UNL     1       8.316   3.266  17.255  0.00  0.00    +0.000 HD
ATOM     31  H   UNL     1       8.821   4.761  17.938  0.00  0.00    +0.000 HD
ENDBRANCH  26  29
ENDBRANCH  23  26
ENDBRANCH  19  20
ENDBRANCH  18  19
ENDBRANCH   6  18
TORSDOF 7
ENDMDL
