MODEL 1
REMARK VINA RESULT:      -8.1      0.000      0.000
REMARK  Name = 
REMARK  5 active torsions:
REMARK  status: ('A' for Active; 'I' for Inactive)
REMARK    1  A    between atoms: C_1  and  C_2
REMARK    2  A    between atoms: C_2  and  C_4
REMARK    3  A    between atoms: C_6  and  C_7
REMARK    4  A    between atoms: C_12  and  O_13
REMARK    5  A    between atoms: C_19  and  O_20
REMARK                            x       y       z     vdW  Elec       q    Type
REMARK                         _______ _______ _______ _____ _____    ______ ____
ROOT
ATOM      1  C   UNL     1       6.183   4.138  14.027  0.00  0.00    +0.000 A 
ATOM      2  C   UNL     1       5.271   3.622  14.984  0.00  0.00    +0.000 A 
ATOM      3  C   UNL     1       5.316   4.028  16.324  0.00  0.00    +0.000 A 
ATOM      4  C   UNL     1       6.314   4.956  16.681  0.00  0.00    +0.000 A 
ATOM      5  C   UNL     1       7.204   5.490  15.758  0.00  0.00    +0.000 A 
ATOM      6  C   UNL     1       7.143   5.077  14.431  0.00  0.00    +0.000 A 
ENDROOT
BRANCH   3   7
ATOM      7  C   UNL     1       4.447   3.502  17.402  0.00  0.00    +0.000 A 
ATOM      8  C   UNL     1       3.128   3.112  17.266  0.00  0.00    +0.000 A 
ATOM      9  C   UNL     1       2.415   3.110  18.496  0.00  0.00    +0.000 A 
ATOM     10  C   UNL     1       1.023   3.133  18.723  0.00  0.00    +0.000 A 
ATOM     11  C   UNL     1       0.525   3.034  20.017  0.00  0.00    +0.000 A 
ATOM     12  C   UNL     1       1.409   2.840  21.066  0.00  0.00    +0.000 A 
ATOM     13  C   UNL     1       2.794   2.853  20.882  0.00  0.00    +0.000 A 
ATOM     14  C   UNL     1       3.290   3.059  19.580  0.00  0.00    +0.000 A 
ATOM     15  S   UNL     1       4.917   3.322  19.044  0.00  0.00    +0.000 S 
BRANCH  12  16
ATOM     16  O   UNL     1       0.934   2.642  22.332  0.00  0.00    +0.000 OA
ATOM     17  H   UNL     1       0.743   1.696  22.444  0.00  0.00    +0.000 HD
ENDBRANCH  12  16
ENDBRANCH   3   7
BRANCH   1  19
ATOM     18  C   UNL     1       4.715   3.356  12.010  0.00  0.00    +0.000 C 
ATOM     19  C   UNL     1       6.067   3.629  12.621  0.00  0.00    +0.000 C 
ATOM     20  O   UNL     1       7.084   3.451  11.962  0.00  0.00    +0.000 OA
ENDBRANCH   1  19
BRANCH   6  21
ATOM     21  O   UNL     1       8.041   5.625  13.563  0.00  0.00    +0.000 OA
ATOM     22  H   UNL     1       8.372   6.469  13.922  0.00  0.00    +0.000 HD
ENDBRANCH   6  21
TORSDOF 4
ENDMDL
MODEL 2
REMARK VINA RESULT:      -7.9      1.053      1.110
REMARK  Name = 
REMARK  5 active torsions:
REMARK  status: ('A' for Active; 'I' for Inactive)
REMARK    1  A    between atoms: C_1  and  C_2
REMARK    2  A    between atoms: C_2  and  C_4
REMARK    3  A    between atoms: C_6  and  C_7
REMARK    4  A    between atoms: C_12  and  O_13
REMARK    5  A    between atoms: C_19  and  O_20
REMARK                            x       y       z     vdW  Elec       q    Type
REMARK                         _______ _______ _______ _____ _____    ______ ____
ROOT
ATOM      1  C   UNL     1       6.134   4.192  13.869  0.00  0.00    +0.000 A 
ATOM      2  C   UNL     1       5.084   3.876  14.770  0.00  0.00    +0.000 A 
ATOM      3  C   UNL     1       5.060   4.395  16.071  0.00  0.00    +0.000 A 
ATOM      4  C   UNL     1       6.130   5.229  16.450  0.00  0.00    +0.000 A 
ATOM      5  C   UNL     1       7.158   5.569  15.579  0.00  0.00    +0.000 A 
ATOM      6  C   UNL     1       7.163   5.047  14.290  0.00  0.00    +0.000 A 
ENDROOT
BRANCH   3   7
ATOM      7  C   UNL     1       4.041   4.074  17.097  0.00  0.00    +0.000 A 
ATOM      8  C   UNL     1       3.182   4.974  17.700  0.00  0.00    +0.000 A 
ATOM      9  C   UNL     1       2.668   4.512  18.941  0.00  0.00    +0.000 A 
ATOM     10  C   UNL     1       2.084   5.244  19.996  0.00  0.00    +0.000 A 
ATOM     11  C   UNL     1       1.558   4.581  21.099  0.00  0.00    +0.000 A 
ATOM     12  C   UNL     1       1.551   3.196  21.113  0.00  0.00    +0.000 A 
ATOM     13  C   UNL     1       2.157   2.441  20.105  0.00  0.00    +0.000 A 
ATOM     14  C   UNL     1       2.780   3.126  19.043  0.00  0.00    +0.000 A 
ATOM     15  S   UNL     1       3.771   2.513  17.761  0.00  0.00    +0.000 S 
BRANCH  12  16
ATOM     16  O   UNL     1       0.952   2.525  22.141  0.00  0.00    +0.000 OA
ATOM     17  H   UNL     1       0.518   1.733  21.780  0.00  0.00    +0.000 HD
ENDBRANCH  12  16
ENDBRANCH   3   7
BRANCH   1  19
ATOM     18  C   UNL     1       4.757   3.257  11.853  0.00  0.00    +0.000 C 
ATOM     19  C   UNL     1       6.080   3.575  12.504  0.00  0.00    +0.000 C 
ATOM     20  O   UNL     1       7.126   3.343  11.909  0.00  0.00    +0.000 OA
ENDBRANCH   1  19
BRANCH   6  21
ATOM     21  O   UNL     1       8.196   5.406  13.474  0.00  0.00    +0.000 OA
ATOM     22  H   UNL     1       8.439   6.335  13.640  0.00  0.00    +0.000 HD
ENDBRANCH   6  21
TORSDOF 4
ENDMDL
MODEL 3
REMARK VINA RESULT:      -7.4      4.494      4.846
REMARK  Name = 
REMARK  5 active torsions:
REMARK  status: ('A' for Active; 'I' for Inactive)
REMARK    1  A    between atoms: C_1  and  C_2
REMARK    2  A    between atoms: C_2  and  C_4
REMARK    3  A    between atoms: C_6  and  C_7
REMARK    4  A    between atoms: C_12  and  O_13
REMARK    5  A    between atoms: C_19  and  O_20
REMARK                            x       y       z     vdW  Elec       q    Type
REMARK                         _______ _______ _______ _____ _____    ______ ____
ROOT
ATOM      1  C   UNL     1       6.286   5.196  16.260  0.00  0.00    +0.000 A 
ATOM      2  C   UNL     1       5.124   5.963  16.535  0.00  0.00    +0.000 A 
ATOM      3  C   UNL     1       4.724   6.234  17.850  0.00  0.00    +0.000 A 
ATOM      4  C   UNL     1       5.515   5.697  18.885  0.00  0.00    +0.000 A 
ATOM      5  C   UNL     1       6.668   4.960  18.640  0.00  0.00    +0.000 A 
ATOM      6  C   UNL     1       7.051   4.705  17.328  0.00  0.00    +0.000 A 
ENDROOT
BRANCH   3   7
ATOM      7  C   UNL     1       3.499   6.971  18.233  0.00  0.00    +0.000 A 
ATOM      8  C   UNL     1       2.907   7.993  17.513  0.00  0.00    +0.000 A 
ATOM      9  C   UNL     1       2.064   8.819  18.305  0.00  0.00    +0.000 A 
ATOM     10  C   UNL     1       1.593  10.124  18.047  0.00  0.00    +0.000 A 
ATOM     11  C   UNL     1       0.695  10.727  18.920  0.00  0.00    +0.000 A 
ATOM     12  C   UNL     1       0.217  10.004  20.001  0.00  0.00    +0.000 A 
ATOM     13  C   UNL     1       0.692   8.726  20.308  0.00  0.00    +0.000 A 
ATOM     14  C   UNL     1       1.680   8.167  19.475  0.00  0.00    +0.000 A 
ATOM     15  S   UNL     1       2.607   6.717  19.678  0.00  0.00    +0.000 S 
BRANCH  12  16
ATOM     16  O   UNL     1      -0.740  10.542  20.815  0.00  0.00    +0.000 OA
ATOM     17  H   UNL     1      -1.448  10.906  20.258  0.00  0.00    +0.000 HD
ENDBRANCH  12  16
ENDBRANCH   3   7
BRANCH   1  19
ATOM     18  C   UNL     1       5.712   4.118  13.949  0.00  0.00    +0.000 C 
ATOM     19  C   UNL     1       6.622   4.947  14.821  0.00  0.00    +0.000 C 
ATOM     20  O   UNL     1       7.641   5.436  14.349  0.00  0.00    +0.000 OA
ENDBRANCH   1  19
BRANCH   6  21
ATOM     21  O   UNL     1       8.187   3.973  17.139  0.00  0.00    +0.000 OA
ATOM     22  H   UNL     1       8.025   3.283  16.469  0.00  0.00    +0.000 HD
ENDBRANCH   6  21
TORSDOF 4
ENDMDL
MODEL 4
REMARK VINA RESULT:      -7.3      5.121      5.849
REMARK  Name = 
REMARK  5 active torsions:
REMARK  status: ('A' for Active; 'I' for Inactive)
REMARK    1  A    between atoms: C_1  and  C_2
REMARK    2  A    between atoms: C_2  and  C_4
REMARK    3  A    between atoms: C_6  and  C_7
REMARK    4  A    between atoms: C_12  and  O_13
REMARK    5  A    between atoms: C_19  and  O_20
REMARK                            x       y       z     vdW  Elec       q    Type
REMARK                         _______ _______ _______ _____ _____    ______ ____
ROOT
ATOM      1  C   UNL     1       5.529   5.692  17.039  0.00  0.00    +0.000 A 
ATOM      2  C   UNL     1       4.701   6.667  17.652  0.00  0.00    +0.000 A 
ATOM      3  C   UNL     1       3.385   6.371  18.032  0.00  0.00    +0.000 A 
ATOM      4  C   UNL     1       2.916   5.070  17.763  0.00  0.00    +0.000 A 
ATOM      5  C   UNL     1       3.715   4.093  17.182  0.00  0.00    +0.000 A 
ATOM      6  C   UNL     1       5.020   4.404  16.815  0.00  0.00    +0.000 A 
ENDROOT
BRANCH   3   7
ATOM      7  C   UNL     1       2.431   7.338  18.621  0.00  0.00    +0.000 A 
ATOM      8  C   UNL     1       1.879   8.431  17.978  0.00  0.00    +0.000 A 
ATOM      9  C   UNL     1       1.401   9.425  18.874  0.00  0.00    +0.000 A 
ATOM     10  C   UNL     1       1.121  10.787  18.633  0.00  0.00    +0.000 A 
ATOM     11  C   UNL     1       0.569  11.574  19.637  0.00  0.00    +0.000 A 
ATOM     12  C   UNL     1       0.233  10.987  20.847  0.00  0.00    +0.000 A 
ATOM     13  C   UNL     1       0.533   9.653  21.132  0.00  0.00    +0.000 A 
ATOM     14  C   UNL     1       1.188   8.892  20.144  0.00  0.00    +0.000 A 
ATOM     15  S   UNL     1       1.866   7.300  20.242  0.00  0.00    +0.000 S 
BRANCH  12  16
ATOM     16  O   UNL     1      -0.399  11.720  21.810  0.00  0.00    +0.000 OA
ATOM     17  H   UNL     1      -0.716  11.113  22.500  0.00  0.00    +0.000 HD
ENDBRANCH  12  16
ENDBRANCH   3   7
BRANCH   1  19
ATOM     18  C   UNL     1       7.656   7.154  17.451  0.00  0.00    +0.000 C 
ATOM     19  C   UNL     1       6.916   6.110  16.654  0.00  0.00    +0.000 C 
ATOM     20  O   UNL     1       7.455   5.582  15.689  0.00  0.00    +0.000 OA
ENDBRANCH   1  19
BRANCH   6  21
ATOM     21  O   UNL     1       5.763   3.413  16.243  0.00  0.00    +0.000 OA
ATOM     22  H   UNL     1       6.385   3.049  16.899  0.00  0.00    +0.000 HD
ENDBRANCH   6  21
TORSDOF 4
ENDMDL
MODEL 5
REMARK VINA RESULT:      -7.3      5.221      7.408
REMARK  Name = 
REMARK  5 active torsions:
REMARK  status: ('A' for Active; 'I' for Inactive)
REMARK    1  A    between atoms: C_1  and  C_2
REMARK    2  A    between atoms: C_2  and  C_4
REMARK    3  A    between atoms: C_6  and  C_7
REMARK    4  A    between atoms: C_12  and  O_13
REMARK    5  A    between atoms: C_19  and  O_20
REMARK                            x       y       z     vdW  Elec       q    Type
REMARK                         _______ _______ _______ _____ _____    ______ ____
ROOT
ATOM      1  C   UNL     1       1.039   9.559  20.293  0.00  0.00    +0.000 A 
ATOM      2  C   UNL     1       1.552   8.246  20.134  0.00  0.00    +0.000 A 
ATOM      3  C   UNL     1       2.128   7.830  18.927  0.00  0.00    +0.000 A 
ATOM      4  C   UNL     1       2.160   8.767  17.875  0.00  0.00    +0.000 A 
ATOM      5  C   UNL     1       1.682  10.064  18.013  0.00  0.00    +0.000 A 
ATOM      6  C   UNL     1       1.117  10.460  19.220  0.00  0.00    +0.000 A 
ENDROOT
BRANCH   3   7
ATOM      7  C   UNL     1       2.634   6.466  18.650  0.00  0.00    +0.000 A 
ATOM      8  C   UNL     1       1.999   5.503  17.888  0.00  0.00    +0.000 A 
ATOM      9  C   UNL     1       2.442   4.183  18.173  0.00  0.00    +0.000 A 
ATOM     10  C   UNL     1       1.815   2.950  17.897  0.00  0.00    +0.000 A 
ATOM     11  C   UNL     1       2.467   1.756  18.182  0.00  0.00    +0.000 A 
ATOM     12  C   UNL     1       3.763   1.795  18.671  0.00  0.00    +0.000 A 
ATOM     13  C   UNL     1       4.397   2.997  18.994  0.00  0.00    +0.000 A 
ATOM     14  C   UNL     1       3.687   4.198  18.799  0.00  0.00    +0.000 A 
ATOM     15  S   UNL     1       4.097   5.814  19.270  0.00  0.00    +0.000 S 
BRANCH  12  16
ATOM     16  O   UNL     1       4.456   0.634  18.865  0.00  0.00    +0.000 OA
ATOM     17  H   UNL     1       4.950   0.432  18.053  0.00  0.00    +0.000 HD
ENDBRANCH  12  16
ENDBRANCH   3   7
BRANCH   1  19
ATOM     18  C   UNL     1      -0.387   8.888  22.378  0.00  0.00    +0.000 C 
ATOM     19  C   UNL     1       0.426   9.905  21.617  0.00  0.00    +0.000 C 
ATOM     20  O   UNL     1       0.604  11.022  22.088  0.00  0.00    +0.000 OA
ENDBRANCH   1  19
BRANCH   6  21
ATOM     21  O   UNL     1       0.657  11.742  19.306  0.00  0.00    +0.000 OA
ATOM     22  H   UNL     1       0.473  11.963  20.237  0.00  0.00    +0.000 HD
ENDBRANCH   6  21
TORSDOF 4
ENDMDL
MODEL 6
REMARK VINA RESULT:      -7.2      5.354      7.743
REMARK  Name = 
REMARK  5 active torsions:
REMARK  status: ('A' for Active; 'I' for Inactive)
REMARK    1  A    between atoms: C_1  and  C_2
REMARK    2  A    between atoms: C_2  and  C_4
REMARK    3  A    between atoms: C_6  and  C_7
REMARK    4  A    between atoms: C_12  and  O_13
REMARK    5  A    between atoms: C_19  and  O_20
REMARK                            x       y       z     vdW  Elec       q    Type
REMARK                         _______ _______ _______ _____ _____    ______ ____
ROOT
ATOM      1  C   UNL     1       0.780   9.739  20.492  0.00  0.00    +0.000 A 
ATOM      2  C   UNL     1       1.414   8.470  20.509  0.00  0.00    +0.000 A 
ATOM      3  C   UNL     1       1.954   7.910  19.343  0.00  0.00    +0.000 A 
ATOM      4  C   UNL     1       1.825   8.654  18.154  0.00  0.00    +0.000 A 
ATOM      5  C   UNL     1       1.226   9.908  18.117  0.00  0.00    +0.000 A 
ATOM      6  C   UNL     1       0.699  10.449  19.284  0.00  0.00    +0.000 A 
ENDROOT
BRANCH   3   7
ATOM      7  C   UNL     1       2.579   6.571  19.253  0.00  0.00    +0.000 A 
ATOM      8  C   UNL     1       3.459   6.148  18.274  0.00  0.00    +0.000 A 
ATOM      9  C   UNL     1       3.522   4.734  18.152  0.00  0.00    +0.000 A 
ATOM     10  C   UNL     1       3.992   3.949  17.078  0.00  0.00    +0.000 A 
ATOM     11  C   UNL     1       4.051   2.565  17.198  0.00  0.00    +0.000 A 
ATOM     12  C   UNL     1       3.712   1.978  18.405  0.00  0.00    +0.000 A 
ATOM     13  C   UNL     1       3.205   2.721  19.475  0.00  0.00    +0.000 A 
ATOM     14  C   UNL     1       3.050   4.110  19.306  0.00  0.00    +0.000 A 
ATOM     15  S   UNL     1       2.284   5.272  20.338  0.00  0.00    +0.000 S 
BRANCH  12  16
ATOM     16  O   UNL     1       3.856   0.630  18.575  0.00  0.00    +0.000 OA
ATOM     17  H   UNL     1       4.465   0.477  19.317  0.00  0.00    +0.000 HD
ENDBRANCH  12  16
ENDBRANCH   3   7
BRANCH   1  19
ATOM     18  C   UNL     1      -0.414   9.300  22.775  0.00  0.00    +0.000 C 
ATOM     19  C   UNL     1       0.218  10.247  21.786  0.00  0.00    +0.000 C 
ATOM     20  O   UNL     1       0.290  11.442  22.043  0.00  0.00    +0.000 OA
ENDBRANCH   1  19
BRANCH   6  21
ATOM     21  O   UNL     1       0.116  11.679  19.196  0.00  0.00    +0.000 OA
ATOM     22  H   UNL     1      -0.053  12.027  20.090  0.00  0.00    +0.000 HD
ENDBRANCH   6  21
TORSDOF 4
ENDMDL
MODEL 7
REMARK VINA RESULT:      -7.2      5.428      7.636
REMARK  Name = 
REMARK  5 active torsions:
REMARK  status: ('A' for Active; 'I' for Inactive)
REMARK    1  A    between atoms: C_1  and  C_2
REMARK    2  A    between atoms: C_2  and  C_4
REMARK    3  A    between atoms: C_6  and  C_7
REMARK    4  A    between atoms: C_12  and  O_13
REMARK    5  A    between atoms: C_19  and  O_20
REMARK                            x       y       z     vdW  Elec       q    Type
REMARK                         _______ _______ _______ _____ _____    ______ ____
ROOT
ATOM      1  C   UNL     1       0.911   9.904  20.369  0.00  0.00    +0.000 A 
ATOM      2  C   UNL     1       1.358   8.562  20.472  0.00  0.00    +0.000 A 
ATOM      3  C   UNL     1       1.930   7.898  19.378  0.00  0.00    +0.000 A 
ATOM      4  C   UNL     1       2.025   8.617  18.170  0.00  0.00    +0.000 A 
ATOM      5  C   UNL     1       1.613   9.939  18.051  0.00  0.00    +0.000 A 
ATOM      6  C   UNL     1       1.050  10.581  19.148  0.00  0.00    +0.000 A 
ENDROOT
BRANCH   3   7
ATOM      7  C   UNL     1       2.370   6.485  19.374  0.00  0.00    +0.000 A 
ATOM      8  C   UNL     1       1.760   5.442  20.047  0.00  0.00    +0.000 A 
ATOM      9  C   UNL     1       2.624   4.334  20.262  0.00  0.00    +0.000 A 
ATOM     10  C   UNL     1       2.507   3.276  21.188  0.00  0.00    +0.000 A 
ATOM     11  C   UNL     1       3.425   2.232  21.174  0.00  0.00    +0.000 A 
ATOM     12  C   UNL     1       4.406   2.210  20.196  0.00  0.00    +0.000 A 
ATOM     13  C   UNL     1       4.574   3.260  19.290  0.00  0.00    +0.000 A 
ATOM     14  C   UNL     1       3.703   4.363  19.381  0.00  0.00    +0.000 A 
ATOM     15  S   UNL     1       3.758   5.887  18.559  0.00  0.00    +0.000 S 
BRANCH  12  16
ATOM     16  O   UNL     1       5.257   1.145  20.104  0.00  0.00    +0.000 OA
ATOM     17  H   UNL     1       5.137   0.587  20.891  0.00  0.00    +0.000 HD
ENDBRANCH  12  16
ENDBRANCH   3   7
BRANCH   1  19
ATOM     18  C   UNL     1      -0.508   9.686  22.554  0.00  0.00    +0.000 C 
ATOM     19  C   UNL     1       0.297  10.521  21.589  0.00  0.00    +0.000 C 
ATOM     20  O   UNL     1       0.468  11.714  21.809  0.00  0.00    +0.000 OA
ENDBRANCH   1  19
BRANCH   6  21
ATOM     21  O   UNL     1       0.655  11.877  18.981  0.00  0.00    +0.000 OA
ATOM     22  H   UNL     1       1.352  12.374  18.515  0.00  0.00    +0.000 HD
ENDBRANCH   6  21
TORSDOF 4
ENDMDL
MODEL 8
REMARK VINA RESULT:      -7.2      5.343      6.364
REMARK  Name = 
REMARK  5 active torsions:
REMARK  status: ('A' for Active; 'I' for Inactive)
REMARK    1  A    between atoms: C_1  and  C_2
REMARK    2  A    between atoms: C_2  and  C_4
REMARK    3  A    between atoms: C_6  and  C_7
REMARK    4  A    between atoms: C_12  and  O_13
REMARK    5  A    between atoms: C_19  and  O_20
REMARK                            x       y       z     vdW  Elec       q    Type
REMARK                         _______ _______ _______ _____ _____    ______ ____
ROOT
ATOM      1  C   UNL     1       3.073   4.055  17.876  0.00  0.00    +0.000 A 
ATOM      2  C   UNL     1       2.392   5.162  18.444  0.00  0.00    +0.000 A 
ATOM      3  C   UNL     1       2.876   6.469  18.296  0.00  0.00    +0.000 A 
ATOM      4  C   UNL     1       4.074   6.632  17.574  0.00  0.00    +0.000 A 
ATOM      5  C   UNL     1       4.748   5.565  16.991  0.00  0.00    +0.000 A 
ATOM      6  C   UNL     1       4.251   4.276  17.146  0.00  0.00    +0.000 A 
ENDROOT
BRANCH   3   7
ATOM      7  C   UNL     1       2.267   7.676  18.902  0.00  0.00    +0.000 A 
ATOM      8  C   UNL     1       1.977   7.855  20.242  0.00  0.00    +0.000 A 
ATOM      9  C   UNL     1       0.996   8.856  20.472  0.00  0.00    +0.000 A 
ATOM     10  C   UNL     1       0.190   9.074  21.610  0.00  0.00    +0.000 A 
ATOM     11  C   UNL     1      -0.653  10.178  21.667  0.00  0.00    +0.000 A 
ATOM     12  C   UNL     1      -0.636  11.094  20.629  0.00  0.00    +0.000 A 
ATOM     13  C   UNL     1       0.119  10.889  19.471  0.00  0.00    +0.000 A 
ATOM     14  C   UNL     1       0.889   9.713  19.378  0.00  0.00    +0.000 A 
ATOM     15  S   UNL     1       1.767   9.069  18.031  0.00  0.00    +0.000 S 
BRANCH  12  16
ATOM     16  O   UNL     1      -1.383  12.235  20.710  0.00  0.00    +0.000 OA
ATOM     17  H   UNL     1      -2.272  12.045  20.366  0.00  0.00    +0.000 HD
ENDBRANCH  12  16
ENDBRANCH   3   7
BRANCH   1  19
ATOM     18  C   UNL     1       1.088   2.539  18.646  0.00  0.00    +0.000 C 
ATOM     19  C   UNL     1       2.487   2.694  18.104  0.00  0.00    +0.000 C 
ATOM     20  O   UNL     1       3.150   1.702  17.830  0.00  0.00    +0.000 OA
ENDBRANCH   1  19
BRANCH   6  21
ATOM     21  O   UNL     1       4.950   3.261  16.560  0.00  0.00    +0.000 OA
ATOM     22  H   UNL     1       4.337   2.675  16.080  0.00  0.00    +0.000 HD
ENDBRANCH   6  21
TORSDOF 4
ENDMDL
MODEL 9
REMARK VINA RESULT:      -7.2      5.897      7.579
REMARK  Name = 
REMARK  5 active torsions:
REMARK  status: ('A' for Active; 'I' for Inactive)
REMARK    1  A    between atoms: C_1  and  C_2
REMARK    2  A    between atoms: C_2  and  C_4
REMARK    3  A    between atoms: C_6  and  C_7
REMARK    4  A    between atoms: C_12  and  O_13
REMARK    5  A    between atoms: C_19  and  O_20
REMARK                            x       y       z     vdW  Elec       q    Type
REMARK                         _______ _______ _______ _____ _____    ______ ____
ROOT
ATOM      1  C   UNL     1       2.785   4.544  19.700  0.00  0.00    +0.000 A 
ATOM      2  C   UNL     1       2.161   5.664  20.306  0.00  0.00    +0.000 A 
ATOM      3  C   UNL     1       2.164   6.923  19.690  0.00  0.00    +0.000 A 
ATOM      4  C   UNL     1       2.827   7.029  18.451  0.00  0.00    +0.000 A 
ATOM      5  C   UNL     1       3.428   5.942  17.828  0.00  0.00    +0.000 A 
ATOM      6  C   UNL     1       3.412   4.700  18.454  0.00  0.00    +0.000 A 
ENDROOT
BRANCH   3   7
ATOM      7  C   UNL     1       1.593   8.158  20.273  0.00  0.00    +0.000 A 
ATOM      8  C   UNL     1       1.398   8.407  21.619  0.00  0.00    +0.000 A 
ATOM      9  C   UNL     1       0.429   9.417  21.866  0.00  0.00    +0.000 A 
ATOM     10  C   UNL     1      -0.295   9.692  23.046  0.00  0.00    +0.000 A 
ATOM     11  C   UNL     1      -1.139  10.795  23.105  0.00  0.00    +0.000 A 
ATOM     12  C   UNL     1      -1.203  11.655  22.021  0.00  0.00    +0.000 A 
ATOM     13  C   UNL     1      -0.531  11.390  20.824  0.00  0.00    +0.000 A 
ATOM     14  C   UNL     1       0.238  10.214  20.739  0.00  0.00    +0.000 A 
ATOM     15  S   UNL     1       1.022   9.501  19.368  0.00  0.00    +0.000 S 
BRANCH  12  16
ATOM     16  O   UNL     1      -1.950  12.796  22.095  0.00  0.00    +0.000 OA
ATOM     17  H   UNL     1      -2.882  12.563  21.945  0.00  0.00    +0.000 HD
ENDBRANCH  12  16
ENDBRANCH   3   7
BRANCH   1  19
ATOM     18  C   UNL     1       1.519   2.845  21.230  0.00  0.00    +0.000 C 
ATOM     19  C   UNL     1       2.744   3.244  20.445  0.00  0.00    +0.000 C 
ATOM     20  O   UNL     1       3.712   2.495  20.400  0.00  0.00    +0.000 OA
ENDBRANCH   1  19
BRANCH   6  21
ATOM     21  O   UNL     1       4.019   3.664  17.806  0.00  0.00    +0.000 OA
ATOM     22  H   UNL     1       4.703   3.273  18.380  0.00  0.00    +0.000 HD
ENDBRANCH   6  21
TORSDOF 4
ENDMDL
