MODEL 1
REMARK VINA RESULT:      -6.9      0.000      0.000
REMARK  Name = 
REMARK  4 active torsions:
REMARK  status: ('A' for Active; 'I' for Inactive)
REMARK    1  A    between atoms: C_4  and  C_5
REMARK    2  A    between atoms: C_5  and  C_6
REMARK    3  A    between atoms: C_6  and  C_7
REMARK    4  A    between atoms: C_7  and  O_8
REMARK                            x       y       z     vdW  Elec       q    Type
REMARK                         _______ _______ _______ _____ _____    ______ ____
ROOT
ATOM      1  O   UNL     1       5.202   1.726  20.864  0.00  0.00    +0.000 OA
ATOM      2  C   UNL     1       4.760   2.594  20.123  0.00  0.00    +0.000 A 
ATOM      3  N   UNL     1       5.533   3.187  19.155  0.00  0.00    +0.000 N 
ATOM      4  C   UNL     1       5.083   4.203  18.358  0.00  0.00    +0.000 A 
ATOM      5  N   UNL     1       3.879   4.668  18.407  0.00  0.00    +0.000 NA
ATOM      6  C   UNL     1       2.991   4.101  19.339  0.00  0.00    +0.000 A 
ATOM      7  C   UNL     1       1.681   4.578  19.397  0.00  0.00    +0.000 A 
ATOM      8  C   UNL     1       0.771   4.047  20.316  0.00  0.00    +0.000 A 
ATOM      9  C   UNL     1       1.167   3.031  21.188  0.00  0.00    +0.000 A 
ATOM     10  C   UNL     1       2.473   2.544  21.141  0.00  0.00    +0.000 A 
ATOM     11  C   UNL     1       3.372   3.082  20.215  0.00  0.00    +0.000 A 
ATOM     12  H   UNL     1       6.488   2.863  19.103  0.00  0.00    +0.000 HD
ENDROOT
BRANCH   4  13
ATOM     13  C   UNL     1       6.069   4.773  17.365  0.00  0.00    +0.000 C 
BRANCH  13  14
ATOM     14  C   UNL     1       7.493   4.823  17.910  0.00  0.00    +0.000 C 
BRANCH  14  15
ATOM     15  C   UNL     1       7.724   5.953  18.909  0.00  0.00    +0.000 C 
BRANCH  15  16
ATOM     16  O   UNL     1       7.725   5.420  20.229  0.00  0.00    +0.000 OA
ATOM     17  H   UNL     1       8.441   5.856  20.723  0.00  0.00    +0.000 HD
ENDBRANCH  15  16
ENDBRANCH  14  15
ENDBRANCH  13  14
ENDBRANCH   4  13
TORSDOF 4
ENDMDL
MODEL 2
REMARK VINA RESULT:      -6.7      1.025      1.052
REMARK  Name = 
REMARK  4 active torsions:
REMARK  status: ('A' for Active; 'I' for Inactive)
REMARK    1  A    between atoms: C_4  and  C_5
REMARK    2  A    between atoms: C_5  and  C_6
REMARK    3  A    between atoms: C_6  and  C_7
REMARK    4  A    between atoms: C_7  and  O_8
REMARK                            x       y       z     vdW  Elec       q    Type
REMARK                         _______ _______ _______ _____ _____    ______ ____
ROOT
ATOM      1  O   UNL     1       4.962   1.999  20.528  0.00  0.00    +0.000 OA
ATOM      2  C   UNL     1       4.640   2.760  19.623  0.00  0.00    +0.000 A 
ATOM      3  N   UNL     1       5.568   3.488  18.921  0.00  0.00    +0.000 N 
ATOM      4  C   UNL     1       5.231   4.391  17.951  0.00  0.00    +0.000 A 
ATOM      5  N   UNL     1       4.015   4.610  17.573  0.00  0.00    +0.000 NA
ATOM      6  C   UNL     1       2.988   3.885  18.203  0.00  0.00    +0.000 A 
ATOM      7  C   UNL     1       1.669   4.095  17.798  0.00  0.00    +0.000 A 
ATOM      8  C   UNL     1       0.620   3.401  18.405  0.00  0.00    +0.000 A 
ATOM      9  C   UNL     1       0.882   2.487  19.428  0.00  0.00    +0.000 A 
ATOM     10  C   UNL     1       2.195   2.266  19.843  0.00  0.00    +0.000 A 
ATOM     11  C   UNL     1       3.237   2.965  19.224  0.00  0.00    +0.000 A 
ATOM     12  H   UNL     1       6.528   3.357  19.206  0.00  0.00    +0.000 HD
ENDROOT
BRANCH   4  13
ATOM     13  C   UNL     1       6.369   5.138  17.295  0.00  0.00    +0.000 C 
BRANCH  13  14
ATOM     14  C   UNL     1       7.697   4.947  18.022  0.00  0.00    +0.000 C 
BRANCH  14  15
ATOM     15  C   UNL     1       7.970   6.011  19.082  0.00  0.00    +0.000 C 
BRANCH  15  16
ATOM     16  O   UNL     1       7.815   5.436  20.375  0.00  0.00    +0.000 OA
ATOM     17  H   UNL     1       7.845   4.469  20.274  0.00  0.00    +0.000 HD
ENDBRANCH  15  16
ENDBRANCH  14  15
ENDBRANCH  13  14
ENDBRANCH   4  13
TORSDOF 4
ENDMDL
MODEL 3
REMARK VINA RESULT:      -6.4      1.361      1.437
REMARK  Name = 
REMARK  4 active torsions:
REMARK  status: ('A' for Active; 'I' for Inactive)
REMARK    1  A    between atoms: C_4  and  C_5
REMARK    2  A    between atoms: C_5  and  C_6
REMARK    3  A    between atoms: C_6  and  C_7
REMARK    4  A    between atoms: C_7  and  O_8
REMARK                            x       y       z     vdW  Elec       q    Type
REMARK                         _______ _______ _______ _____ _____    ______ ____
ROOT
ATOM      1  O   UNL     1       5.232   1.814  20.615  0.00  0.00    +0.000 OA
ATOM      2  C   UNL     1       4.677   2.602  19.859  0.00  0.00    +0.000 A 
ATOM      3  N   UNL     1       5.313   3.129  18.762  0.00  0.00    +0.000 N 
ATOM      4  C   UNL     1       4.739   4.059  17.941  0.00  0.00    +0.000 A 
ATOM      5  N   UNL     1       3.532   4.494  18.091  0.00  0.00    +0.000 NA
ATOM      6  C   UNL     1       2.777   3.988  19.164  0.00  0.00    +0.000 A 
ATOM      7  C   UNL     1       1.465   4.433  19.333  0.00  0.00    +0.000 A 
ATOM      8  C   UNL     1       0.686   3.960  20.393  0.00  0.00    +0.000 A 
ATOM      9  C   UNL     1       1.214   3.035  21.295  0.00  0.00    +0.000 A 
ATOM     10  C   UNL     1       2.523   2.580  21.137  0.00  0.00    +0.000 A 
ATOM     11  C   UNL     1       3.292   3.059  20.071  0.00  0.00    +0.000 A 
ATOM     12  H   UNL     1       6.267   2.827  18.627  0.00  0.00    +0.000 HD
ENDROOT
BRANCH   4  13
ATOM     13  C   UNL     1       5.585   4.566  16.795  0.00  0.00    +0.000 C 
BRANCH  13  14
ATOM     14  C   UNL     1       5.340   6.040  16.489  0.00  0.00    +0.000 C 
BRANCH  14  15
ATOM     15  C   UNL     1       6.338   6.977  17.164  0.00  0.00    +0.000 C 
BRANCH  15  16
ATOM     16  O   UNL     1       7.626   6.780  16.593  0.00  0.00    +0.000 OA
ATOM     17  H   UNL     1       8.098   7.630  16.629  0.00  0.00    +0.000 HD
ENDBRANCH  15  16
ENDBRANCH  14  15
ENDBRANCH  13  14
ENDBRANCH   4  13
TORSDOF 4
ENDMDL
MODEL 4
REMARK VINA RESULT:      -6.3      1.380      1.499
REMARK  Name = 
REMARK  4 active torsions:
REMARK  status: ('A' for Active; 'I' for Inactive)
REMARK    1  A    between atoms: C_4  and  C_5
REMARK    2  A    between atoms: C_5  and  C_6
REMARK    3  A    between atoms: C_6  and  C_7
REMARK    4  A    between atoms: C_7  and  O_8
REMARK                            x       y       z     vdW  Elec       q    Type
REMARK                         _______ _______ _______ _____ _____    ______ ____
ROOT
ATOM      1  O   UNL     1       5.242   1.936  20.159  0.00  0.00    +0.000 OA
ATOM      2  C   UNL     1       4.534   2.641  19.451  0.00  0.00    +0.000 A 
ATOM      3  N   UNL     1       4.947   3.081  18.218  0.00  0.00    +0.000 N 
ATOM      4  C   UNL     1       4.203   3.921  17.436  0.00  0.00    +0.000 A 
ATOM      5  N   UNL     1       3.024   4.340  17.761  0.00  0.00    +0.000 NA
ATOM      6  C   UNL     1       2.489   3.914  18.990  0.00  0.00    +0.000 A 
ATOM      7  C   UNL     1       1.211   4.342  19.353  0.00  0.00    +0.000 A 
ATOM      8  C   UNL     1       0.648   3.949  20.569  0.00  0.00    +0.000 A 
ATOM      9  C   UNL     1       1.362   3.120  21.438  0.00  0.00    +0.000 A 
ATOM     10  C   UNL     1       2.639   2.684  21.089  0.00  0.00    +0.000 A 
ATOM     11  C   UNL     1       3.190   3.083  19.866  0.00  0.00    +0.000 A 
ATOM     12  H   UNL     1       5.873   2.790  17.942  0.00  0.00    +0.000 HD
ENDROOT
BRANCH   4  13
ATOM     13  C   UNL     1       4.814   4.342  16.120  0.00  0.00    +0.000 C 
BRANCH  13  14
ATOM     14  C   UNL     1       6.231   3.809  15.931  0.00  0.00    +0.000 C 
BRANCH  14  15
ATOM     15  C   UNL     1       7.314   4.769  16.414  0.00  0.00    +0.000 C 
BRANCH  15  16
ATOM     16  O   UNL     1       8.096   4.128  17.415  0.00  0.00    +0.000 OA
ATOM     17  H   UNL     1       7.609   3.340  17.711  0.00  0.00    +0.000 HD
ENDBRANCH  15  16
ENDBRANCH  14  15
ENDBRANCH  13  14
ENDBRANCH   4  13
TORSDOF 4
ENDMDL
MODEL 5
REMARK VINA RESULT:      -6.3      1.551      5.180
REMARK  Name = 
REMARK  4 active torsions:
REMARK  status: ('A' for Active; 'I' for Inactive)
REMARK    1  A    between atoms: C_4  and  C_5
REMARK    2  A    between atoms: C_5  and  C_6
REMARK    3  A    between atoms: C_6  and  C_7
REMARK    4  A    between atoms: C_7  and  O_8
REMARK                            x       y       z     vdW  Elec       q    Type
REMARK                         _______ _______ _______ _____ _____    ______ ____
ROOT
ATOM      1  O   UNL     1       6.250   4.853  19.950  0.00  0.00    +0.000 OA
ATOM      2  C   UNL     1       5.417   4.600  19.089  0.00  0.00    +0.000 A 
ATOM      3  N   UNL     1       4.107   4.333  19.401  0.00  0.00    +0.000 N 
ATOM      4  C   UNL     1       3.172   3.986  18.465  0.00  0.00    +0.000 A 
ATOM      5  N   UNL     1       3.420   3.921  17.199  0.00  0.00    +0.000 NA
ATOM      6  C   UNL     1       4.726   4.216  16.768  0.00  0.00    +0.000 A 
ATOM      7  C   UNL     1       5.011   4.169  15.402  0.00  0.00    +0.000 A 
ATOM      8  C   UNL     1       6.298   4.446  14.934  0.00  0.00    +0.000 A 
ATOM      9  C   UNL     1       7.315   4.774  15.833  0.00  0.00    +0.000 A 
ATOM     10  C   UNL     1       7.045   4.827  17.200  0.00  0.00    +0.000 A 
ATOM     11  C   UNL     1       5.752   4.550  17.655  0.00  0.00    +0.000 A 
ATOM     12  H   UNL     1       3.882   4.353  20.385  0.00  0.00    +0.000 HD
ENDROOT
BRANCH   4  13
ATOM     13  C   UNL     1       1.780   3.688  18.975  0.00  0.00    +0.000 C 
BRANCH  13  14
ATOM     14  C   UNL     1       1.589   4.087  20.435  0.00  0.00    +0.000 C 
BRANCH  14  15
ATOM     15  C   UNL     1       1.480   2.897  21.383  0.00  0.00    +0.000 C 
BRANCH  15  16
ATOM     16  O   UNL     1       2.758   2.630  21.951  0.00  0.00    +0.000 OA
ATOM     17  H   UNL     1       3.292   3.439  21.869  0.00  0.00    +0.000 HD
ENDBRANCH  15  16
ENDBRANCH  14  15
ENDBRANCH  13  14
ENDBRANCH   4  13
TORSDOF 4
ENDMDL
MODEL 6
REMARK VINA RESULT:      -6.3      1.442      1.518
REMARK  Name = 
REMARK  4 active torsions:
REMARK  status: ('A' for Active; 'I' for Inactive)
REMARK    1  A    between atoms: C_4  and  C_5
REMARK    2  A    between atoms: C_5  and  C_6
REMARK    3  A    between atoms: C_6  and  C_7
REMARK    4  A    between atoms: C_7  and  O_8
REMARK                            x       y       z     vdW  Elec       q    Type
REMARK                         _______ _______ _______ _____ _____    ______ ____
ROOT
ATOM      1  O   UNL     1       3.427   1.432  17.891  0.00  0.00    +0.000 OA
ATOM      2  C   UNL     1       3.747   2.583  18.163  0.00  0.00    +0.000 A 
ATOM      3  N   UNL     1       4.901   3.150  17.681  0.00  0.00    +0.000 N 
ATOM      4  C   UNL     1       5.314   4.408  18.022  0.00  0.00    +0.000 A 
ATOM      5  N   UNL     1       4.637   5.197  18.789  0.00  0.00    +0.000 NA
ATOM      6  C   UNL     1       3.416   4.727  19.305  0.00  0.00    +0.000 A 
ATOM      7  C   UNL     1       2.662   5.570  20.122  0.00  0.00    +0.000 A 
ATOM      8  C   UNL     1       1.448   5.137  20.663  0.00  0.00    +0.000 A 
ATOM      9  C   UNL     1       0.977   3.851  20.389  0.00  0.00    +0.000 A 
ATOM     10  C   UNL     1       1.720   2.998  19.573  0.00  0.00    +0.000 A 
ATOM     11  C   UNL     1       2.932   3.445  19.036  0.00  0.00    +0.000 A 
ATOM     12  H   UNL     1       5.466   2.553  17.095  0.00  0.00    +0.000 HD
ENDROOT
BRANCH   4  13
ATOM     13  C   UNL     1       6.626   4.874  17.434  0.00  0.00    +0.000 C 
BRANCH  13  14
ATOM     14  C   UNL     1       7.083   6.214  18.001  0.00  0.00    +0.000 C 
BRANCH  14  15
ATOM     15  C   UNL     1       8.151   6.086  19.083  0.00  0.00    +0.000 C 
BRANCH  15  16
ATOM     16  O   UNL     1       7.563   5.548  20.262  0.00  0.00    +0.000 OA
ATOM     17  H   UNL     1       8.268   5.112  20.771  0.00  0.00    +0.000 HD
ENDBRANCH  15  16
ENDBRANCH  14  15
ENDBRANCH  13  14
ENDBRANCH   4  13
TORSDOF 4
ENDMDL
MODEL 7
REMARK VINA RESULT:      -6.3      2.335      2.591
REMARK  Name = 
REMARK  4 active torsions:
REMARK  status: ('A' for Active; 'I' for Inactive)
REMARK    1  A    between atoms: C_4  and  C_5
REMARK    2  A    between atoms: C_5  and  C_6
REMARK    3  A    between atoms: C_6  and  C_7
REMARK    4  A    between atoms: C_7  and  O_8
REMARK                            x       y       z     vdW  Elec       q    Type
REMARK                         _______ _______ _______ _____ _____    ______ ____
ROOT
ATOM      1  O   UNL     1       3.759   1.224  17.976  0.00  0.00    +0.000 OA
ATOM      2  C   UNL     1       3.717   2.447  18.001  0.00  0.00    +0.000 A 
ATOM      3  N   UNL     1       4.497   3.219  17.175  0.00  0.00    +0.000 N 
ATOM      4  C   UNL     1       4.517   4.585  17.228  0.00  0.00    +0.000 A 
ATOM      5  N   UNL     1       3.773   5.279  18.025  0.00  0.00    +0.000 NA
ATOM      6  C   UNL     1       2.906   4.585  18.888  0.00  0.00    +0.000 A 
ATOM      7  C   UNL     1       2.082   5.316  19.745  0.00  0.00    +0.000 A 
ATOM      8  C   UNL     1       1.214   4.664  20.624  0.00  0.00    +0.000 A 
ATOM      9  C   UNL     1       1.162   3.269  20.653  0.00  0.00    +0.000 A 
ATOM     10  C   UNL     1       1.979   2.525  19.802  0.00  0.00    +0.000 A 
ATOM     11  C   UNL     1       2.841   3.190  18.924  0.00  0.00    +0.000 A 
ATOM     12  H   UNL     1       5.107   2.709  16.554  0.00  0.00    +0.000 HD
ENDROOT
BRANCH   4  13
ATOM     13  C   UNL     1       5.456   5.287  16.274  0.00  0.00    +0.000 C 
BRANCH  13  14
ATOM     14  C   UNL     1       5.406   4.707  14.864  0.00  0.00    +0.000 C 
BRANCH  14  15
ATOM     15  C   UNL     1       6.783   4.394  14.285  0.00  0.00    +0.000 C 
BRANCH  15  16
ATOM     16  O   UNL     1       7.703   5.402  14.690  0.00  0.00    +0.000 OA
ATOM     17  H   UNL     1       8.104   5.116  15.528  0.00  0.00    +0.000 HD
ENDBRANCH  15  16
ENDBRANCH  14  15
ENDBRANCH  13  14
ENDBRANCH   4  13
TORSDOF 4
ENDMDL
MODEL 8
REMARK VINA RESULT:      -6.3      1.560      1.765
REMARK  Name = 
REMARK  4 active torsions:
REMARK  status: ('A' for Active; 'I' for Inactive)
REMARK    1  A    between atoms: C_4  and  C_5
REMARK    2  A    between atoms: C_5  and  C_6
REMARK    3  A    between atoms: C_6  and  C_7
REMARK    4  A    between atoms: C_7  and  O_8
REMARK                            x       y       z     vdW  Elec       q    Type
REMARK                         _______ _______ _______ _____ _____    ______ ____
ROOT
ATOM      1  O   UNL     1       4.912   1.590  19.983  0.00  0.00    +0.000 OA
ATOM      2  C   UNL     1       4.687   2.769  19.734  0.00  0.00    +0.000 A 
ATOM      3  N   UNL     1       5.641   3.592  19.191  0.00  0.00    +0.000 N 
ATOM      4  C   UNL     1       5.436   4.926  18.965  0.00  0.00    +0.000 A 
ATOM      5  N   UNL     1       4.315   5.524  19.196  0.00  0.00    +0.000 NA
ATOM      6  C   UNL     1       3.255   4.759  19.717  0.00  0.00    +0.000 A 
ATOM      7  C   UNL     1       2.030   5.383  19.958  0.00  0.00    +0.000 A 
ATOM      8  C   UNL     1       0.956   4.660  20.484  0.00  0.00    +0.000 A 
ATOM      9  C   UNL     1       1.099   3.302  20.775  0.00  0.00    +0.000 A 
ATOM     10  C   UNL     1       2.317   2.665  20.538  0.00  0.00    +0.000 A 
ATOM     11  C   UNL     1       3.383   3.399  20.008  0.00  0.00    +0.000 A 
ATOM     12  H   UNL     1       6.538   3.163  19.018  0.00  0.00    +0.000 HD
ENDROOT
BRANCH   4  13
ATOM     13  C   UNL     1       6.599   5.703  18.394  0.00  0.00    +0.000 C 
BRANCH  13  14
ATOM     14  C   UNL     1       7.116   5.115  17.085  0.00  0.00    +0.000 C 
BRANCH  14  15
ATOM     15  C   UNL     1       6.134   5.252  15.925  0.00  0.00    +0.000 C 
BRANCH  15  16
ATOM     16  O   UNL     1       5.732   6.612  15.809  0.00  0.00    +0.000 OA
ATOM     17  H   UNL     1       6.373   7.153  16.302  0.00  0.00    +0.000 HD
ENDBRANCH  15  16
ENDBRANCH  14  15
ENDBRANCH  13  14
ENDBRANCH   4  13
TORSDOF 4
ENDMDL
MODEL 9
REMARK VINA RESULT:      -6.3      1.695      2.496
REMARK  Name = 
REMARK  4 active torsions:
REMARK  status: ('A' for Active; 'I' for Inactive)
REMARK    1  A    between atoms: C_4  and  C_5
REMARK    2  A    between atoms: C_5  and  C_6
REMARK    3  A    between atoms: C_6  and  C_7
REMARK    4  A    between atoms: C_7  and  O_8
REMARK                            x       y       z     vdW  Elec       q    Type
REMARK                         _______ _______ _______ _____ _____    ______ ____
ROOT
ATOM      1  O   UNL     1       2.562   7.022  18.570  0.00  0.00    +0.000 OA
ATOM      2  C   UNL     1       3.262   6.023  18.684  0.00  0.00    +0.000 A 
ATOM      3  N   UNL     1       4.453   5.890  18.015  0.00  0.00    +0.000 N 
ATOM      4  C   UNL     1       5.221   4.760  18.074  0.00  0.00    +0.000 A 
ATOM      5  N   UNL     1       4.924   3.733  18.800  0.00  0.00    +0.000 NA
ATOM      6  C   UNL     1       3.740   3.783  19.558  0.00  0.00    +0.000 A 
ATOM      7  C   UNL     1       3.409   2.691  20.361  0.00  0.00    +0.000 A 
ATOM      8  C   UNL     1       2.237   2.697  21.123  0.00  0.00    +0.000 A 
ATOM      9  C   UNL     1       1.384   3.802  21.087  0.00  0.00    +0.000 A 
ATOM     10  C   UNL     1       1.702   4.901  20.290  0.00  0.00    +0.000 A 
ATOM     11  C   UNL     1       2.880   4.883  19.535  0.00  0.00    +0.000 A 
ATOM     12  H   UNL     1       4.707   6.666  17.421  0.00  0.00    +0.000 HD
ENDROOT
BRANCH   4  13
ATOM     13  C   UNL     1       6.489   4.757  17.251  0.00  0.00    +0.000 C 
BRANCH  13  14
ATOM     14  C   UNL     1       7.749   4.737  18.110  0.00  0.00    +0.000 C 
BRANCH  14  15
ATOM     15  C   UNL     1       7.831   5.895  19.100  0.00  0.00    +0.000 C 
BRANCH  15  16
ATOM     16  O   UNL     1       8.113   5.383  20.398  0.00  0.00    +0.000 OA
ATOM     17  H   UNL     1       9.065   5.497  20.560  0.00  0.00    +0.000 HD
ENDBRANCH  15  16
ENDBRANCH  14  15
ENDBRANCH  13  14
ENDBRANCH   4  13
TORSDOF 4
ENDMDL
