MODEL 1
REMARK VINA RESULT:      -7.3      0.000      0.000
REMARK  Name = 
REMARK  7 active torsions:
REMARK  status: ('A' for Active; 'I' for Inactive)
REMARK    1  A    between atoms: C_1  and  C_2
REMARK    2  A    between atoms: C_2  and  C_3
REMARK    3  A    between atoms: C_2  and  C_4
REMARK    4  A    between atoms: C_2  and  N_11
REMARK    5  A    between atoms: C_4  and  N_5
REMARK    6  A    between atoms: N_15  and  C_16
REMARK    7  A    between atoms: C_22  and  C_23
REMARK                            x       y       z     vdW  Elec       q    Type
REMARK                         _______ _______ _______ _____ _____    ______ ____
ROOT
ATOM      1  N   UNL     1      -0.799  12.495  21.169  0.00  0.00    +0.000 N 
ATOM      2  C   UNL     1      -1.114  11.842  20.010  0.00  0.00    +0.000 A 
ATOM      3  N   UNL     1      -0.097  11.053  19.492  0.00  0.00    +0.000 NA
ATOM      4  C   UNL     1      -0.289  10.426  18.365  0.00  0.00    +0.000 A 
ATOM      5  N   UNL     1       0.616   9.610  17.701  0.00  0.00    +0.000 N 
ATOM      6  N   UNL     1      -1.534  10.575  17.744  0.00  0.00    +0.000 N 
ATOM      7  N   UNL     1      -1.875   9.964  16.581  0.00  0.00    +0.000 NA
ATOM      8  C   UNL     1      -3.137  10.377  16.405  0.00  0.00    +0.000 A 
ATOM      9  C   UNL     1      -3.605  11.190  17.465  0.00  0.00    +0.000 A 
ATOM     10  C   UNL     1      -2.527  11.315  18.309  0.00  0.00    +0.000 A 
ATOM     11  N   UNL     1      -2.297  11.955  19.472  0.00  0.00    +0.000 NA
ATOM     12  H   UNL     1       0.101  12.166  21.504  0.00  0.00    +0.000 HD
ATOM     13  H   UNL     1       0.216   9.171  16.869  0.00  0.00    +0.000 HD
ENDROOT
BRANCH   9  14
ATOM     14  C   UNL     1      -4.876  11.801  17.661  0.00  0.00    +0.000 C 
ATOM     15  C   UNL     1      -5.854  11.350  18.451  0.00  0.00    +0.000 C 
ATOM     16  N   UNL     1      -5.828  10.269  19.286  0.00  0.00    +0.000 N 
ATOM     17  C   UNL     1      -7.038  10.151  19.943  0.00  0.00    +0.000 C 
ATOM     18  O   UNL     1      -7.316   9.304  20.771  0.00  0.00    +0.000 OA
ATOM     19  N   UNL     1      -7.851  11.161  19.504  0.00  0.00    +0.000 N 
ATOM     20  C   UNL     1      -7.208  11.969  18.606  0.00  0.00    +0.000 C 
ATOM     21  O   UNL     1      -7.632  12.966  18.059  0.00  0.00    +0.000 OA
ATOM     22  H   UNL     1      -5.040   9.673  19.483  0.00  0.00    +0.000 HD
ATOM     23  H   UNL     1      -8.788  11.305  19.835  0.00  0.00    +0.000 HD
ENDBRANCH   9  14
BRANCH   1  25
ATOM     24  C   UNL     1      -1.121  13.896  23.117  0.00  0.00    +0.000 C 
ATOM     25  C   UNL     1      -1.754  12.792  22.250  0.00  0.00    +0.000 C 
ATOM     26  C   UNL     1      -1.868  11.530  23.140  0.00  0.00    +0.000 C 
BRANCH  25  27
ATOM     27  C   UNL     1      -3.212  13.188  21.768  0.00  0.00    +0.000 C 
BRANCH  27  28
ATOM     28  N   UNL     1      -4.081  14.112  22.540  0.00  0.00    +0.000 NA
ATOM     29  C   UNL     1      -5.215  13.486  23.244  0.00  0.00    +0.000 C 
ATOM     30  C   UNL     1      -6.325  12.970  22.314  0.00  0.00    +0.000 C 
ATOM     31  O   UNL     1      -6.857  14.032  21.515  0.00  0.00    +0.000 OA
ATOM     32  C   UNL     1      -5.818  14.658  20.750  0.00  0.00    +0.000 C 
ATOM     33  C   UNL     1      -4.662  15.156  21.646  0.00  0.00    +0.000 C 
ENDBRANCH  27  28
ENDBRANCH  25  27
ENDBRANCH   1  25
BRANCH   5  34
ATOM     34  C   UNL     1       1.646   8.885  18.437  0.00  0.00    +0.000 C 
ATOM     35  C   UNL     1       1.898   7.420  18.208  0.00  0.00    +0.000 C 
ATOM     36  C   UNL     1       2.894   8.431  17.725  0.00  0.00    +0.000 C 
ENDBRANCH   5  34
TORSDOF 5
ENDMDL
MODEL 2
REMARK VINA RESULT:      -7.0      1.342      1.991
REMARK  Name = 
REMARK  7 active torsions:
REMARK  status: ('A' for Active; 'I' for Inactive)
REMARK    1  A    between atoms: C_1  and  C_2
REMARK    2  A    between atoms: C_2  and  C_3
REMARK    3  A    between atoms: C_2  and  C_4
REMARK    4  A    between atoms: C_2  and  N_11
REMARK    5  A    between atoms: C_4  and  N_5
REMARK    6  A    between atoms: N_15  and  C_16
REMARK    7  A    between atoms: C_22  and  C_23
REMARK                            x       y       z     vdW  Elec       q    Type
REMARK                         _______ _______ _______ _____ _____    ______ ____
ROOT
ATOM      1  N   UNL     1      -0.800  12.754  21.213  0.00  0.00    +0.000 N 
ATOM      2  C   UNL     1      -1.154  11.993  20.134  0.00  0.00    +0.000 A 
ATOM      3  N   UNL     1      -0.089  11.415  19.456  0.00  0.00    +0.000 NA
ATOM      4  C   UNL     1      -0.325  10.708  18.387  0.00  0.00    +0.000 A 
ATOM      5  N   UNL     1       0.612  10.073  17.584  0.00  0.00    +0.000 N 
ATOM      6  N   UNL     1      -1.659  10.556  17.991  0.00  0.00    +0.000 N 
ATOM      7  N   UNL     1      -2.048   9.829  16.912  0.00  0.00    +0.000 NA
ATOM      8  C   UNL     1      -3.381   9.953  16.955  0.00  0.00    +0.000 A 
ATOM      9  C   UNL     1      -3.831  10.698  18.071  0.00  0.00    +0.000 A 
ATOM     10  C   UNL     1      -2.681  11.092  18.712  0.00  0.00    +0.000 A 
ATOM     11  N   UNL     1      -2.405  11.823  19.810  0.00  0.00    +0.000 NA
ATOM     12  H   UNL     1       0.194  12.643  21.390  0.00  0.00    +0.000 HD
ATOM     13  H   UNL     1       0.184   9.518  16.839  0.00  0.00    +0.000 HD
ENDROOT
BRANCH   9  14
ATOM     14  C   UNL     1      -5.155  11.031  18.479  0.00  0.00    +0.000 C 
ATOM     15  C   UNL     1      -5.886  12.051  18.023  0.00  0.00    +0.000 C 
ATOM     16  N   UNL     1      -5.567  12.937  17.033  0.00  0.00    +0.000 N 
ATOM     17  C   UNL     1      -6.604  13.833  16.850  0.00  0.00    +0.000 C 
ATOM     18  O   UNL     1      -6.632  14.726  16.024  0.00  0.00    +0.000 OA
ATOM     19  N   UNL     1      -7.586  13.524  17.751  0.00  0.00    +0.000 N 
ATOM     20  C   UNL     1      -7.254  12.428  18.499  0.00  0.00    +0.000 C 
ATOM     21  O   UNL     1      -7.916  11.877  19.356  0.00  0.00    +0.000 OA
ATOM     22  H   UNL     1      -4.749  12.923  16.445  0.00  0.00    +0.000 HD
ATOM     23  H   UNL     1      -8.456  14.021  17.818  0.00  0.00    +0.000 HD
ENDBRANCH   9  14
BRANCH   1  25
ATOM     24  C   UNL     1      -0.893  13.938  23.323  0.00  0.00    +0.000 C 
ATOM     25  C   UNL     1      -1.600  12.892  22.441  0.00  0.00    +0.000 C 
ATOM     26  C   UNL     1      -1.537  11.545  23.202  0.00  0.00    +0.000 C 
BRANCH  25  27
ATOM     27  C   UNL     1      -3.127  13.254  22.210  0.00  0.00    +0.000 C 
BRANCH  27  28
ATOM     28  N   UNL     1      -3.560  14.571  21.677  0.00  0.00    +0.000 NA
ATOM     29  C   UNL     1      -3.965  15.568  22.685  0.00  0.00    +0.000 C 
ATOM     30  C   UNL     1      -5.290  15.243  23.392  0.00  0.00    +0.000 C 
ATOM     31  O   UNL     1      -6.361  15.136  22.449  0.00  0.00    +0.000 OA
ATOM     32  C   UNL     1      -6.067  14.139  21.461  0.00  0.00    +0.000 C 
ATOM     33  C   UNL     1      -4.720  14.407  20.754  0.00  0.00    +0.000 C 
ENDBRANCH  27  28
ENDBRANCH  25  27
ENDBRANCH   1  25
BRANCH   5  34
ATOM     34  C   UNL     1       1.884   9.623  18.136  0.00  0.00    +0.000 C 
ATOM     35  C   UNL     1       1.968   8.452  19.076  0.00  0.00    +0.000 C 
ATOM     36  C   UNL     1       2.480   8.317  17.674  0.00  0.00    +0.000 C 
ENDBRANCH   5  34
TORSDOF 5
ENDMDL
MODEL 3
REMARK VINA RESULT:      -6.7      1.477      2.041
REMARK  Name = 
REMARK  7 active torsions:
REMARK  status: ('A' for Active; 'I' for Inactive)
REMARK    1  A    between atoms: C_1  and  C_2
REMARK    2  A    between atoms: C_2  and  C_3
REMARK    3  A    between atoms: C_2  and  C_4
REMARK    4  A    between atoms: C_2  and  N_11
REMARK    5  A    between atoms: C_4  and  N_5
REMARK    6  A    between atoms: N_15  and  C_16
REMARK    7  A    between atoms: C_22  and  C_23
REMARK                            x       y       z     vdW  Elec       q    Type
REMARK                         _______ _______ _______ _____ _____    ______ ____
ROOT
ATOM      1  N   UNL     1      -0.641  13.534  20.809  0.00  0.00    +0.000 N 
ATOM      2  C   UNL     1      -1.113  12.593  19.937  0.00  0.00    +0.000 A 
ATOM      3  N   UNL     1      -0.132  11.841  19.306  0.00  0.00    +0.000 NA
ATOM      4  C   UNL     1      -0.483  10.947  18.424  0.00  0.00    +0.000 A 
ATOM      5  N   UNL     1       0.358  10.121  17.693  0.00  0.00    +0.000 N 
ATOM      6  N   UNL     1      -1.851  10.786  18.175  0.00  0.00    +0.000 N 
ATOM      7  N   UNL     1      -2.357   9.880  17.300  0.00  0.00    +0.000 NA
ATOM      8  C   UNL     1      -3.676  10.074  17.423  0.00  0.00    +0.000 A 
ATOM      9  C   UNL     1      -4.002  11.047  18.399  0.00  0.00    +0.000 A 
ATOM     10  C   UNL     1      -2.788  11.504  18.853  0.00  0.00    +0.000 A 
ATOM     11  N   UNL     1      -2.393  12.423  19.755  0.00  0.00    +0.000 NA
ATOM     12  H   UNL     1       0.360  13.412  20.924  0.00  0.00    +0.000 HD
ATOM     13  H   UNL     1      -0.151   9.451  17.112  0.00  0.00    +0.000 HD
ENDROOT
BRANCH   9  14
ATOM     14  C   UNL     1      -5.273  11.519  18.836  0.00  0.00    +0.000 C 
ATOM     15  C   UNL     1      -5.994  12.487  18.263  0.00  0.00    +0.000 C 
ATOM     16  N   UNL     1      -5.716  13.173  17.115  0.00  0.00    +0.000 N 
ATOM     17  C   UNL     1      -6.723  14.082  16.854  0.00  0.00    +0.000 C 
ATOM     18  O   UNL     1      -6.778  14.823  15.890  0.00  0.00    +0.000 OA
ATOM     19  N   UNL     1      -7.644  13.985  17.862  0.00  0.00    +0.000 N 
ATOM     20  C   UNL     1      -7.301  13.015  18.763  0.00  0.00    +0.000 C 
ATOM     21  O   UNL     1      -7.916  12.655  19.747  0.00  0.00    +0.000 OA
ATOM     22  H   UNL     1      -4.948  13.013  16.482  0.00  0.00    +0.000 HD
ATOM     23  H   UNL     1      -8.483  14.536  17.905  0.00  0.00    +0.000 HD
ENDBRANCH   9  14
BRANCH   1  25
ATOM     24  C   UNL     1      -0.519  15.126  22.629  0.00  0.00    +0.000 C 
ATOM     25  C   UNL     1      -1.325  13.952  22.043  0.00  0.00    +0.000 C 
ATOM     26  C   UNL     1      -1.224  12.787  23.058  0.00  0.00    +0.000 C 
BRANCH  25  27
ATOM     27  C   UNL     1      -2.858  14.320  21.870  0.00  0.00    +0.000 C 
BRANCH  27  28
ATOM     28  N   UNL     1      -3.736  14.633  23.026  0.00  0.00    +0.000 NA
ATOM     29  C   UNL     1      -4.604  13.533  23.486  0.00  0.00    +0.000 C 
ATOM     30  C   UNL     1      -5.743  13.183  22.515  0.00  0.00    +0.000 C 
ATOM     31  O   UNL     1      -6.585  14.318  22.284  0.00  0.00    +0.000 OA
ATOM     32  C   UNL     1      -5.819  15.420  21.777  0.00  0.00    +0.000 C 
ATOM     33  C   UNL     1      -4.638  15.777  22.706  0.00  0.00    +0.000 C 
ENDBRANCH  27  28
ENDBRANCH  25  27
ENDBRANCH   1  25
BRANCH   5  34
ATOM     34  C   UNL     1       1.660   9.728  18.221  0.00  0.00    +0.000 C 
ATOM     35  C   UNL     1       1.842   8.461  19.010  0.00  0.00    +0.000 C 
ATOM     36  C   UNL     1       2.388   8.554  17.617  0.00  0.00    +0.000 C 
ENDBRANCH   5  34
TORSDOF 5
ENDMDL
MODEL 4
REMARK VINA RESULT:      -6.7      2.238      5.306
REMARK  Name = 
REMARK  7 active torsions:
REMARK  status: ('A' for Active; 'I' for Inactive)
REMARK    1  A    between atoms: C_1  and  C_2
REMARK    2  A    between atoms: C_2  and  C_3
REMARK    3  A    between atoms: C_2  and  C_4
REMARK    4  A    between atoms: C_2  and  N_11
REMARK    5  A    between atoms: C_4  and  N_5
REMARK    6  A    between atoms: N_15  and  C_16
REMARK    7  A    between atoms: C_22  and  C_23
REMARK                            x       y       z     vdW  Elec       q    Type
REMARK                         _______ _______ _______ _____ _____    ______ ____
ROOT
ATOM      1  N   UNL     1      -1.847  10.996  17.919  0.00  0.00    +0.000 N 
ATOM      2  C   UNL     1      -1.359  11.714  18.975  0.00  0.00    +0.000 A 
ATOM      3  N   UNL     1      -0.118  12.295  18.759  0.00  0.00    +0.000 NA
ATOM      4  C   UNL     1       0.449  12.963  19.724  0.00  0.00    +0.000 A 
ATOM      5  N   UNL     1       1.684  13.595  19.688  0.00  0.00    +0.000 N 
ATOM      6  N   UNL     1      -0.247  13.070  20.934  0.00  0.00    +0.000 N 
ATOM      7  N   UNL     1       0.215  13.753  22.012  0.00  0.00    +0.000 NA
ATOM      8  C   UNL     1      -0.783  13.599  22.892  0.00  0.00    +0.000 A 
ATOM      9  C   UNL     1      -1.880  12.879  22.362  0.00  0.00    +0.000 A 
ATOM     10  C   UNL     1      -1.488  12.532  21.091  0.00  0.00    +0.000 A 
ATOM     11  N   UNL     1      -2.045  11.843  20.077  0.00  0.00    +0.000 NA
ATOM     12  H   UNL     1      -1.246  11.136  17.112  0.00  0.00    +0.000 HD
ATOM     13  H   UNL     1       1.887  14.115  20.544  0.00  0.00    +0.000 HD
ENDROOT
BRANCH   9  14
ATOM     14  C   UNL     1      -3.124  12.527  22.962  0.00  0.00    +0.000 C 
ATOM     15  C   UNL     1      -4.091  13.373  23.324  0.00  0.00    +0.000 C 
ATOM     16  N   UNL     1      -4.137  14.726  23.138  0.00  0.00    +0.000 N 
ATOM     17  C   UNL     1      -5.320  15.231  23.642  0.00  0.00    +0.000 C 
ATOM     18  O   UNL     1      -5.667  16.397  23.604  0.00  0.00    +0.000 OA
ATOM     19  N   UNL     1      -6.026  14.187  24.175  0.00  0.00    +0.000 N 
ATOM     20  C   UNL     1      -5.370  12.999  24.006  0.00  0.00    +0.000 C 
ATOM     21  O   UNL     1      -5.737  11.887  24.330  0.00  0.00    +0.000 OA
ATOM     22  H   UNL     1      -3.471  15.293  22.639  0.00  0.00    +0.000 HD
ATOM     23  H   UNL     1      -6.932  14.285  24.600  0.00  0.00    +0.000 HD
ENDBRANCH   9  14
BRANCH   1  25
ATOM     24  C   UNL     1      -3.674   9.410  17.815  0.00  0.00    +0.000 C 
ATOM     25  C   UNL     1      -3.273  10.877  17.572  0.00  0.00    +0.000 C 
ATOM     26  C   UNL     1      -3.415  11.136  16.053  0.00  0.00    +0.000 C 
BRANCH  25  27
ATOM     27  C   UNL     1      -4.235  11.882  18.334  0.00  0.00    +0.000 C 
BRANCH  27  28
ATOM     28  N   UNL     1      -5.480  11.433  19.008  0.00  0.00    +0.000 NA
ATOM     29  C   UNL     1      -6.710  11.512  18.197  0.00  0.00    +0.000 C 
ATOM     30  C   UNL     1      -7.190  12.945  17.920  0.00  0.00    +0.000 C 
ATOM     31  O   UNL     1      -7.444  13.645  19.142  0.00  0.00    +0.000 OA
ATOM     32  C   UNL     1      -6.271  13.664  19.967  0.00  0.00    +0.000 C 
ATOM     33  C   UNL     1      -5.732  12.241  20.236  0.00  0.00    +0.000 C 
ENDBRANCH  27  28
ENDBRANCH  25  27
ENDBRANCH   1  25
BRANCH   5  34
ATOM     34  C   UNL     1       2.230  14.092  18.431  0.00  0.00    +0.000 C 
ATOM     35  C   UNL     1       2.677  15.519  18.273  0.00  0.00    +0.000 C 
ATOM     36  C   UNL     1       3.698  14.422  18.331  0.00  0.00    +0.000 C 
ENDBRANCH   5  34
TORSDOF 5
ENDMDL
MODEL 5
REMARK VINA RESULT:      -6.7      3.034      5.928
REMARK  Name = 
REMARK  7 active torsions:
REMARK  status: ('A' for Active; 'I' for Inactive)
REMARK    1  A    between atoms: C_1  and  C_2
REMARK    2  A    between atoms: C_2  and  C_3
REMARK    3  A    between atoms: C_2  and  C_4
REMARK    4  A    between atoms: C_2  and  N_11
REMARK    5  A    between atoms: C_4  and  N_5
REMARK    6  A    between atoms: N_15  and  C_16
REMARK    7  A    between atoms: C_22  and  C_23
REMARK                            x       y       z     vdW  Elec       q    Type
REMARK                         _______ _______ _______ _____ _____    ______ ____
ROOT
ATOM      1  N   UNL     1       1.488  11.007  20.519  0.00  0.00    +0.000 N 
ATOM      2  C   UNL     1       1.106  12.280  20.840  0.00  0.00    +0.000 A 
ATOM      3  N   UNL     1       1.804  13.281  20.180  0.00  0.00    +0.000 NA
ATOM      4  C   UNL     1       1.540  14.528  20.454  0.00  0.00    +0.000 A 
ATOM      5  N   UNL     1       2.145  15.648  19.903  0.00  0.00    +0.000 N 
ATOM      6  N   UNL     1       0.541  14.786  21.399  0.00  0.00    +0.000 N 
ATOM      7  N   UNL     1       0.150  16.035  21.761  0.00  0.00    +0.000 NA
ATOM      8  C   UNL     1      -0.823  15.780  22.645  0.00  0.00    +0.000 A 
ATOM      9  C   UNL     1      -1.083  14.397  22.797  0.00  0.00    +0.000 A 
ATOM     10  C   UNL     1      -0.162  13.779  21.986  0.00  0.00    +0.000 A 
ATOM     11  N   UNL     1       0.138  12.500  21.686  0.00  0.00    +0.000 NA
ATOM     12  H   UNL     1       2.142  11.040  19.743  0.00  0.00    +0.000 HD
ATOM     13  H   UNL     1       1.723  16.523  20.221  0.00  0.00    +0.000 HD
ENDROOT
BRANCH   9  14
ATOM     14  C   UNL     1      -2.040  13.727  23.613  0.00  0.00    +0.000 C 
ATOM     15  C   UNL     1      -3.246  13.303  23.225  0.00  0.00    +0.000 C 
ATOM     16  N   UNL     1      -3.790  13.348  21.973  0.00  0.00    +0.000 N 
ATOM     17  C   UNL     1      -5.054  12.791  21.988  0.00  0.00    +0.000 C 
ATOM     18  O   UNL     1      -5.784  12.661  21.022  0.00  0.00    +0.000 OA
ATOM     19  N   UNL     1      -5.324  12.405  23.272  0.00  0.00    +0.000 N 
ATOM     20  C   UNL     1      -4.266  12.650  24.104  0.00  0.00    +0.000 C 
ATOM     21  O   UNL     1      -4.169  12.395  25.287  0.00  0.00    +0.000 OA
ATOM     22  H   UNL     1      -3.339  13.656  21.126  0.00  0.00    +0.000 HD
ATOM     23  H   UNL     1      -6.181  11.960  23.552  0.00  0.00    +0.000 HD
ENDBRANCH   9  14
BRANCH   1  25
ATOM     24  C   UNL     1       0.406   9.359  21.925  0.00  0.00    +0.000 C 
ATOM     25  C   UNL     1       0.584   9.846  20.474  0.00  0.00    +0.000 C 
ATOM     26  C   UNL     1       1.306   8.713  19.705  0.00  0.00    +0.000 C 
BRANCH  25  27
ATOM     27  C   UNL     1      -0.812  10.108  19.768  0.00  0.00    +0.000 C 
BRANCH  27  28
ATOM     28  N   UNL     1      -0.924  10.808  18.463  0.00  0.00    +0.000 NA
ATOM     29  C   UNL     1      -1.720  12.050  18.470  0.00  0.00    +0.000 C 
ATOM     30  C   UNL     1      -3.229  11.828  18.657  0.00  0.00    +0.000 C 
ATOM     31  O   UNL     1      -3.756  10.993  17.621  0.00  0.00    +0.000 OA
ATOM     32  C   UNL     1      -3.068   9.735  17.587  0.00  0.00    +0.000 C 
ATOM     33  C   UNL     1      -1.541   9.915  17.440  0.00  0.00    +0.000 C 
ENDBRANCH  27  28
ENDBRANCH  25  27
ENDBRANCH   1  25
BRANCH   5  34
ATOM     34  C   UNL     1       2.714  15.604  18.560  0.00  0.00    +0.000 C 
ATOM     35  C   UNL     1       2.750  16.821  17.678  0.00  0.00    +0.000 C 
ATOM     36  C   UNL     1       4.021  16.300  18.278  0.00  0.00    +0.000 C 
ENDBRANCH   5  34
TORSDOF 5
ENDMDL
MODEL 6
REMARK VINA RESULT:      -6.7      1.540      1.898
REMARK  Name = 
REMARK  7 active torsions:
REMARK  status: ('A' for Active; 'I' for Inactive)
REMARK    1  A    between atoms: C_1  and  C_2
REMARK    2  A    between atoms: C_2  and  C_3
REMARK    3  A    between atoms: C_2  and  C_4
REMARK    4  A    between atoms: C_2  and  N_11
REMARK    5  A    between atoms: C_4  and  N_5
REMARK    6  A    between atoms: N_15  and  C_16
REMARK    7  A    between atoms: C_22  and  C_23
REMARK                            x       y       z     vdW  Elec       q    Type
REMARK                         _______ _______ _______ _____ _____    ______ ____
ROOT
ATOM      1  N   UNL     1      -0.661  13.732  20.836  0.00  0.00    +0.000 N 
ATOM      2  C   UNL     1      -0.957  12.673  20.025  0.00  0.00    +0.000 A 
ATOM      3  N   UNL     1      -0.029  11.642  20.053  0.00  0.00    +0.000 NA
ATOM      4  C   UNL     1      -0.203  10.608  19.278  0.00  0.00    +0.000 A 
ATOM      5  N   UNL     1       0.625   9.500  19.168  0.00  0.00    +0.000 N 
ATOM      6  N   UNL     1      -1.342  10.591  18.465  0.00  0.00    +0.000 N 
ATOM      7  N   UNL     1      -1.657   9.570  17.629  0.00  0.00    +0.000 NA
ATOM      8  C   UNL     1      -2.816   9.985  17.101  0.00  0.00    +0.000 A 
ATOM      9  C   UNL     1      -3.254  11.221  17.634  0.00  0.00    +0.000 A 
ATOM     10  C   UNL     1      -2.260  11.596  18.505  0.00  0.00    +0.000 A 
ATOM     11  N   UNL     1      -2.049  12.654  19.311  0.00  0.00    +0.000 NA
ATOM     12  H   UNL     1       0.140  13.498  21.415  0.00  0.00    +0.000 HD
ATOM     13  H   UNL     1       0.246   8.783  18.546  0.00  0.00    +0.000 HD
ENDROOT
BRANCH   9  14
ATOM     14  C   UNL     1      -4.429  11.977  17.354  0.00  0.00    +0.000 C 
ATOM     15  C   UNL     1      -5.579  11.927  18.032  0.00  0.00    +0.000 C 
ATOM     16  N   UNL     1      -5.856  11.213  19.163  0.00  0.00    +0.000 N 
ATOM     17  C   UNL     1      -7.158  11.448  19.561  0.00  0.00    +0.000 C 
ATOM     18  O   UNL     1      -7.694  10.978  20.547  0.00  0.00    +0.000 OA
ATOM     19  N   UNL     1      -7.722  12.308  18.658  0.00  0.00    +0.000 N 
ATOM     20  C   UNL     1      -6.826  12.683  17.695  0.00  0.00    +0.000 C 
ATOM     21  O   UNL     1      -6.995  13.457  16.774  0.00  0.00    +0.000 OA
ATOM     22  H   UNL     1      -5.214  10.655  19.702  0.00  0.00    +0.000 HD
ATOM     23  H   UNL     1      -8.666  12.647  18.725  0.00  0.00    +0.000 HD
ENDBRANCH   9  14
BRANCH   1  25
ATOM     24  C   UNL     1      -2.137  15.626  20.522  0.00  0.00    +0.000 C 
ATOM     25  C   UNL     1      -1.660  14.563  21.529  0.00  0.00    +0.000 C 
ATOM     26  C   UNL     1      -0.938  15.319  22.671  0.00  0.00    +0.000 C 
BRANCH  25  27
ATOM     27  C   UNL     1      -2.876  13.765  22.160  0.00  0.00    +0.000 C 
BRANCH  27  28
ATOM     28  N   UNL     1      -3.811  14.381  23.136  0.00  0.00    +0.000 NA
ATOM     29  C   UNL     1      -3.774  13.818  24.499  0.00  0.00    +0.000 C 
ATOM     30  C   UNL     1      -4.349  12.397  24.608  0.00  0.00    +0.000 C 
ATOM     31  O   UNL     1      -5.712  12.362  24.172  0.00  0.00    +0.000 OA
ATOM     32  C   UNL     1      -5.825  12.842  22.826  0.00  0.00    +0.000 C 
ATOM     33  C   UNL     1      -5.221  14.255  22.664  0.00  0.00    +0.000 C 
ENDBRANCH  27  28
ENDBRANCH  25  27
ENDBRANCH   1  25
BRANCH   5  34
ATOM     34  C   UNL     1       1.452   9.073  20.291  0.00  0.00    +0.000 C 
ATOM     35  C   UNL     1       0.847   8.542  21.561  0.00  0.00    +0.000 C 
ATOM     36  C   UNL     1       1.556   7.607  20.629  0.00  0.00    +0.000 C 
ENDBRANCH   5  34
TORSDOF 5
ENDMDL
MODEL 7
REMARK VINA RESULT:      -6.6      2.062      6.081
REMARK  Name = 
REMARK  7 active torsions:
REMARK  status: ('A' for Active; 'I' for Inactive)
REMARK    1  A    between atoms: C_1  and  C_2
REMARK    2  A    between atoms: C_2  and  C_3
REMARK    3  A    between atoms: C_2  and  C_4
REMARK    4  A    between atoms: C_2  and  N_11
REMARK    5  A    between atoms: C_4  and  N_5
REMARK    6  A    between atoms: N_15  and  C_16
REMARK    7  A    between atoms: C_22  and  C_23
REMARK                            x       y       z     vdW  Elec       q    Type
REMARK                         _______ _______ _______ _____ _____    ______ ____
ROOT
ATOM      1  N   UNL     1      -0.874  12.375  21.830  0.00  0.00    +0.000 N 
ATOM      2  C   UNL     1      -1.951  13.045  22.340  0.00  0.00    +0.000 A 
ATOM      3  N   UNL     1      -1.725  13.665  23.560  0.00  0.00    +0.000 NA
ATOM      4  C   UNL     1      -2.705  14.293  24.147  0.00  0.00    +0.000 A 
ATOM      5  N   UNL     1      -2.661  14.953  25.366  0.00  0.00    +0.000 N 
ATOM      6  N   UNL     1      -3.942  14.318  23.493  0.00  0.00    +0.000 N 
ATOM      7  N   UNL     1      -5.040  14.951  23.978  0.00  0.00    +0.000 NA
ATOM      8  C   UNL     1      -5.944  14.727  23.016  0.00  0.00    +0.000 A 
ATOM      9  C   UNL     1      -5.413  14.012  21.916  0.00  0.00    +0.000 A 
ATOM     10  C   UNL     1      -4.113  13.744  22.270  0.00  0.00    +0.000 A 
ATOM     11  N   UNL     1      -3.082  13.099  21.692  0.00  0.00    +0.000 NA
ATOM     12  H   UNL     1      -0.057  12.572  22.398  0.00  0.00    +0.000 HD
ATOM     13  H   UNL     1      -3.538  15.431  25.590  0.00  0.00    +0.000 HD
ENDROOT
BRANCH   9  14
ATOM     14  C   UNL     1      -6.036  13.599  20.703  0.00  0.00    +0.000 C 
ATOM     15  C   UNL     1      -6.600  12.411  20.471  0.00  0.00    +0.000 C 
ATOM     16  N   UNL     1      -6.770  11.377  21.348  0.00  0.00    +0.000 N 
ATOM     17  C   UNL     1      -7.415  10.328  20.720  0.00  0.00    +0.000 C 
ATOM     18  O   UNL     1      -7.733   9.276  21.242  0.00  0.00    +0.000 OA
ATOM     19  N   UNL     1      -7.639  10.694  19.421  0.00  0.00    +0.000 N 
ATOM     20  C   UNL     1      -7.201  11.966  19.174  0.00  0.00    +0.000 C 
ATOM     21  O   UNL     1      -7.280  12.600  18.141  0.00  0.00    +0.000 OA
ATOM     22  H   UNL     1      -6.550  11.371  22.331  0.00  0.00    +0.000 HD
ATOM     23  H   UNL     1      -8.105  10.109  18.749  0.00  0.00    +0.000 HD
ENDBRANCH   9  14
BRANCH   1  25
ATOM     24  C   UNL     1       0.846  11.650  20.287  0.00  0.00    +0.000 C 
ATOM     25  C   UNL     1      -0.572  12.242  20.395  0.00  0.00    +0.000 C 
ATOM     26  C   UNL     1      -0.510  13.667  19.791  0.00  0.00    +0.000 C 
BRANCH  25  27
ATOM     27  C   UNL     1      -1.625  11.400  19.561  0.00  0.00    +0.000 C 
BRANCH  27  28
ATOM     28  N   UNL     1      -2.296  11.940  18.351  0.00  0.00    +0.000 NA
ATOM     29  C   UNL     1      -3.743  11.674  18.249  0.00  0.00    +0.000 C 
ATOM     30  C   UNL     1      -4.094  10.202  17.979  0.00  0.00    +0.000 C 
ATOM     31  O   UNL     1      -3.494   9.748  16.761  0.00  0.00    +0.000 OA
ATOM     32  C   UNL     1      -2.071   9.920  16.804  0.00  0.00    +0.000 C 
ATOM     33  C   UNL     1      -1.675  11.381  17.114  0.00  0.00    +0.000 C 
ENDBRANCH  27  28
ENDBRANCH  25  27
ENDBRANCH   1  25
BRANCH   5  34
ATOM     34  C   UNL     1      -1.415  15.530  25.857  0.00  0.00    +0.000 C 
ATOM     35  C   UNL     1      -0.627  16.517  25.041  0.00  0.00    +0.000 C 
ATOM     36  C   UNL     1      -1.371  16.984  26.256  0.00  0.00    +0.000 C 
ENDBRANCH   5  34
TORSDOF 5
ENDMDL
MODEL 8
REMARK VINA RESULT:      -6.6      1.574      2.059
REMARK  Name = 
REMARK  7 active torsions:
REMARK  status: ('A' for Active; 'I' for Inactive)
REMARK    1  A    between atoms: C_1  and  C_2
REMARK    2  A    between atoms: C_2  and  C_3
REMARK    3  A    between atoms: C_2  and  C_4
REMARK    4  A    between atoms: C_2  and  N_11
REMARK    5  A    between atoms: C_4  and  N_5
REMARK    6  A    between atoms: N_15  and  C_16
REMARK    7  A    between atoms: C_22  and  C_23
REMARK                            x       y       z     vdW  Elec       q    Type
REMARK                         _______ _______ _______ _____ _____    ______ ____
ROOT
ATOM      1  N   UNL     1       0.078  13.854  19.832  0.00  0.00    +0.000 N 
ATOM      2  C   UNL     1      -0.522  12.787  19.222  0.00  0.00    +0.000 A 
ATOM      3  N   UNL     1       0.343  11.767  18.852  0.00  0.00    +0.000 NA
ATOM      4  C   UNL     1      -0.131  10.727  18.224  0.00  0.00    +0.000 A 
ATOM      5  N   UNL     1       0.586   9.629  17.772  0.00  0.00    +0.000 N 
ATOM      6  N   UNL     1      -1.507  10.693  17.973  0.00  0.00    +0.000 N 
ATOM      7  N   UNL     1      -2.135   9.664  17.350  0.00  0.00    +0.000 NA
ATOM      8  C   UNL     1      -3.414  10.063  17.365  0.00  0.00    +0.000 A 
ATOM      9  C   UNL     1      -3.599  11.296  18.035  0.00  0.00    +0.000 A 
ATOM     10  C   UNL     1      -2.333  11.688  18.400  0.00  0.00    +0.000 A 
ATOM     11  N   UNL     1      -1.813  12.752  19.041  0.00  0.00    +0.000 NA
ATOM     12  H   UNL     1       1.052  13.631  20.014  0.00  0.00    +0.000 HD
ATOM     13  H   UNL     1      -0.013   8.904  17.369  0.00  0.00    +0.000 HD
ENDROOT
BRANCH   9  14
ATOM     14  C   UNL     1      -4.791  12.037  18.282  0.00  0.00    +0.000 C 
ATOM     15  C   UNL     1      -5.859  11.609  18.959  0.00  0.00    +0.000 C 
ATOM     16  N   UNL     1      -6.016  10.421  19.616  0.00  0.00    +0.000 N 
ATOM     17  C   UNL     1      -7.264  10.371  20.207  0.00  0.00    +0.000 C 
ATOM     18  O   UNL     1      -7.692   9.454  20.884  0.00  0.00    +0.000 OA
ATOM     19  N   UNL     1      -7.917  11.535  19.903  0.00  0.00    +0.000 N 
ATOM     20  C   UNL     1      -7.129  12.374  19.164  0.00  0.00    +0.000 C 
ATOM     21  O   UNL     1      -7.392  13.490  18.764  0.00  0.00    +0.000 OA
ATOM     22  H   UNL     1      -5.323   9.702  19.745  0.00  0.00    +0.000 HD
ATOM     23  H   UNL     1      -8.844  11.753  20.222  0.00  0.00    +0.000 HD
ENDBRANCH   9  14
BRANCH   1  25
ATOM     24  C   UNL     1      -1.355  15.775  20.175  0.00  0.00    +0.000 C 
ATOM     25  C   UNL     1      -0.542  14.676  20.884  0.00  0.00    +0.000 C 
ATOM     26  C   UNL     1       0.594  15.387  21.660  0.00  0.00    +0.000 C 
BRANCH  25  27
ATOM     27  C   UNL     1      -1.424  13.874  21.930  0.00  0.00    +0.000 C 
BRANCH  27  28
ATOM     28  N   UNL     1      -2.884  14.101  22.077  0.00  0.00    +0.000 NA
ATOM     29  C   UNL     1      -3.286  14.984  23.187  0.00  0.00    +0.000 C 
ATOM     30  C   UNL     1      -3.082  14.373  24.582  0.00  0.00    +0.000 C 
ATOM     31  O   UNL     1      -3.823  13.156  24.720  0.00  0.00    +0.000 OA
ATOM     32  C   UNL     1      -3.446  12.216  23.705  0.00  0.00    +0.000 C 
ATOM     33  C   UNL     1      -3.598  12.808  22.286  0.00  0.00    +0.000 C 
ENDBRANCH  27  28
ENDBRANCH  25  27
ENDBRANCH   1  25
BRANCH   5  34
ATOM     34  C   UNL     1       1.817   9.217  18.436  0.00  0.00    +0.000 C 
ATOM     35  C   UNL     1       1.831   8.122  19.467  0.00  0.00    +0.000 C 
ATOM     36  C   UNL     1       2.429   7.877  18.114  0.00  0.00    +0.000 C 
ENDBRANCH   5  34
TORSDOF 5
ENDMDL
MODEL 9
REMARK VINA RESULT:      -6.5      3.079      8.026
REMARK  Name = 
REMARK  7 active torsions:
REMARK  status: ('A' for Active; 'I' for Inactive)
REMARK    1  A    between atoms: C_1  and  C_2
REMARK    2  A    between atoms: C_2  and  C_3
REMARK    3  A    between atoms: C_2  and  C_4
REMARK    4  A    between atoms: C_2  and  N_11
REMARK    5  A    between atoms: C_4  and  N_5
REMARK    6  A    between atoms: N_15  and  C_16
REMARK    7  A    between atoms: C_22  and  C_23
REMARK                            x       y       z     vdW  Elec       q    Type
REMARK                         _______ _______ _______ _____ _____    ______ ____
ROOT
ATOM      1  N   UNL     1      -5.641  13.401  19.266  0.00  0.00    +0.000 N 
ATOM      2  C   UNL     1      -5.104  13.798  20.459  0.00  0.00    +0.000 A 
ATOM      3  N   UNL     1      -5.575  15.015  20.932  0.00  0.00    +0.000 NA
ATOM      4  C   UNL     1      -5.090  15.497  22.041  0.00  0.00    +0.000 A 
ATOM      5  N   UNL     1      -5.433  16.696  22.649  0.00  0.00    +0.000 N 
ATOM      6  N   UNL     1      -4.119  14.740  22.708  0.00  0.00    +0.000 N 
ATOM      7  N   UNL     1      -3.546  15.112  23.881  0.00  0.00    +0.000 NA
ATOM      8  C   UNL     1      -2.726  14.084  24.132  0.00  0.00    +0.000 A 
ATOM      9  C   UNL     1      -2.819  13.054  23.166  0.00  0.00    +0.000 A 
ATOM     10  C   UNL     1      -3.721  13.525  22.242  0.00  0.00    +0.000 A 
ATOM     11  N   UNL     1      -4.237  13.055  21.090  0.00  0.00    +0.000 NA
ATOM     12  H   UNL     1      -6.395  14.030  19.012  0.00  0.00    +0.000 HD
ATOM     13  H   UNL     1      -4.969  16.830  23.551  0.00  0.00    +0.000 HD
ENDROOT
BRANCH   9  14
ATOM     14  C   UNL     1      -2.138  11.805  23.086  0.00  0.00    +0.000 C 
ATOM     15  C   UNL     1      -1.050  11.546  22.356  0.00  0.00    +0.000 C 
ATOM     16  N   UNL     1      -0.319  12.418  21.599  0.00  0.00    +0.000 N 
ATOM     17  C   UNL     1       0.743  11.757  21.014  0.00  0.00    +0.000 C 
ATOM     18  O   UNL     1       1.590  12.265  20.303  0.00  0.00    +0.000 OA
ATOM     19  N   UNL     1       0.674  10.442  21.388  0.00  0.00    +0.000 N 
ATOM     20  C   UNL     1      -0.376  10.215  22.235  0.00  0.00    +0.000 C 
ATOM     21  O   UNL     1      -0.693   9.174  22.773  0.00  0.00    +0.000 OA
ATOM     22  H   UNL     1      -0.452  13.413  21.521  0.00  0.00    +0.000 HD
ATOM     23  H   UNL     1       1.340   9.746  21.102  0.00  0.00    +0.000 HD
ENDBRANCH   9  14
BRANCH   1  25
ATOM     24  C   UNL     1      -6.951  12.024  17.766  0.00  0.00    +0.000 C 
ATOM     25  C   UNL     1      -5.892  12.001  18.884  0.00  0.00    +0.000 C 
ATOM     26  C   UNL     1      -6.535  11.287  20.098  0.00  0.00    +0.000 C 
BRANCH  25  27
ATOM     27  C   UNL     1      -4.605  11.180  18.456  0.00  0.00    +0.000 C 
BRANCH  27  28
ATOM     28  N   UNL     1      -3.495  11.789  17.679  0.00  0.00    +0.000 NA
ATOM     29  C   UNL     1      -3.217  11.170  16.369  0.00  0.00    +0.000 C 
ATOM     30  C   UNL     1      -2.595   9.767  16.456  0.00  0.00    +0.000 C 
ATOM     31  O   UNL     1      -1.361   9.799  17.180  0.00  0.00    +0.000 OA
ATOM     32  C   UNL     1      -1.559  10.337  18.494  0.00  0.00    +0.000 C 
ATOM     33  C   UNL     1      -2.221  11.733  18.452  0.00  0.00    +0.000 C 
ENDBRANCH  27  28
ENDBRANCH  25  27
ENDBRANCH   1  25
BRANCH   5  34
ATOM     34  C   UNL     1      -6.760  17.273  22.464  0.00  0.00    +0.000 C 
ATOM     35  C   UNL     1      -7.226  18.457  23.265  0.00  0.00    +0.000 C 
ATOM     36  C   UNL     1      -6.903  18.625  21.811  0.00  0.00    +0.000 C 
ENDBRANCH   5  34
TORSDOF 5
ENDMDL
