MODEL 1
REMARK VINA RESULT:      -7.7      0.000      0.000
REMARK  Name = 
REMARK  1 active torsions:
REMARK  status: ('A' for Active; 'I' for Inactive)
REMARK    1  A    between atoms: C_2  and  C_3
REMARK                            x       y       z     vdW  Elec       q    Type
REMARK                         _______ _______ _______ _____ _____    ______ ____
ROOT
ATOM      1  O   UNL     1       3.853   2.274  17.336  0.00  0.00    +0.000 OA
ATOM      2  C   UNL     1       4.049   3.139  18.188  0.00  0.00    +0.000 C 
ATOM      3  N   UNL     1       5.120   4.060  18.109  0.00  0.00    +0.000 N 
ATOM      4  C   UNL     1       5.383   5.043  19.175  0.00  0.00    +0.000 C 
ATOM      5  C   UNL     1       6.819   5.574  19.201  0.00  0.00    +0.000 C 
ATOM      6  C   UNL     1       7.290   6.024  17.823  0.00  0.00    +0.000 C 
ATOM      7  C   UNL     1       7.072   4.881  16.848  0.00  0.00    +0.000 C 
ATOM      8  C   UNL     1       7.400   5.178  15.395  0.00  0.00    +0.000 C 
ATOM      9  C   UNL     1       6.592   4.141  14.608  0.00  0.00    +0.000 C 
ATOM     10  C   UNL     1       5.594   3.523  15.600  0.00  0.00    +0.000 C 
ATOM     11  C   UNL     1       5.595   4.481  16.791  0.00  0.00    +0.000 C 
ENDROOT
BRANCH   2  12
ATOM     12  C   UNL     1       3.064   3.236  19.327  0.00  0.00    +0.000 A 
ATOM     13  N   UNL     1       3.449   2.590  20.466  0.00  0.00    +0.000 NA
ATOM     14  C   UNL     1       2.619   2.657  21.510  0.00  0.00    +0.000 A 
ATOM     15  N   UNL     1       1.470   3.333  21.539  0.00  0.00    +0.000 NA
ATOM     16  C   UNL     1       1.145   3.991  20.403  0.00  0.00    +0.000 A 
ATOM     17  C   UNL     1       1.901   3.980  19.247  0.00  0.00    +0.000 A 
ATOM     18 CL   UNL     1       1.320   4.823  17.871  0.00  0.00    +0.000 Cl
ENDBRANCH   2  12
TORSDOF 1
ENDMDL
MODEL 2
REMARK VINA RESULT:      -7.5      1.470      1.722
REMARK  Name = 
REMARK  1 active torsions:
REMARK  status: ('A' for Active; 'I' for Inactive)
REMARK    1  A    between atoms: C_2  and  C_3
REMARK                            x       y       z     vdW  Elec       q    Type
REMARK                         _______ _______ _______ _____ _____    ______ ____
ROOT
ATOM      1  O   UNL     1       3.774   2.386  17.305  0.00  0.00    +0.000 OA
ATOM      2  C   UNL     1       4.036   3.209  18.180  0.00  0.00    +0.000 C 
ATOM      3  N   UNL     1       5.124   4.109  18.082  0.00  0.00    +0.000 N 
ATOM      4  C   UNL     1       5.467   5.039  19.172  0.00  0.00    +0.000 C 
ATOM      5  C   UNL     1       6.915   5.536  19.142  0.00  0.00    +0.000 C 
ATOM      6  C   UNL     1       7.324   6.035  17.761  0.00  0.00    +0.000 C 
ATOM      7  C   UNL     1       7.026   4.939  16.753  0.00  0.00    +0.000 C 
ATOM      8  C   UNL     1       7.285   5.291  15.298  0.00  0.00    +0.000 C 
ATOM      9  C   UNL     1       6.410   4.307  14.513  0.00  0.00    +0.000 C 
ATOM     10  C   UNL     1       5.452   3.669  15.531  0.00  0.00    +0.000 C 
ATOM     11  C   UNL     1       5.539   4.575  16.758  0.00  0.00    +0.000 C 
ENDROOT
BRANCH   2  12
ATOM     12  C   UNL     1       3.116   3.279  19.373  0.00  0.00    +0.000 A 
ATOM     13  N   UNL     1       1.977   4.003  19.168  0.00  0.00    +0.000 NA
ATOM     14  C   UNL     1       1.120   4.084  20.189  0.00  0.00    +0.000 A 
ATOM     15  N   UNL     1       1.270   3.485  21.371  0.00  0.00    +0.000 NA
ATOM     16  C   UNL     1       2.392   2.745  21.518  0.00  0.00    +0.000 A 
ATOM     17  C   UNL     1       3.369   2.602  20.552  0.00  0.00    +0.000 A 
ATOM     18 CL   UNL     1       4.763   1.671  20.917  0.00  0.00    +0.000 Cl
ENDBRANCH   2  12
TORSDOF 1
ENDMDL
MODEL 3
REMARK VINA RESULT:      -7.5      2.309      5.403
REMARK  Name = 
REMARK  1 active torsions:
REMARK  status: ('A' for Active; 'I' for Inactive)
REMARK    1  A    between atoms: C_2  and  C_3
REMARK                            x       y       z     vdW  Elec       q    Type
REMARK                         _______ _______ _______ _____ _____    ______ ____
ROOT
ATOM      1  O   UNL     1       4.745   3.616  17.053  0.00  0.00    +0.000 OA
ATOM      2  C   UNL     1       4.677   4.510  17.894  0.00  0.00    +0.000 C 
ATOM      3  N   UNL     1       3.553   4.683  18.736  0.00  0.00    +0.000 N 
ATOM      4  C   UNL     1       3.458   5.802  19.689  0.00  0.00    +0.000 C 
ATOM      5  C   UNL     1       2.027   6.146  20.114  0.00  0.00    +0.000 C 
ATOM      6  C   UNL     1       1.241   4.912  20.540  0.00  0.00    +0.000 C 
ATOM      7  C   UNL     1       1.324   3.887  19.423  0.00  0.00    +0.000 C 
ATOM      8  C   UNL     1       0.671   2.545  19.707  0.00  0.00    +0.000 C 
ATOM      9  C   UNL     1       1.362   1.579  18.738  0.00  0.00    +0.000 C 
ATOM     10  C   UNL     1       2.589   2.321  18.185  0.00  0.00    +0.000 C 
ATOM     11  C   UNL     1       2.778   3.506  19.132  0.00  0.00    +0.000 C 
ENDROOT
BRANCH   2  12
ATOM     12  C   UNL     1       5.875   5.414  18.054  0.00  0.00    +0.000 A 
ATOM     13  N   UNL     1       6.719   5.063  19.068  0.00  0.00    +0.000 NA
ATOM     14  C   UNL     1       7.803   5.822  19.242  0.00  0.00    +0.000 A 
ATOM     15  N   UNL     1       8.143   6.866  18.485  0.00  0.00    +0.000 NA
ATOM     16  C   UNL     1       7.301   7.155  17.467  0.00  0.00    +0.000 A 
ATOM     17  C   UNL     1       6.135   6.466  17.195  0.00  0.00    +0.000 A 
ATOM     18 CL   UNL     1       5.145   6.996  15.898  0.00  0.00    +0.000 Cl
ENDBRANCH   2  12
TORSDOF 1
ENDMDL
MODEL 4
REMARK VINA RESULT:      -7.1      2.271      5.751
REMARK  Name = 
REMARK  1 active torsions:
REMARK  status: ('A' for Active; 'I' for Inactive)
REMARK    1  A    between atoms: C_2  and  C_3
REMARK                            x       y       z     vdW  Elec       q    Type
REMARK                         _______ _______ _______ _____ _____    ______ ____
ROOT
ATOM      1  O   UNL     1       4.216   2.470  17.288  0.00  0.00    +0.000 OA
ATOM      2  C   UNL     1       4.405   3.684  17.254  0.00  0.00    +0.000 C 
ATOM      3  N   UNL     1       3.667   4.595  18.047  0.00  0.00    +0.000 N 
ATOM      4  C   UNL     1       3.856   6.052  17.941  0.00  0.00    +0.000 C 
ATOM      5  C   UNL     1       2.668   6.879  18.440  0.00  0.00    +0.000 C 
ATOM      6  C   UNL     1       2.185   6.423  19.811  0.00  0.00    +0.000 C 
ATOM      7  C   UNL     1       1.915   4.930  19.748  0.00  0.00    +0.000 C 
ATOM      8  C   UNL     1       1.510   4.274  21.058  0.00  0.00    +0.000 C 
ATOM      9  C   UNL     1       1.855   2.794  20.859  0.00  0.00    +0.000 C 
ATOM     10  C   UNL     1       2.733   2.717  19.600  0.00  0.00    +0.000 C 
ATOM     11  C   UNL     1       3.179   4.158  19.355  0.00  0.00    +0.000 C 
ENDROOT
BRANCH   2  12
ATOM     12  C   UNL     1       5.509   4.196  16.363  0.00  0.00    +0.000 A 
ATOM     13  N   UNL     1       5.218   4.173  15.029  0.00  0.00    +0.000 NA
ATOM     14  C   UNL     1       6.157   4.630  14.197  0.00  0.00    +0.000 A 
ATOM     15  N   UNL     1       7.333   5.139  14.567  0.00  0.00    +0.000 NA
ATOM     16  C   UNL     1       7.565   5.180  15.898  0.00  0.00    +0.000 A 
ATOM     17  C   UNL     1       6.690   4.717  16.861  0.00  0.00    +0.000 A 
ATOM     18 CL   UNL     1       7.159   4.790  18.510  0.00  0.00    +0.000 Cl
ENDBRANCH   2  12
TORSDOF 1
ENDMDL
MODEL 5
REMARK VINA RESULT:      -6.9      2.459      6.095
REMARK  Name = 
REMARK  1 active torsions:
REMARK  status: ('A' for Active; 'I' for Inactive)
REMARK    1  A    between atoms: C_2  and  C_3
REMARK                            x       y       z     vdW  Elec       q    Type
REMARK                         _______ _______ _______ _____ _____    ______ ____
ROOT
ATOM      1  O   UNL     1       4.756   6.216  18.585  0.00  0.00    +0.000 OA
ATOM      2  C   UNL     1       4.747   5.156  17.963  0.00  0.00    +0.000 C 
ATOM      3  N   UNL     1       3.927   4.062  18.330  0.00  0.00    +0.000 N 
ATOM      4  C   UNL     1       3.981   2.774  17.617  0.00  0.00    +0.000 C 
ATOM      5  C   UNL     1       3.462   1.583  18.427  0.00  0.00    +0.000 C 
ATOM      6  C   UNL     1       2.109   1.871  19.069  0.00  0.00    +0.000 C 
ATOM      7  C   UNL     1       2.226   3.158  19.867  0.00  0.00    +0.000 C 
ATOM      8  C   UNL     1       0.942   3.657  20.508  0.00  0.00    +0.000 C 
ATOM      9  C   UNL     1       1.190   5.154  20.727  0.00  0.00    +0.000 C 
ATOM     10  C   UNL     1       2.446   5.510  19.916  0.00  0.00    +0.000 C 
ATOM     11  C   UNL     1       2.637   4.327  18.968  0.00  0.00    +0.000 C 
ENDROOT
BRANCH   2  12
ATOM     12  C   UNL     1       5.613   5.059  16.732  0.00  0.00    +0.000 A 
ATOM     13  N   UNL     1       4.936   5.183  15.552  0.00  0.00    +0.000 NA
ATOM     14  C   UNL     1       5.659   5.119  14.431  0.00  0.00    +0.000 A 
ATOM     15  N   UNL     1       6.984   4.985  14.375  0.00  0.00    +0.000 NA
ATOM     16  C   UNL     1       7.620   4.906  15.566  0.00  0.00    +0.000 A 
ATOM     17  C   UNL     1       6.988   4.932  16.794  0.00  0.00    +0.000 A 
ATOM     18 CL   UNL     1       7.935   4.764  18.215  0.00  0.00    +0.000 Cl
ENDBRANCH   2  12
TORSDOF 1
ENDMDL
MODEL 6
REMARK VINA RESULT:      -6.8      4.147      6.281
REMARK  Name = 
REMARK  1 active torsions:
REMARK  status: ('A' for Active; 'I' for Inactive)
REMARK    1  A    between atoms: C_2  and  C_3
REMARK                            x       y       z     vdW  Elec       q    Type
REMARK                         _______ _______ _______ _____ _____    ______ ____
ROOT
ATOM      1  O   UNL     1       1.752   5.698  20.848  0.00  0.00    +0.000 OA
ATOM      2  C   UNL     1       2.253   6.232  19.862  0.00  0.00    +0.000 C 
ATOM      3  N   UNL     1       1.934   7.551  19.462  0.00  0.00    +0.000 N 
ATOM      4  C   UNL     1       2.490   8.151  18.237  0.00  0.00    +0.000 C 
ATOM      5  C   UNL     1       1.671   9.320  17.681  0.00  0.00    +0.000 C 
ATOM      6  C   UNL     1       1.323  10.341  18.758  0.00  0.00    +0.000 C 
ATOM      7  C   UNL     1       0.653   9.610  19.908  0.00  0.00    +0.000 C 
ATOM      8  C   UNL     1       0.315  10.456  21.123  0.00  0.00    +0.000 C 
ATOM      9  C   UNL     1       0.208   9.443  22.268  0.00  0.00    +0.000 C 
ATOM     10  C   UNL     1       0.805   8.129  21.743  0.00  0.00    +0.000 C 
ATOM     11  C   UNL     1       1.576   8.533  20.487  0.00  0.00    +0.000 C 
ENDROOT
BRANCH   2  12
ATOM     12  C   UNL     1       3.288   5.449  19.091  0.00  0.00    +0.000 A 
ATOM     13  N   UNL     1       4.571   5.631  19.519  0.00  0.00    +0.000 NA
ATOM     14  C   UNL     1       5.524   4.949  18.880  0.00  0.00    +0.000 A 
ATOM     15  N   UNL     1       5.318   4.081  17.889  0.00  0.00    +0.000 NA
ATOM     16  C   UNL     1       4.029   3.901  17.522  0.00  0.00    +0.000 A 
ATOM     17  C   UNL     1       2.955   4.562  18.083  0.00  0.00    +0.000 A 
ATOM     18 CL   UNL     1       1.383   4.261  17.465  0.00  0.00    +0.000 Cl
ENDBRANCH   2  12
TORSDOF 1
ENDMDL
MODEL 7
REMARK VINA RESULT:      -6.7      2.063      5.849
REMARK  Name = 
REMARK  1 active torsions:
REMARK  status: ('A' for Active; 'I' for Inactive)
REMARK    1  A    between atoms: C_2  and  C_3
REMARK                            x       y       z     vdW  Elec       q    Type
REMARK                         _______ _______ _______ _____ _____    ______ ____
ROOT
ATOM      1  O   UNL     1       5.759   3.279  19.605  0.00  0.00    +0.000 OA
ATOM      2  C   UNL     1       5.155   3.974  18.791  0.00  0.00    +0.000 C 
ATOM      3  N   UNL     1       3.743   3.987  18.697  0.00  0.00    +0.000 N 
ATOM      4  C   UNL     1       3.038   4.770  17.668  0.00  0.00    +0.000 C 
ATOM      5  C   UNL     1       1.619   4.280  17.365  0.00  0.00    +0.000 C 
ATOM      6  C   UNL     1       0.803   4.062  18.635  0.00  0.00    +0.000 C 
ATOM      7  C   UNL     1       1.591   3.146  19.555  0.00  0.00    +0.000 C 
ATOM      8  C   UNL     1       0.973   2.887  20.918  0.00  0.00    +0.000 C 
ATOM      9  C   UNL     1       2.157   2.457  21.791  0.00  0.00    +0.000 C 
ATOM     10  C   UNL     1       3.428   2.802  21.000  0.00  0.00    +0.000 C 
ATOM     11  C   UNL     1       2.951   3.756  19.905  0.00  0.00    +0.000 C 
ENDROOT
BRANCH   2  12
ATOM     12  C   UNL     1       5.970   4.881  17.903  0.00  0.00    +0.000 A 
ATOM     13  N   UNL     1       6.490   5.974  18.535  0.00  0.00    +0.000 NA
ATOM     14  C   UNL     1       7.233   6.802  17.796  0.00  0.00    +0.000 A 
ATOM     15  N   UNL     1       7.537   6.626  16.510  0.00  0.00    +0.000 NA
ATOM     16  C   UNL     1       7.035   5.511  15.934  0.00  0.00    +0.000 A 
ATOM     17  C   UNL     1       6.232   4.589  16.577  0.00  0.00    +0.000 A 
ATOM     18 CL   UNL     1       5.629   3.253  15.686  0.00  0.00    +0.000 Cl
ENDBRANCH   2  12
TORSDOF 1
ENDMDL
MODEL 8
REMARK VINA RESULT:      -6.5      2.061      5.875
REMARK  Name = 
REMARK  1 active torsions:
REMARK  status: ('A' for Active; 'I' for Inactive)
REMARK    1  A    between atoms: C_2  and  C_3
REMARK                            x       y       z     vdW  Elec       q    Type
REMARK                         _______ _______ _______ _____ _____    ______ ____
ROOT
ATOM      1  O   UNL     1       5.485   4.746  19.684  0.00  0.00    +0.000 OA
ATOM      2  C   UNL     1       4.912   4.455  18.636  0.00  0.00    +0.000 C 
ATOM      3  N   UNL     1       3.727   3.682  18.602  0.00  0.00    +0.000 N 
ATOM      4  C   UNL     1       3.094   3.282  17.333  0.00  0.00    +0.000 C 
ATOM      5  C   UNL     1       2.178   2.060  17.445  0.00  0.00    +0.000 C 
ATOM      6  C   UNL     1       1.199   2.179  18.607  0.00  0.00    +0.000 C 
ATOM      7  C   UNL     1       1.991   2.475  19.868  0.00  0.00    +0.000 C 
ATOM      8  C   UNL     1       1.171   2.720  21.123  0.00  0.00    +0.000 C 
ATOM      9  C   UNL     1       2.109   3.518  22.035  0.00  0.00    +0.000 C 
ATOM     10  C   UNL     1       3.283   3.978  21.156  0.00  0.00    +0.000 C 
ATOM     11  C   UNL     1       2.792   3.772  19.724  0.00  0.00    +0.000 C 
ENDROOT
BRANCH   2  12
ATOM     12  C   UNL     1       5.485   4.999  17.351  0.00  0.00    +0.000 A 
ATOM     13  N   UNL     1       6.452   4.218  16.786  0.00  0.00    +0.000 NA
ATOM     14  C   UNL     1       6.982   4.647  15.638  0.00  0.00    +0.000 A 
ATOM     15  N   UNL     1       6.617   5.751  14.986  0.00  0.00    +0.000 NA
ATOM     16  C   UNL     1       5.629   6.475  15.559  0.00  0.00    +0.000 A 
ATOM     17  C   UNL     1       5.017   6.156  16.756  0.00  0.00    +0.000 A 
ATOM     18 CL   UNL     1       3.816   7.212  17.378  0.00  0.00    +0.000 Cl
ENDBRANCH   2  12
TORSDOF 1
ENDMDL
MODEL 9
REMARK VINA RESULT:      -6.3      2.047      5.639
REMARK  Name = 
REMARK  1 active torsions:
REMARK  status: ('A' for Active; 'I' for Inactive)
REMARK    1  A    between atoms: C_2  and  C_3
REMARK                            x       y       z     vdW  Elec       q    Type
REMARK                         _______ _______ _______ _____ _____    ______ ____
ROOT
ATOM      1  O   UNL     1       4.395   3.001  17.354  0.00  0.00    +0.000 OA
ATOM      2  C   UNL     1       4.466   4.184  17.678  0.00  0.00    +0.000 C 
ATOM      3  N   UNL     1       3.560   4.785  18.584  0.00  0.00    +0.000 N 
ATOM      4  C   UNL     1       3.616   6.221  18.905  0.00  0.00    +0.000 C 
ATOM      5  C   UNL     1       2.304   6.796  19.448  0.00  0.00    +0.000 C 
ATOM      6  C   UNL     1       1.722   5.940  20.568  0.00  0.00    +0.000 C 
ATOM      7  C   UNL     1       1.609   4.512  20.065  0.00  0.00    +0.000 C 
ATOM      8  C   UNL     1       1.130   3.489  21.081  0.00  0.00    +0.000 C 
ATOM      9  C   UNL     1       1.638   2.151  20.534  0.00  0.00    +0.000 C 
ATOM     10  C   UNL     1       2.652   2.489  19.429  0.00  0.00    +0.000 C 
ATOM     11  C   UNL     1       2.978   3.966  19.648  0.00  0.00    +0.000 C 
ENDROOT
BRANCH   2  12
ATOM     12  C   UNL     1       5.606   4.997  17.114  0.00  0.00    +0.000 A 
ATOM     13  N   UNL     1       6.345   5.661  18.050  0.00  0.00    +0.000 NA
ATOM     14  C   UNL     1       7.376   6.384  17.605  0.00  0.00    +0.000 A 
ATOM     15  N   UNL     1       7.760   6.476  16.331  0.00  0.00    +0.000 NA
ATOM     16  C   UNL     1       7.024   5.771  15.442  0.00  0.00    +0.000 A 
ATOM     17  C   UNL     1       5.921   5.008  15.768  0.00  0.00    +0.000 A 
ATOM     18 CL   UNL     1       5.061   4.218  14.511  0.00  0.00    +0.000 Cl
ENDBRANCH   2  12
TORSDOF 1
ENDMDL
