MODEL 1
REMARK VINA RESULT:      -7.1      0.000      0.000
REMARK  Name = 
REMARK  6 active torsions:
REMARK  status: ('A' for Active; 'I' for Inactive)
REMARK    1  A    between atoms: C_1  and  C_2
REMARK    2  A    between atoms: C_6  and  C_7
REMARK    3  A    between atoms: C_12  and  N_13
REMARK    4  A    between atoms: C_16  and  C_17
REMARK    5  A    between atoms: N_19  and  C_20
REMARK    6  A    between atoms: C_20  and  C_21
REMARK                            x       y       z     vdW  Elec       q    Type
REMARK                         _______ _______ _______ _____ _____    ______ ____
ROOT
ATOM      1  N   UNL     1       1.818   5.492  19.413  0.00  0.00    +0.000 NA
ATOM      2  C   UNL     1       1.990   5.318  17.957  0.00  0.00    +0.000 C 
ATOM      3  C   UNL     1       1.300   4.073  17.391  0.00  0.00    +0.000 C 
ATOM      4  C   UNL     1       1.721   2.809  18.140  0.00  0.00    +0.000 C 
ATOM      5  C   UNL     1       1.372   3.018  19.613  0.00  0.00    +0.000 C 
ATOM      6  C   UNL     1       2.045   4.270  20.185  0.00  0.00    +0.000 C 
ENDROOT
BRANCH   1  12
ATOM      7  C   UNL     1      -0.104  10.202  20.495  0.00  0.00    +0.000 C 
ATOM      8  O   UNL     1      -0.672  10.237  21.592  0.00  0.00    +0.000 OA
ATOM      9  N   UNL     1       0.840   9.167  20.267  0.00  0.00    +0.000 N 
ATOM     10  C   UNL     1       0.911   8.141  21.311  0.00  0.00    +0.000 C 
ATOM     11  C   UNL     1       2.175   7.297  21.265  0.00  0.00    +0.000 C 
ATOM     12  C   UNL     1       2.518   6.722  19.878  0.00  0.00    +0.000 C 
ATOM     13  C   UNL     1       2.533   7.892  18.887  0.00  0.00    +0.000 C 
ATOM     14  C   UNL     1       1.317   8.803  18.947  0.00  0.00    +0.000 C 
BRANCH   7  20
ATOM     15  C   UNL     1      -1.999  10.336  17.662  0.00  0.00    +0.000 C 
ATOM     16  C   UNL     1      -1.143  11.362  18.333  0.00  0.00    +0.000 A 
ATOM     17  C   UNL     1      -1.096  12.700  17.796  0.00  0.00    +0.000 A 
ATOM     18  C   UNL     1      -0.367  13.571  18.562  0.00  0.00    +0.000 A 
ATOM     19  S   UNL     1       0.339  12.792  19.892  0.00  0.00    +0.000 S 
ATOM     20  C   UNL     1      -0.373  11.254  19.496  0.00  0.00    +0.000 A 
ENDBRANCH   7  20
ENDBRANCH   1  12
BRANCH   4  21
ATOM     21  C   UNL     1       3.199   2.480  17.908  0.00  0.00    +0.000 C 
ATOM     22  O   UNL     1       3.764   1.515  18.416  0.00  0.00    +0.000 OA
ATOM     23  N   UNL     1       3.871   3.387  17.118  0.00  0.00    +0.000 N 
ATOM     24  H   UNL     1       3.447   4.271  16.873  0.00  0.00    +0.000 HD
BRANCH  23  25
ATOM     25  C   UNL     1       5.277   3.225  16.769  0.00  0.00    +0.000 C 
BRANCH  25  26
ATOM     26  C   UNL     1       5.940   4.553  16.403  0.00  0.00    +0.000 C 
ATOM     27  C   UNL     1       7.173   4.907  17.222  0.00  0.00    +0.000 C 
ATOM     28  C   UNL     1       7.160   6.414  17.166  0.00  0.00    +0.000 C 
ATOM     29  C   UNL     1       5.681   6.724  17.221  0.00  0.00    +0.000 C 
ATOM     30  O   UNL     1       4.998   5.632  16.591  0.00  0.00    +0.000 OA
ENDBRANCH  25  26
ENDBRANCH  23  25
ENDBRANCH   4  21
TORSDOF 5
ENDMDL
MODEL 2
REMARK VINA RESULT:      -6.8      3.098      8.734
REMARK  Name = 
REMARK  6 active torsions:
REMARK  status: ('A' for Active; 'I' for Inactive)
REMARK    1  A    between atoms: C_1  and  C_2
REMARK    2  A    between atoms: C_6  and  C_7
REMARK    3  A    between atoms: C_12  and  N_13
REMARK    4  A    between atoms: C_16  and  C_17
REMARK    5  A    between atoms: N_19  and  C_20
REMARK    6  A    between atoms: C_20  and  C_21
REMARK                            x       y       z     vdW  Elec       q    Type
REMARK                         _______ _______ _______ _____ _____    ______ ____
ROOT
ATOM      1  N   UNL     1       1.569   9.765  19.402  0.00  0.00    +0.000 NA
ATOM      2  C   UNL     1       1.723  10.712  18.278  0.00  0.00    +0.000 C 
ATOM      3  C   UNL     1       2.041  12.146  18.710  0.00  0.00    +0.000 C 
ATOM      4  C   UNL     1       1.022  12.668  19.722  0.00  0.00    +0.000 C 
ATOM      5  C   UNL     1       1.036  11.712  20.914  0.00  0.00    +0.000 C 
ATOM      6  C   UNL     1       0.733  10.271  20.490  0.00  0.00    +0.000 C 
ENDROOT
BRANCH   1  12
ATOM      7  C   UNL     1       4.720   5.685  18.717  0.00  0.00    +0.000 C 
ATOM      8  O   UNL     1       4.990   5.116  19.781  0.00  0.00    +0.000 OA
ATOM      9  N   UNL     1       3.553   6.491  18.671  0.00  0.00    +0.000 N 
ATOM     10  C   UNL     1       2.882   6.697  19.956  0.00  0.00    +0.000 C 
ATOM     11  C   UNL     1       1.449   7.194  19.835  0.00  0.00    +0.000 C 
ATOM     12  C   UNL     1       1.261   8.399  18.895  0.00  0.00    +0.000 C 
ATOM     13  C   UNL     1       1.893   8.033  17.546  0.00  0.00    +0.000 C 
ATOM     14  C   UNL     1       3.303   7.467  17.629  0.00  0.00    +0.000 C 
BRANCH   7  20
ATOM     15  C   UNL     1       7.537   7.191  17.520  0.00  0.00    +0.000 C 
ATOM     16  C   UNL     1       6.731   6.041  17.005  0.00  0.00    +0.000 A 
ATOM     17  C   UNL     1       7.181   5.336  15.830  0.00  0.00    +0.000 A 
ATOM     18  C   UNL     1       6.420   4.238  15.527  0.00  0.00    +0.000 A 
ATOM     19  S   UNL     1       5.109   4.075  16.590  0.00  0.00    +0.000 S 
ATOM     20  C   UNL     1       5.571   5.465  17.532  0.00  0.00    +0.000 A 
ENDBRANCH   7  20
ENDBRANCH   1  12
BRANCH   4  21
ATOM     21  C   UNL     1      -0.365  12.832  19.092  0.00  0.00    +0.000 C 
ATOM     22  O   UNL     1      -0.578  13.527  18.101  0.00  0.00    +0.000 OA
ATOM     23  N   UNL     1      -1.378  12.177  19.755  0.00  0.00    +0.000 N 
ATOM     24  H   UNL     1      -1.221  11.777  20.670  0.00  0.00    +0.000 HD
BRANCH  23  25
ATOM     25  C   UNL     1      -2.758  12.199  19.288  0.00  0.00    +0.000 C 
BRANCH  25  26
ATOM     26  C   UNL     1      -3.052  11.077  18.292  0.00  0.00    +0.000 C 
ATOM     27  C   UNL     1      -1.860  10.203  17.934  0.00  0.00    +0.000 C 
ATOM     28  C   UNL     1      -2.224   9.734  16.547  0.00  0.00    +0.000 C 
ATOM     29  C   UNL     1      -2.903  10.954  15.966  0.00  0.00    +0.000 C 
ATOM     30  O   UNL     1      -3.533  11.644  17.053  0.00  0.00    +0.000 OA
ENDBRANCH  25  26
ENDBRANCH  23  25
ENDBRANCH   4  21
TORSDOF 5
ENDMDL
MODEL 3
REMARK VINA RESULT:      -6.8      3.456      5.256
REMARK  Name = 
REMARK  6 active torsions:
REMARK  status: ('A' for Active; 'I' for Inactive)
REMARK    1  A    between atoms: C_1  and  C_2
REMARK    2  A    between atoms: C_6  and  C_7
REMARK    3  A    between atoms: C_12  and  N_13
REMARK    4  A    between atoms: C_16  and  C_17
REMARK    5  A    between atoms: N_19  and  C_20
REMARK    6  A    between atoms: C_20  and  C_21
REMARK                            x       y       z     vdW  Elec       q    Type
REMARK                         _______ _______ _______ _____ _____    ______ ____
ROOT
ATOM      1  N   UNL     1       5.235   4.471  18.711  0.00  0.00    +0.000 NA
ATOM      2  C   UNL     1       5.768   4.562  17.336  0.00  0.00    +0.000 C 
ATOM      3  C   UNL     1       7.297   4.594  17.261  0.00  0.00    +0.000 C 
ATOM      4  C   UNL     1       7.881   5.698  18.142  0.00  0.00    +0.000 C 
ATOM      5  C   UNL     1       7.399   5.441  19.569  0.00  0.00    +0.000 C 
ATOM      6  C   UNL     1       5.870   5.393  19.652  0.00  0.00    +0.000 C 
ENDROOT
BRANCH   1  12
ATOM      7  C   UNL     1       1.851   8.415  18.534  0.00  0.00    +0.000 C 
ATOM      8  O   UNL     1       1.753   8.900  17.401  0.00  0.00    +0.000 OA
ATOM      9  N   UNL     1       2.352   7.093  18.651  0.00  0.00    +0.000 N 
ATOM     10  C   UNL     1       2.865   6.504  17.411  0.00  0.00    +0.000 C 
ATOM     11  C   UNL     1       3.006   4.990  17.456  0.00  0.00    +0.000 C 
ATOM     12  C   UNL     1       3.746   4.447  18.692  0.00  0.00    +0.000 C 
ATOM     13  C   UNL     1       3.057   5.030  19.933  0.00  0.00    +0.000 C 
ATOM     14  C   UNL     1       2.835   6.534  19.898  0.00  0.00    +0.000 C 
BRANCH   7  20
ATOM     15  C   UNL     1       1.217  11.723  19.074  0.00  0.00    +0.000 C 
ATOM     16  C   UNL     1       1.111  10.532  19.973  0.00  0.00    +0.000 A 
ATOM     17  C   UNL     1       0.598  10.703  21.310  0.00  0.00    +0.000 A 
ATOM     18  C   UNL     1       0.446   9.525  21.992  0.00  0.00    +0.000 A 
ATOM     19  S   UNL     1       0.988   8.202  21.080  0.00  0.00    +0.000 S 
ATOM     20  C   UNL     1       1.394   9.189  19.704  0.00  0.00    +0.000 A 
ENDBRANCH   7  20
ENDBRANCH   1  12
BRANCH   4  21
ATOM     21  C   UNL     1       7.514   7.090  17.618  0.00  0.00    +0.000 C 
ATOM     22  O   UNL     1       6.683   7.281  16.733  0.00  0.00    +0.000 OA
ATOM     23  N   UNL     1       8.228   8.122  18.183  0.00  0.00    +0.000 N 
ATOM     24  H   UNL     1       9.037   7.935  18.760  0.00  0.00    +0.000 HD
BRANCH  23  25
ATOM     25  C   UNL     1       7.998   9.517  17.827  0.00  0.00    +0.000 C 
BRANCH  25  26
ATOM     26  C   UNL     1       9.152  10.424  18.257  0.00  0.00    +0.000 C 
ATOM     27  C   UNL     1       9.351  10.547  19.760  0.00  0.00    +0.000 C 
ATOM     28  C   UNL     1       9.978  11.914  19.879  0.00  0.00    +0.000 C 
ATOM     29  C   UNL     1       9.257  12.691  18.801  0.00  0.00    +0.000 C 
ATOM     30  O   UNL     1       8.926  11.762  17.761  0.00  0.00    +0.000 OA
ENDBRANCH  25  26
ENDBRANCH  23  25
ENDBRANCH   4  21
TORSDOF 5
ENDMDL
MODEL 4
REMARK VINA RESULT:      -6.8      2.655      4.196
REMARK  Name = 
REMARK  6 active torsions:
REMARK  status: ('A' for Active; 'I' for Inactive)
REMARK    1  A    between atoms: C_1  and  C_2
REMARK    2  A    between atoms: C_6  and  C_7
REMARK    3  A    between atoms: C_12  and  N_13
REMARK    4  A    between atoms: C_16  and  C_17
REMARK    5  A    between atoms: N_19  and  C_20
REMARK    6  A    between atoms: C_20  and  C_21
REMARK                            x       y       z     vdW  Elec       q    Type
REMARK                         _______ _______ _______ _____ _____    ______ ____
ROOT
ATOM      1  N   UNL     1       4.632   6.566  18.718  0.00  0.00    +0.000 NA
ATOM      2  C   UNL     1       5.276   5.359  19.275  0.00  0.00    +0.000 C 
ATOM      3  C   UNL     1       6.797   5.472  19.412  0.00  0.00    +0.000 C 
ATOM      4  C   UNL     1       7.453   5.875  18.092  0.00  0.00    +0.000 C 
ATOM      5  C   UNL     1       6.832   7.205  17.665  0.00  0.00    +0.000 C 
ATOM      6  C   UNL     1       5.309   7.107  17.540  0.00  0.00    +0.000 C 
ENDROOT
BRANCH   1  12
ATOM      7  C   UNL     1       0.770   9.951  19.535  0.00  0.00    +0.000 C 
ATOM      8  O   UNL     1       0.625  10.736  18.590  0.00  0.00    +0.000 OA
ATOM      9  N   UNL     1       1.435   8.724  19.284  0.00  0.00    +0.000 N 
ATOM     10  C   UNL     1       2.036   8.596  17.954  0.00  0.00    +0.000 C 
ATOM     11  C   UNL     1       2.371   7.165  17.559  0.00  0.00    +0.000 C 
ATOM     12  C   UNL     1       3.158   6.371  18.618  0.00  0.00    +0.000 C 
ATOM     13  C   UNL     1       2.384   6.472  19.938  0.00  0.00    +0.000 C 
ATOM     14  C   UNL     1       1.970   7.881  20.335  0.00  0.00    +0.000 C 
BRANCH   7  20
ATOM     15  C   UNL     1       0.142  12.879  21.167  0.00  0.00    +0.000 C 
ATOM     16  C   UNL     1      -0.084  11.455  21.562  0.00  0.00    +0.000 A 
ATOM     17  C   UNL     1      -0.738  11.167  22.815  0.00  0.00    +0.000 A 
ATOM     18  C   UNL     1      -0.986   9.833  23.008  0.00  0.00    +0.000 A 
ATOM     19  S   UNL     1      -0.372   8.894  21.737  0.00  0.00    +0.000 S 
ATOM     20  C   UNL     1       0.201  10.282  20.856  0.00  0.00    +0.000 A 
ENDBRANCH   7  20
ENDBRANCH   1  12
BRANCH   4  21
ATOM     21  C   UNL     1       7.315   4.775  17.034  0.00  0.00    +0.000 C 
ATOM     22  O   UNL     1       8.202   3.962  16.787  0.00  0.00    +0.000 OA
ATOM     23  N   UNL     1       6.129   4.796  16.336  0.00  0.00    +0.000 N 
ATOM     24  H   UNL     1       5.499   5.582  16.412  0.00  0.00    +0.000 HD
BRANCH  23  25
ATOM     25  C   UNL     1       5.812   3.811  15.309  0.00  0.00    +0.000 C 
BRANCH  25  26
ATOM     26  C   UNL     1       5.959   4.379  13.896  0.00  0.00    +0.000 C 
ATOM     27  C   UNL     1       6.220   3.346  12.809  0.00  0.00    +0.000 C 
ATOM     28  C   UNL     1       6.979   4.156  11.787  0.00  0.00    +0.000 C 
ATOM     29  C   UNL     1       7.815   5.067  12.658  0.00  0.00    +0.000 C 
ATOM     30  O   UNL     1       7.069   5.303  13.860  0.00  0.00    +0.000 OA
ENDBRANCH  25  26
ENDBRANCH  23  25
ENDBRANCH   4  21
TORSDOF 5
ENDMDL
MODEL 5
REMARK VINA RESULT:      -6.7      0.774      1.197
REMARK  Name = 
REMARK  6 active torsions:
REMARK  status: ('A' for Active; 'I' for Inactive)
REMARK    1  A    between atoms: C_1  and  C_2
REMARK    2  A    between atoms: C_6  and  C_7
REMARK    3  A    between atoms: C_12  and  N_13
REMARK    4  A    between atoms: C_16  and  C_17
REMARK    5  A    between atoms: N_19  and  C_20
REMARK    6  A    between atoms: C_20  and  C_21
REMARK                            x       y       z     vdW  Elec       q    Type
REMARK                         _______ _______ _______ _____ _____    ______ ____
ROOT
ATOM      1  N   UNL     1       1.812   5.522  19.397  0.00  0.00    +0.000 NA
ATOM      2  C   UNL     1       1.973   5.325  17.942  0.00  0.00    +0.000 C 
ATOM      3  C   UNL     1       1.290   4.064  17.404  0.00  0.00    +0.000 C 
ATOM      4  C   UNL     1       1.729   2.817  18.170  0.00  0.00    +0.000 C 
ATOM      5  C   UNL     1       1.392   3.047  19.643  0.00  0.00    +0.000 C 
ATOM      6  C   UNL     1       2.058   4.315  20.187  0.00  0.00    +0.000 C 
ENDROOT
BRANCH   1  12
ATOM      7  C   UNL     1      -0.164  10.187  20.572  0.00  0.00    +0.000 C 
ATOM      8  O   UNL     1      -0.686  10.207  21.693  0.00  0.00    +0.000 OA
ATOM      9  N   UNL     1       0.792   9.174  20.302  0.00  0.00    +0.000 N 
ATOM     10  C   UNL     1       0.929   8.148  21.339  0.00  0.00    +0.000 C 
ATOM     11  C   UNL     1       2.209   7.331  21.237  0.00  0.00    +0.000 C 
ATOM     12  C   UNL     1       2.504   6.766  19.835  0.00  0.00    +0.000 C 
ATOM     13  C   UNL     1       2.452   7.938  18.847  0.00  0.00    +0.000 C 
ATOM     14  C   UNL     1       1.219   8.822  18.962  0.00  0.00    +0.000 C 
BRANCH   7  20
ATOM     15  C   UNL     1       1.259  13.167  19.723  0.00  0.00    +0.000 C 
ATOM     16  C   UNL     1       0.052  12.458  19.197  0.00  0.00    +0.000 A 
ATOM     17  C   UNL     1      -0.671  13.029  18.087  0.00  0.00    +0.000 A 
ATOM     18  C   UNL     1      -1.686  12.231  17.629  0.00  0.00    +0.000 A 
ATOM     19  S   UNL     1      -1.846  10.825  18.564  0.00  0.00    +0.000 S 
ATOM     20  C   UNL     1      -0.499  11.234  19.588  0.00  0.00    +0.000 A 
ENDBRANCH   7  20
ENDBRANCH   1  12
BRANCH   4  21
ATOM     21  C   UNL     1       3.209   2.499  17.930  0.00  0.00    +0.000 C 
ATOM     22  O   UNL     1       3.791   1.556  18.460  0.00  0.00    +0.000 OA
ATOM     23  N   UNL     1       3.860   3.388  17.105  0.00  0.00    +0.000 N 
ATOM     24  H   UNL     1       3.423   4.260  16.838  0.00  0.00    +0.000 HD
BRANCH  23  25
ATOM     25  C   UNL     1       5.264   3.232  16.744  0.00  0.00    +0.000 C 
BRANCH  25  26
ATOM     26  C   UNL     1       5.925   4.566  16.393  0.00  0.00    +0.000 C 
ATOM     27  C   UNL     1       7.168   4.904  17.203  0.00  0.00    +0.000 C 
ATOM     28  C   UNL     1       7.157   6.412  17.175  0.00  0.00    +0.000 C 
ATOM     29  C   UNL     1       5.679   6.722  17.254  0.00  0.00    +0.000 C 
ATOM     30  O   UNL     1       4.986   5.643  16.613  0.00  0.00    +0.000 OA
ENDBRANCH  25  26
ENDBRANCH  23  25
ENDBRANCH   4  21
TORSDOF 5
ENDMDL
MODEL 6
REMARK VINA RESULT:      -6.7      0.812      1.092
REMARK  Name = 
REMARK  6 active torsions:
REMARK  status: ('A' for Active; 'I' for Inactive)
REMARK    1  A    between atoms: C_1  and  C_2
REMARK    2  A    between atoms: C_6  and  C_7
REMARK    3  A    between atoms: C_12  and  N_13
REMARK    4  A    between atoms: C_16  and  C_17
REMARK    5  A    between atoms: N_19  and  C_20
REMARK    6  A    between atoms: C_20  and  C_21
REMARK                            x       y       z     vdW  Elec       q    Type
REMARK                         _______ _______ _______ _____ _____    ______ ____
ROOT
ATOM      1  N   UNL     1       1.690   5.586  19.508  0.00  0.00    +0.000 NA
ATOM      2  C   UNL     1       1.969   5.360  18.075  0.00  0.00    +0.000 C 
ATOM      3  C   UNL     1       1.285   4.120  17.495  0.00  0.00    +0.000 C 
ATOM      4  C   UNL     1       1.603   2.868  18.312  0.00  0.00    +0.000 C 
ATOM      5  C   UNL     1       1.148   3.135  19.746  0.00  0.00    +0.000 C 
ATOM      6  C   UNL     1       1.815   4.383  20.331  0.00  0.00    +0.000 C 
ENDROOT
BRANCH   1  12
ATOM      7  C   UNL     1      -0.201  10.325  20.518  0.00  0.00    +0.000 C 
ATOM      8  O   UNL     1      -0.801  10.371  21.598  0.00  0.00    +0.000 OA
ATOM      9  N   UNL     1       0.736   9.277  20.322  0.00  0.00    +0.000 N 
ATOM     10  C   UNL     1       0.762   8.254  21.370  0.00  0.00    +0.000 C 
ATOM     11  C   UNL     1       2.016   7.393  21.365  0.00  0.00    +0.000 C 
ATOM     12  C   UNL     1       2.392   6.809  19.990  0.00  0.00    +0.000 C 
ATOM     13  C   UNL     1       2.452   7.975  18.996  0.00  0.00    +0.000 C 
ATOM     14  C   UNL     1       1.247   8.902  19.017  0.00  0.00    +0.000 C 
BRANCH   7  20
ATOM     15  C   UNL     1      -2.051  10.492  17.658  0.00  0.00    +0.000 C 
ATOM     16  C   UNL     1      -1.177  11.499  18.334  0.00  0.00    +0.000 A 
ATOM     17  C   UNL     1      -1.084  12.831  17.788  0.00  0.00    +0.000 A 
ATOM     18  C   UNL     1      -0.342  13.686  18.559  0.00  0.00    +0.000 A 
ATOM     19  S   UNL     1       0.323  12.898  19.904  0.00  0.00    +0.000 S 
ATOM     20  C   UNL     1      -0.427  11.377  19.508  0.00  0.00    +0.000 A 
ENDBRANCH   7  20
ENDBRANCH   1  12
BRANCH   4  21
ATOM     21  C   UNL     1       3.084   2.487  18.206  0.00  0.00    +0.000 C 
ATOM     22  O   UNL     1       3.487   1.328  18.253  0.00  0.00    +0.000 OA
ATOM     23  N   UNL     1       3.945   3.556  18.106  0.00  0.00    +0.000 N 
ATOM     24  H   UNL     1       3.619   4.499  18.267  0.00  0.00    +0.000 HD
BRANCH  23  25
ATOM     25  C   UNL     1       5.387   3.386  17.972  0.00  0.00    +0.000 C 
BRANCH  25  26
ATOM     26  C   UNL     1       5.975   4.266  16.868  0.00  0.00    +0.000 C 
ATOM     27  C   UNL     1       5.196   5.539  16.573  0.00  0.00    +0.000 C 
ATOM     28  C   UNL     1       5.538   5.783  15.124  0.00  0.00    +0.000 C 
ATOM     29  C   UNL     1       5.593   4.378  14.568  0.00  0.00    +0.000 C 
ATOM     30  O   UNL     1       6.028   3.520  15.632  0.00  0.00    +0.000 OA
ENDBRANCH  25  26
ENDBRANCH  23  25
ENDBRANCH   4  21
TORSDOF 5
ENDMDL
MODEL 7
REMARK VINA RESULT:      -6.7      3.334      5.191
REMARK  Name = 
REMARK  6 active torsions:
REMARK  status: ('A' for Active; 'I' for Inactive)
REMARK    1  A    between atoms: C_1  and  C_2
REMARK    2  A    between atoms: C_6  and  C_7
REMARK    3  A    between atoms: C_12  and  N_13
REMARK    4  A    between atoms: C_16  and  C_17
REMARK    5  A    between atoms: N_19  and  C_20
REMARK    6  A    between atoms: C_20  and  C_21
REMARK                            x       y       z     vdW  Elec       q    Type
REMARK                         _______ _______ _______ _____ _____    ______ ____
ROOT
ATOM      1  N   UNL     1       5.170   4.524  18.757  0.00  0.00    +0.000 NA
ATOM      2  C   UNL     1       5.728   4.559  17.390  0.00  0.00    +0.000 C 
ATOM      3  C   UNL     1       7.258   4.568  17.340  0.00  0.00    +0.000 C 
ATOM      4  C   UNL     1       7.841   5.696  18.191  0.00  0.00    +0.000 C 
ATOM      5  C   UNL     1       7.332   5.497  19.617  0.00  0.00    +0.000 C 
ATOM      6  C   UNL     1       5.802   5.471  19.676  0.00  0.00    +0.000 C 
ENDROOT
BRANCH   1  12
ATOM      7  C   UNL     1       1.844   8.500  18.341  0.00  0.00    +0.000 C 
ATOM      8  O   UNL     1       1.772   8.933  17.185  0.00  0.00    +0.000 OA
ATOM      9  N   UNL     1       2.325   7.178  18.527  0.00  0.00    +0.000 N 
ATOM     10  C   UNL     1       2.850   6.526  17.325  0.00  0.00    +0.000 C 
ATOM     11  C   UNL     1       2.970   5.014  17.441  0.00  0.00    +0.000 C 
ATOM     12  C   UNL     1       3.681   4.519  18.714  0.00  0.00    +0.000 C 
ATOM     13  C   UNL     1       2.980   5.167  19.914  0.00  0.00    +0.000 C 
ATOM     14  C   UNL     1       2.779   6.670  19.807  0.00  0.00    +0.000 C 
BRANCH   7  20
ATOM     15  C   UNL     1       0.676   7.801  21.469  0.00  0.00    +0.000 C 
ATOM     16  C   UNL     1       0.904   9.099  20.761  0.00  0.00    +0.000 A 
ATOM     17  C   UNL     1       0.676  10.335  21.469  0.00  0.00    +0.000 A 
ATOM     18  C   UNL     1       1.025  11.447  20.750  0.00  0.00    +0.000 A 
ATOM     19  S   UNL     1       1.555  11.043  19.191  0.00  0.00    +0.000 S 
ATOM     20  C   UNL     1       1.378   9.332  19.467  0.00  0.00    +0.000 A 
ENDBRANCH   7  20
ENDBRANCH   1  12
BRANCH   4  21
ATOM     21  C   UNL     1       7.502   7.073  17.612  0.00  0.00    +0.000 C 
ATOM     22  O   UNL     1       6.718   7.238  16.681  0.00  0.00    +0.000 OA
ATOM     23  N   UNL     1       8.188   8.121  18.184  0.00  0.00    +0.000 N 
ATOM     24  H   UNL     1       8.966   7.950  18.805  0.00  0.00    +0.000 HD
BRANCH  23  25
ATOM     25  C   UNL     1       7.977   9.505  17.778  0.00  0.00    +0.000 C 
BRANCH  25  26
ATOM     26  C   UNL     1       9.119  10.420  18.220  0.00  0.00    +0.000 C 
ATOM     27  C   UNL     1       9.400  10.426  19.716  0.00  0.00    +0.000 C 
ATOM     28  C   UNL     1       9.982  11.803  19.917  0.00  0.00    +0.000 C 
ATOM     29  C   UNL     1       9.172  12.637  18.949  0.00  0.00    +0.000 C 
ATOM     30  O   UNL     1       8.816  11.784  17.853  0.00  0.00    +0.000 OA
ENDBRANCH  25  26
ENDBRANCH  23  25
ENDBRANCH   4  21
TORSDOF 5
ENDMDL
MODEL 8
REMARK VINA RESULT:      -6.7      2.947      8.614
REMARK  Name = 
REMARK  6 active torsions:
REMARK  status: ('A' for Active; 'I' for Inactive)
REMARK    1  A    between atoms: C_1  and  C_2
REMARK    2  A    between atoms: C_6  and  C_7
REMARK    3  A    between atoms: C_12  and  N_13
REMARK    4  A    between atoms: C_16  and  C_17
REMARK    5  A    between atoms: N_19  and  C_20
REMARK    6  A    between atoms: C_20  and  C_21
REMARK                            x       y       z     vdW  Elec       q    Type
REMARK                         _______ _______ _______ _____ _____    ______ ____
ROOT
ATOM      1  N   UNL     1       1.583   8.825  19.926  0.00  0.00    +0.000 NA
ATOM      2  C   UNL     1       1.221   9.882  18.960  0.00  0.00    +0.000 C 
ATOM      3  C   UNL     1       1.404  11.305  19.494  0.00  0.00    +0.000 C 
ATOM      4  C   UNL     1       0.669  11.507  20.819  0.00  0.00    +0.000 C 
ATOM      5  C   UNL     1       1.211  10.469  21.801  0.00  0.00    +0.000 C 
ATOM      6  C   UNL     1       1.046   9.043  21.269  0.00  0.00    +0.000 C 
ENDROOT
BRANCH   1  12
ATOM      7  C   UNL     1       5.070   5.204  18.595  0.00  0.00    +0.000 C 
ATOM      8  O   UNL     1       5.504   4.586  19.574  0.00  0.00    +0.000 OA
ATOM      9  N   UNL     1       3.825   5.870  18.726  0.00  0.00    +0.000 N 
ATOM     10  C   UNL     1       3.266   5.895  20.080  0.00  0.00    +0.000 C 
ATOM     11  C   UNL     1       1.783   6.230  20.133  0.00  0.00    +0.000 C 
ATOM     12  C   UNL     1       1.374   7.477  19.327  0.00  0.00    +0.000 C 
ATOM     13  C   UNL     1       1.906   7.295  17.899  0.00  0.00    +0.000 C 
ATOM     14  C   UNL     1       3.369   6.892  17.803  0.00  0.00    +0.000 C 
BRANCH   7  20
ATOM     15  C   UNL     1       7.634   7.062  17.326  0.00  0.00    +0.000 C 
ATOM     16  C   UNL     1       6.874   5.904  16.763  0.00  0.00    +0.000 A 
ATOM     17  C   UNL     1       7.263   5.362  15.483  0.00  0.00    +0.000 A 
ATOM     18  C   UNL     1       6.563   4.238  15.131  0.00  0.00    +0.000 A 
ATOM     19  S   UNL     1       5.377   3.855  16.280  0.00  0.00    +0.000 S 
ATOM     20  C   UNL     1       5.818   5.178  17.323  0.00  0.00    +0.000 A 
ENDBRANCH   7  20
ENDBRANCH   1  12
BRANCH   4  21
ATOM     21  C   UNL     1      -0.851  11.435  20.637  0.00  0.00    +0.000 C 
ATOM     22  O   UNL     1      -1.612  10.989  21.492  0.00  0.00    +0.000 OA
ATOM     23  N   UNL     1      -1.302  11.865  19.410  0.00  0.00    +0.000 N 
ATOM     24  H   UNL     1      -0.655  12.041  18.654  0.00  0.00    +0.000 HD
BRANCH  23  25
ATOM     25  C   UNL     1      -2.719  11.892  19.066  0.00  0.00    +0.000 C 
BRANCH  25  26
ATOM     26  C   UNL     1      -3.078  10.851  18.005  0.00  0.00    +0.000 C 
ATOM     27  C   UNL     1      -1.892  10.228  17.284  0.00  0.00    +0.000 C 
ATOM     28  C   UNL     1      -2.497   9.859  15.952  0.00  0.00    +0.000 C 
ATOM     29  C   UNL     1      -3.450  11.008  15.705  0.00  0.00    +0.000 C 
ATOM     30  O   UNL     1      -3.902  11.463  16.987  0.00  0.00    +0.000 OA
ENDBRANCH  25  26
ENDBRANCH  23  25
ENDBRANCH   4  21
TORSDOF 5
ENDMDL
MODEL 9
REMARK VINA RESULT:      -6.6      2.658      4.429
REMARK  Name = 
REMARK  6 active torsions:
REMARK  status: ('A' for Active; 'I' for Inactive)
REMARK    1  A    between atoms: C_1  and  C_2
REMARK    2  A    between atoms: C_6  and  C_7
REMARK    3  A    between atoms: C_12  and  N_13
REMARK    4  A    between atoms: C_16  and  C_17
REMARK    5  A    between atoms: N_19  and  C_20
REMARK    6  A    between atoms: C_20  and  C_21
REMARK                            x       y       z     vdW  Elec       q    Type
REMARK                         _______ _______ _______ _____ _____    ______ ____
ROOT
ATOM      1  N   UNL     1       4.786   5.587  18.724  0.00  0.00    +0.000 NA
ATOM      2  C   UNL     1       5.366   4.393  18.077  0.00  0.00    +0.000 C 
ATOM      3  C   UNL     1       6.875   4.488  17.832  0.00  0.00    +0.000 C 
ATOM      4  C   UNL     1       7.241   5.754  17.060  0.00  0.00    +0.000 C 
ATOM      5  C   UNL     1       6.733   6.944  17.872  0.00  0.00    +0.000 C 
ATOM      6  C   UNL     1       5.227   6.852  18.135  0.00  0.00    +0.000 C 
ENDROOT
BRANCH   1  12
ATOM      7  C   UNL     1       0.987   9.139  18.737  0.00  0.00    +0.000 C 
ATOM      8  O   UNL     1       0.683   9.506  17.596  0.00  0.00    +0.000 OA
ATOM      9  N   UNL     1       1.645   7.890  18.881  0.00  0.00    +0.000 N 
ATOM     10  C   UNL     1       2.048   7.245  17.629  0.00  0.00    +0.000 C 
ATOM     11  C   UNL     1       2.363   5.763  17.768  0.00  0.00    +0.000 C 
ATOM     12  C   UNL     1       3.319   5.412  18.922  0.00  0.00    +0.000 C 
ATOM     13  C   UNL     1       2.744   6.033  20.201  0.00  0.00    +0.000 C 
ATOM     14  C   UNL     1       2.351   7.498  20.085  0.00  0.00    +0.000 C 
BRANCH   7  20
ATOM     15  C   UNL     1      -0.499   8.463  21.732  0.00  0.00    +0.000 C 
ATOM     16  C   UNL     1       0.013   9.739  21.143  0.00  0.00    +0.000 A 
ATOM     17  C   UNL     1      -0.029  10.946  21.933  0.00  0.00    +0.000 A 
ATOM     18  C   UNL     1       0.568  12.018  21.325  0.00  0.00    +0.000 A 
ATOM     19  S   UNL     1       1.118  11.626  19.769  0.00  0.00    +0.000 S 
ATOM     20  C   UNL     1       0.609   9.966  19.898  0.00  0.00    +0.000 A 
ENDBRANCH   7  20
ENDBRANCH   1  12
BRANCH   4  21
ATOM     21  C   UNL     1       6.695   5.719  15.628  0.00  0.00    +0.000 C 
ATOM     22  O   UNL     1       5.637   6.250  15.297  0.00  0.00    +0.000 OA
ATOM     23  N   UNL     1       7.459   4.997  14.740  0.00  0.00    +0.000 N 
ATOM     24  H   UNL     1       8.212   4.408  15.067  0.00  0.00    +0.000 HD
BRANCH  23  25
ATOM     25  C   UNL     1       7.108   4.874  13.330  0.00  0.00    +0.000 C 
BRANCH  25  26
ATOM     26  C   UNL     1       6.320   3.596  13.038  0.00  0.00    +0.000 C 
ATOM     27  C   UNL     1       6.795   2.806  11.828  0.00  0.00    +0.000 C 
ATOM     28  C   UNL     1       5.529   2.110  11.395  0.00  0.00    +0.000 C 
ATOM     29  C   UNL     1       4.476   3.158  11.675  0.00  0.00    +0.000 C 
ATOM     30  O   UNL     1       4.935   3.928  12.794  0.00  0.00    +0.000 OA
ENDBRANCH  25  26
ENDBRANCH  23  25
ENDBRANCH   4  21
TORSDOF 5
ENDMDL
