MODEL 1
REMARK VINA RESULT:      -6.2      0.000      0.000
REMARK  Name = 
REMARK  1 active torsions:
REMARK  status: ('A' for Active; 'I' for Inactive)
REMARK    1  A    between atoms: C_10  and  O_11
REMARK                            x       y       z     vdW  Elec       q    Type
REMARK                         _______ _______ _______ _____ _____    ______ ____
ROOT
ATOM      1  O   UNL     1       2.414   4.864  20.686  0.00  0.00    +0.000 OA
ATOM      2  C   UNL     1       3.072   4.821  19.643  0.00  0.00    +0.000 C 
ATOM      3  C   UNL     1       2.408   4.602  18.303  0.00  0.00    +0.000 C 
ATOM      4  C   UNL     1       3.287   3.910  17.274  0.00  0.00    +0.000 C 
ATOM      5  C   UNL     1       4.655   4.581  17.259  0.00  0.00    +0.000 C 
ATOM      6  C   UNL     1       5.613   3.935  16.252  0.00  0.00    +0.000 C 
ATOM      7  C   UNL     1       6.978   4.624  16.282  0.00  0.00    +0.000 C 
ATOM      8  C   UNL     1       7.577   4.692  17.686  0.00  0.00    +0.000 C 
ATOM      9  C   UNL     1       6.587   5.246  18.713  0.00  0.00    +0.000 C 
ATOM     10  C   UNL     1       5.227   4.532  18.679  0.00  0.00    +0.000 C 
ATOM     11  O   UNL     1       4.373   5.195  19.610  0.00  0.00    +0.000 OA
ENDROOT
BRANCH  10  12
ATOM     12  O   UNL     1       5.363   3.174  19.089  0.00  0.00    +0.000 OA
ATOM     13  H   UNL     1       4.525   2.867  19.471  0.00  0.00    +0.000 HD
ENDBRANCH  10  12
TORSDOF 1
ENDMDL
MODEL 2
REMARK VINA RESULT:      -6.1      1.600      4.144
REMARK  Name = 
REMARK  1 active torsions:
REMARK  status: ('A' for Active; 'I' for Inactive)
REMARK    1  A    between atoms: C_10  and  O_11
REMARK                            x       y       z     vdW  Elec       q    Type
REMARK                         _______ _______ _______ _____ _____    ______ ____
ROOT
ATOM      1  O   UNL     1       6.862   4.701  18.892  0.00  0.00    +0.000 OA
ATOM      2  C   UNL     1       5.691   4.367  18.692  0.00  0.00    +0.000 C 
ATOM      3  C   UNL     1       5.055   4.507  17.327  0.00  0.00    +0.000 C 
ATOM      4  C   UNL     1       3.552   4.728  17.357  0.00  0.00    +0.000 C 
ATOM      5  C   UNL     1       2.920   3.716  18.305  0.00  0.00    +0.000 C 
ATOM      6  C   UNL     1       1.399   3.874  18.404  0.00  0.00    +0.000 C 
ATOM      7  C   UNL     1       0.809   2.854  19.378  0.00  0.00    +0.000 C 
ATOM      8  C   UNL     1       1.482   2.886  20.749  0.00  0.00    +0.000 C 
ATOM      9  C   UNL     1       3.008   2.825  20.648  0.00  0.00    +0.000 C 
ATOM     10  C   UNL     1       3.584   3.868  19.677  0.00  0.00    +0.000 C 
ATOM     11  O   UNL     1       4.993   3.650  19.604  0.00  0.00    +0.000 OA
ENDROOT
BRANCH  10  12
ATOM     12  O   UNL     1       3.363   5.188  20.167  0.00  0.00    +0.000 OA
ATOM     13  H   UNL     1       3.044   5.141  21.083  0.00  0.00    +0.000 HD
ENDBRANCH  10  12
TORSDOF 1
ENDMDL
MODEL 3
REMARK VINA RESULT:      -6.0      1.674      2.094
REMARK  Name = 
REMARK  1 active torsions:
REMARK  status: ('A' for Active; 'I' for Inactive)
REMARK    1  A    between atoms: C_10  and  O_11
REMARK                            x       y       z     vdW  Elec       q    Type
REMARK                         _______ _______ _______ _____ _____    ______ ____
ROOT
ATOM      1  O   UNL     1       2.204   2.453  21.922  0.00  0.00    +0.000 OA
ATOM      2  C   UNL     1       2.466   2.828  20.776  0.00  0.00    +0.000 C 
ATOM      3  C   UNL     1       1.755   2.246  19.576  0.00  0.00    +0.000 C 
ATOM      4  C   UNL     1       2.579   2.247  18.299  0.00  0.00    +0.000 C 
ATOM      5  C   UNL     1       3.213   3.620  18.119  0.00  0.00    +0.000 C 
ATOM      6  C   UNL     1       4.075   3.707  16.854  0.00  0.00    +0.000 C 
ATOM      7  C   UNL     1       4.708   5.093  16.721  0.00  0.00    +0.000 C 
ATOM      8  C   UNL     1       5.476   5.516  17.973  0.00  0.00    +0.000 C 
ATOM      9  C   UNL     1       4.650   5.338  19.249  0.00  0.00    +0.000 C 
ATOM     10  C   UNL     1       4.035   3.935  19.372  0.00  0.00    +0.000 C 
ATOM     11  O   UNL     1       3.224   3.926  20.546  0.00  0.00    +0.000 OA
ENDROOT
BRANCH  10  12
ATOM     12  O   UNL     1       5.055   2.952  19.530  0.00  0.00    +0.000 OA
ATOM     13  H   UNL     1       5.798   3.335  20.025  0.00  0.00    +0.000 HD
ENDBRANCH  10  12
TORSDOF 1
ENDMDL
MODEL 4
REMARK VINA RESULT:      -6.0      1.698      2.100
REMARK  Name = 
REMARK  1 active torsions:
REMARK  status: ('A' for Active; 'I' for Inactive)
REMARK    1  A    between atoms: C_10  and  O_11
REMARK                            x       y       z     vdW  Elec       q    Type
REMARK                         _______ _______ _______ _____ _____    ______ ____
ROOT
ATOM      1  O   UNL     1       4.166   2.178  19.528  0.00  0.00    +0.000 OA
ATOM      2  C   UNL     1       4.420   3.277  19.029  0.00  0.00    +0.000 C 
ATOM      3  C   UNL     1       3.420   3.994  18.150  0.00  0.00    +0.000 C 
ATOM      4  C   UNL     1       4.043   4.902  17.104  0.00  0.00    +0.000 C 
ATOM      5  C   UNL     1       5.111   5.763  17.767  0.00  0.00    +0.000 C 
ATOM      6  C   UNL     1       5.803   6.706  16.776  0.00  0.00    +0.000 C 
ATOM      7  C   UNL     1       6.879   7.537  17.477  0.00  0.00    +0.000 C 
ATOM      8  C   UNL     1       7.879   6.679  18.250  0.00  0.00    +0.000 C 
ATOM      9  C   UNL     1       7.189   5.668  19.168  0.00  0.00    +0.000 C 
ATOM     10  C   UNL     1       6.122   4.832  18.443  0.00  0.00    +0.000 C 
ATOM     11  O   UNL     1       5.497   4.000  19.419  0.00  0.00    +0.000 OA
ENDROOT
BRANCH  10  12
ATOM     12  O   UNL     1       6.724   3.992  17.462  0.00  0.00    +0.000 OA
ATOM     13  H   UNL     1       6.220   4.050  16.635  0.00  0.00    +0.000 HD
ENDBRANCH  10  12
TORSDOF 1
ENDMDL
MODEL 5
REMARK VINA RESULT:      -5.9      2.888      4.594
REMARK  Name = 
REMARK  1 active torsions:
REMARK  status: ('A' for Active; 'I' for Inactive)
REMARK    1  A    between atoms: C_10  and  O_11
REMARK                            x       y       z     vdW  Elec       q    Type
REMARK                         _______ _______ _______ _____ _____    ______ ____
ROOT
ATOM      1  O   UNL     1       8.035   5.628  13.291  0.00  0.00    +0.000 OA
ATOM      2  C   UNL     1       7.360   5.157  14.210  0.00  0.00    +0.000 C 
ATOM      3  C   UNL     1       6.279   4.133  13.948  0.00  0.00    +0.000 C 
ATOM      4  C   UNL     1       5.136   4.159  14.949  0.00  0.00    +0.000 C 
ATOM      5  C   UNL     1       5.712   4.198  16.358  0.00  0.00    +0.000 C 
ATOM      6  C   UNL     1       4.623   4.237  17.436  0.00  0.00    +0.000 C 
ATOM      7  C   UNL     1       5.243   4.296  18.833  0.00  0.00    +0.000 C 
ATOM      8  C   UNL     1       6.248   5.436  18.988  0.00  0.00    +0.000 C 
ATOM      9  C   UNL     1       7.279   5.458  17.858  0.00  0.00    +0.000 C 
ATOM     10  C   UNL     1       6.637   5.414  16.462  0.00  0.00    +0.000 C 
ATOM     11  O   UNL     1       7.696   5.349  15.507  0.00  0.00    +0.000 OA
ENDROOT
BRANCH  10  12
ATOM     12  O   UNL     1       5.890   6.602  16.215  0.00  0.00    +0.000 OA
ATOM     13  H   UNL     1       6.361   7.152  15.569  0.00  0.00    +0.000 HD
ENDBRANCH  10  12
TORSDOF 1
ENDMDL
MODEL 6
REMARK VINA RESULT:      -5.8      1.746      4.197
REMARK  Name = 
REMARK  1 active torsions:
REMARK  status: ('A' for Active; 'I' for Inactive)
REMARK    1  A    between atoms: C_10  and  O_11
REMARK                            x       y       z     vdW  Elec       q    Type
REMARK                         _______ _______ _______ _____ _____    ______ ____
ROOT
ATOM      1  O   UNL     1       7.871   4.444  16.319  0.00  0.00    +0.000 OA
ATOM      2  C   UNL     1       6.701   4.740  16.572  0.00  0.00    +0.000 C 
ATOM      3  C   UNL     1       6.266   6.181  16.715  0.00  0.00    +0.000 C 
ATOM      4  C   UNL     1       5.085   6.389  17.649  0.00  0.00    +0.000 C 
ATOM      5  C   UNL     1       3.998   5.377  17.308  0.00  0.00    +0.000 C 
ATOM      6  C   UNL     1       2.769   5.509  18.213  0.00  0.00    +0.000 C 
ATOM      7  C   UNL     1       1.712   4.465  17.851  0.00  0.00    +0.000 C 
ATOM      8  C   UNL     1       2.267   3.041  17.835  0.00  0.00    +0.000 C 
ATOM      9  C   UNL     1       3.550   2.927  17.011  0.00  0.00    +0.000 C 
ATOM     10  C   UNL     1       4.606   3.974  17.400  0.00  0.00    +0.000 C 
ATOM     11  O   UNL     1       5.708   3.821  16.506  0.00  0.00    +0.000 OA
ENDROOT
BRANCH  10  12
ATOM     12  O   UNL     1       5.075   3.745  18.726  0.00  0.00    +0.000 OA
ATOM     13  H   UNL     1       5.457   2.855  18.783  0.00  0.00    +0.000 HD
ENDBRANCH  10  12
TORSDOF 1
ENDMDL
MODEL 7
REMARK VINA RESULT:      -5.8      1.147      1.255
REMARK  Name = 
REMARK  1 active torsions:
REMARK  status: ('A' for Active; 'I' for Inactive)
REMARK    1  A    between atoms: C_10  and  O_11
REMARK                            x       y       z     vdW  Elec       q    Type
REMARK                         _______ _______ _______ _____ _____    ______ ____
ROOT
ATOM      1  O   UNL     1       1.478   3.219  20.781  0.00  0.00    +0.000 OA
ATOM      2  C   UNL     1       2.159   3.520  19.798  0.00  0.00    +0.000 C 
ATOM      3  C   UNL     1       1.651   3.300  18.391  0.00  0.00    +0.000 C 
ATOM      4  C   UNL     1       2.741   3.050  17.362  0.00  0.00    +0.000 C 
ATOM      5  C   UNL     1       3.837   4.094  17.538  0.00  0.00    +0.000 C 
ATOM      6  C   UNL     1       4.988   3.909  16.543  0.00  0.00    +0.000 C 
ATOM      7  C   UNL     1       6.074   4.963  16.766  0.00  0.00    +0.000 C 
ATOM      8  C   UNL     1       6.564   5.012  18.213  0.00  0.00    +0.000 C 
ATOM      9  C   UNL     1       5.411   5.098  19.214  0.00  0.00    +0.000 C 
ATOM     10  C   UNL     1       4.337   4.022  18.984  0.00  0.00    +0.000 C 
ATOM     11  O   UNL     1       3.284   4.265  19.915  0.00  0.00    +0.000 OA
ENDROOT
BRANCH  10  12
ATOM     12  O   UNL     1       4.866   2.724  19.240  0.00  0.00    +0.000 OA
ATOM     13  H   UNL     1       5.834   2.775  19.295  0.00  0.00    +0.000 HD
ENDBRANCH  10  12
TORSDOF 1
ENDMDL
MODEL 8
REMARK VINA RESULT:      -5.8      1.814      4.315
REMARK  Name = 
REMARK  1 active torsions:
REMARK  status: ('A' for Active; 'I' for Inactive)
REMARK    1  A    between atoms: C_10  and  O_11
REMARK                            x       y       z     vdW  Elec       q    Type
REMARK                         _______ _______ _______ _____ _____    ______ ____
ROOT
ATOM      1  O   UNL     1       6.551   4.239  16.420  0.00  0.00    +0.000 OA
ATOM      2  C   UNL     1       5.576   4.353  17.167  0.00  0.00    +0.000 C 
ATOM      3  C   UNL     1       5.313   5.633  17.929  0.00  0.00    +0.000 C 
ATOM      4  C   UNL     1       4.574   5.439  19.242  0.00  0.00    +0.000 C 
ATOM      5  C   UNL     1       3.378   4.525  19.008  0.00  0.00    +0.000 C 
ATOM      6  C   UNL     1       2.578   4.266  20.290  0.00  0.00    +0.000 C 
ATOM      7  C   UNL     1       1.400   3.330  20.015  0.00  0.00    +0.000 C 
ATOM      8  C   UNL     1       1.821   2.033  19.326  0.00  0.00    +0.000 C 
ATOM      9  C   UNL     1       2.702   2.286  18.101  0.00  0.00    +0.000 C 
ATOM     10  C   UNL     1       3.889   3.216  18.400  0.00  0.00    +0.000 C 
ATOM     11  O   UNL     1       4.574   3.443  17.168  0.00  0.00    +0.000 OA
ENDROOT
BRANCH  10  12
ATOM     12  O   UNL     1       4.798   2.594  19.305  0.00  0.00    +0.000 OA
ATOM     13  H   UNL     1       4.907   1.660  19.062  0.00  0.00    +0.000 HD
ENDBRANCH  10  12
TORSDOF 1
ENDMDL
MODEL 9
REMARK VINA RESULT:      -5.8      1.574      4.237
REMARK  Name = 
REMARK  1 active torsions:
REMARK  status: ('A' for Active; 'I' for Inactive)
REMARK    1  A    between atoms: C_10  and  O_11
REMARK                            x       y       z     vdW  Elec       q    Type
REMARK                         _______ _______ _______ _____ _____    ______ ____
ROOT
ATOM      1  O   UNL     1       7.859   4.295  16.481  0.00  0.00    +0.000 OA
ATOM      2  C   UNL     1       6.866   4.645  17.124  0.00  0.00    +0.000 C 
ATOM      3  C   UNL     1       6.960   5.696  18.208  0.00  0.00    +0.000 C 
ATOM      4  C   UNL     1       5.935   5.544  19.319  0.00  0.00    +0.000 C 
ATOM      5  C   UNL     1       4.561   5.323  18.699  0.00  0.00    +0.000 C 
ATOM      6  C   UNL     1       3.463   5.148  19.754  0.00  0.00    +0.000 C 
ATOM      7  C   UNL     1       2.105   4.909  19.091  0.00  0.00    +0.000 C 
ATOM      8  C   UNL     1       2.131   3.756  18.088  0.00  0.00    +0.000 C 
ATOM      9  C   UNL     1       3.286   3.878  17.093  0.00  0.00    +0.000 C 
ATOM     10  C   UNL     1       4.644   4.102  17.778  0.00  0.00    +0.000 C 
ATOM     11  O   UNL     1       5.615   4.287  16.749  0.00  0.00    +0.000 OA
ENDROOT
BRANCH  10  12
ATOM     12  O   UNL     1       5.017   2.956  18.540  0.00  0.00    +0.000 OA
ATOM     13  H   UNL     1       4.548   2.968  19.389  0.00  0.00    +0.000 HD
ENDBRANCH  10  12
TORSDOF 1
ENDMDL
