MODEL 1
REMARK VINA RESULT:      -7.2      0.000      0.000
REMARK  Name = 
REMARK  7 active torsions:
REMARK  status: ('A' for Active; 'I' for Inactive)
REMARK    1  A    between atoms: C_2  and  C_3
REMARK    2  A    between atoms: C_9  and  O_10
REMARK    3  A    between atoms: O_10  and  C_11
REMARK    4  A    between atoms: C_11  and  C_12
REMARK    5  A    between atoms: C_11  and  C_15
REMARK    6  A    between atoms: C_12  and  C_13
REMARK    7  A    between atoms: C_13  and  N_14
REMARK                            x       y       z     vdW  Elec       q    Type
REMARK                         _______ _______ _______ _____ _____    ______ ____
ROOT
ATOM      1  C   UNL     1       3.024   6.154  18.010  0.00  0.00    +0.000 C 
ENDROOT
BRANCH   1   2
ATOM      2  C   UNL     1       2.410   4.982  18.756  0.00  0.00    +0.000 A 
ATOM      3  C   UNL     1       1.881   3.918  18.004  0.00  0.00    +0.000 A 
ATOM      4  C   UNL     1       1.045   2.977  18.599  0.00  0.00    +0.000 A 
ATOM      5  C   UNL     1       0.752   3.074  19.957  0.00  0.00    +0.000 A 
ATOM      6  C   UNL     1       1.315   4.093  20.724  0.00  0.00    +0.000 A 
ATOM      7  C   UNL     1       2.144   5.044  20.130  0.00  0.00    +0.000 A 
ENDBRANCH   1   2
BRANCH   1   8
ATOM      8  O   UNL     1       4.462   6.130  18.040  0.00  0.00    +0.000 OA
BRANCH   8  15
ATOM      9  C   UNL     1       6.542   5.104  17.564  0.00  0.00    +0.000 A 
ATOM     10  C   UNL     1       7.489   4.539  16.686  0.00  0.00    +0.000 A 
ATOM     11  C   UNL     1       7.127   4.223  15.378  0.00  0.00    +0.000 A 
ATOM     12  C   UNL     1       5.811   4.439  14.979  0.00  0.00    +0.000 A 
ATOM     13 CL   UNL     1       5.369   4.017  13.364  0.00  0.00    +0.000 Cl
ATOM     14  C   UNL     1       4.861   5.009  15.850  0.00  0.00    +0.000 A 
ATOM     15  C   UNL     1       5.227   5.402  17.147  0.00  0.00    +0.000 A 
BRANCH   9  17
ATOM     16  N   UNL     1       7.302   5.593  19.991  0.00  0.00    +0.000 NA
ATOM     17  C   UNL     1       6.957   5.395  18.908  0.00  0.00    +0.000 C 
ENDBRANCH   9  17
ENDBRANCH   8  15
ENDBRANCH   1   8
BRANCH   1  18
ATOM     18  C   UNL     1       2.408   7.442  18.657  0.00  0.00    +0.000 C 
BRANCH  18  19
ATOM     19  C   UNL     1       2.303   8.720  17.812  0.00  0.00    +0.000 C 
BRANCH  19  20
ATOM     20  N   UNL     1       1.255   9.585  18.376  0.00  0.00    +0.000 NA
ATOM     21  H   UNL     1       0.411   9.518  17.802  0.00  0.00    +0.000 HD
ATOM     22  H   UNL     1       1.547  10.561  18.312  0.00  0.00    +0.000 HD
ENDBRANCH  19  20
ENDBRANCH  18  19
ENDBRANCH   1  18
TORSDOF 7
ENDMDL
MODEL 2
REMARK VINA RESULT:      -7.1      0.566      1.218
REMARK  Name = 
REMARK  7 active torsions:
REMARK  status: ('A' for Active; 'I' for Inactive)
REMARK    1  A    between atoms: C_2  and  C_3
REMARK    2  A    between atoms: C_9  and  O_10
REMARK    3  A    between atoms: O_10  and  C_11
REMARK    4  A    between atoms: C_11  and  C_12
REMARK    5  A    between atoms: C_11  and  C_15
REMARK    6  A    between atoms: C_12  and  C_13
REMARK    7  A    between atoms: C_13  and  N_14
REMARK                            x       y       z     vdW  Elec       q    Type
REMARK                         _______ _______ _______ _____ _____    ______ ____
ROOT
ATOM      1  C   UNL     1       3.060   6.025  18.377  0.00  0.00    +0.000 C 
ENDROOT
BRANCH   1   2
ATOM      2  C   UNL     1       2.096   4.948  18.842  0.00  0.00    +0.000 A 
ATOM      3  C   UNL     1       1.803   4.864  20.215  0.00  0.00    +0.000 A 
ATOM      4  C   UNL     1       1.183   3.734  20.739  0.00  0.00    +0.000 A 
ATOM      5  C   UNL     1       0.824   2.688  19.893  0.00  0.00    +0.000 A 
ATOM      6  C   UNL     1       1.060   2.783  18.522  0.00  0.00    +0.000 A 
ATOM      7  C   UNL     1       1.689   3.910  17.994  0.00  0.00    +0.000 A 
ENDBRANCH   1   2
BRANCH   1   8
ATOM      8  O   UNL     1       4.436   5.637  18.540  0.00  0.00    +0.000 OA
BRANCH   8  15
ATOM      9  C   UNL     1       6.590   5.033  17.766  0.00  0.00    +0.000 A 
ATOM     10  C   UNL     1       7.513   4.712  16.751  0.00  0.00    +0.000 A 
ATOM     11  C   UNL     1       7.063   4.438  15.461  0.00  0.00    +0.000 A 
ATOM     12  C   UNL     1       5.694   4.449  15.215  0.00  0.00    +0.000 A 
ATOM     13 CL   UNL     1       5.148   4.080  13.619  0.00  0.00    +0.000 Cl
ATOM     14  C   UNL     1       4.766   4.774  16.225  0.00  0.00    +0.000 A 
ATOM     15  C   UNL     1       5.205   5.126  17.511  0.00  0.00    +0.000 A 
BRANCH   9  17
ATOM     16  N   UNL     1       7.497   5.528  20.142  0.00  0.00    +0.000 NA
ATOM     17  C   UNL     1       7.101   5.289  19.085  0.00  0.00    +0.000 C 
ENDBRANCH   9  17
ENDBRANCH   8  15
ENDBRANCH   1   8
BRANCH   1  18
ATOM     18  C   UNL     1       2.678   7.316  19.181  0.00  0.00    +0.000 C 
BRANCH  18  19
ATOM     19  C   UNL     1       1.771   8.363  18.517  0.00  0.00    +0.000 C 
BRANCH  19  20
ATOM     20  N   UNL     1       2.457   8.915  17.339  0.00  0.00    +0.000 NA
ATOM     21  H   UNL     1       2.242   8.341  16.520  0.00  0.00    +0.000 HD
ATOM     22  H   UNL     1       3.466   8.837  17.464  0.00  0.00    +0.000 HD
ENDBRANCH  19  20
ENDBRANCH  18  19
ENDBRANCH   1  18
TORSDOF 7
ENDMDL
MODEL 3
REMARK VINA RESULT:      -7.0      1.575      1.860
REMARK  Name = 
REMARK  7 active torsions:
REMARK  status: ('A' for Active; 'I' for Inactive)
REMARK    1  A    between atoms: C_2  and  C_3
REMARK    2  A    between atoms: C_9  and  O_10
REMARK    3  A    between atoms: O_10  and  C_11
REMARK    4  A    between atoms: C_11  and  C_12
REMARK    5  A    between atoms: C_11  and  C_15
REMARK    6  A    between atoms: C_12  and  C_13
REMARK    7  A    between atoms: C_13  and  N_14
REMARK                            x       y       z     vdW  Elec       q    Type
REMARK                         _______ _______ _______ _____ _____    ______ ____
ROOT
ATOM      1  C   UNL     1       3.314   3.942  17.896  0.00  0.00    +0.000 C 
ENDROOT
BRANCH   1   2
ATOM      2  C   UNL     1       2.645   3.315  19.107  0.00  0.00    +0.000 A 
ATOM      3  C   UNL     1       1.246   3.407  19.217  0.00  0.00    +0.000 A 
ATOM      4  C   UNL     1       0.611   3.131  20.425  0.00  0.00    +0.000 A 
ATOM      5  C   UNL     1       1.364   2.735  21.526  0.00  0.00    +0.000 A 
ATOM      6  C   UNL     1       2.746   2.587  21.414  0.00  0.00    +0.000 A 
ATOM      7  C   UNL     1       3.388   2.871  20.209  0.00  0.00    +0.000 A 
ENDBRANCH   1   2
BRANCH   1   8
ATOM      8  O   UNL     1       4.727   3.675  17.850  0.00  0.00    +0.000 OA
BRANCH   8  15
ATOM      9  C   UNL     1       6.632   4.772  16.972  0.00  0.00    +0.000 A 
ATOM     10  C   UNL     1       7.408   5.280  15.910  0.00  0.00    +0.000 A 
ATOM     11  C   UNL     1       7.100   4.938  14.595  0.00  0.00    +0.000 A 
ATOM     12  C   UNL     1       6.048   4.058  14.363  0.00  0.00    +0.000 A 
ATOM     13 CL   UNL     1       5.695   3.619  12.730  0.00  0.00    +0.000 Cl
ATOM     14  C   UNL     1       5.265   3.550  15.419  0.00  0.00    +0.000 A 
ATOM     15  C   UNL     1       5.512   3.943  16.744  0.00  0.00    +0.000 A 
BRANCH   9  17
ATOM     16  N   UNL     1       7.261   5.424  19.398  0.00  0.00    +0.000 NA
ATOM     17  C   UNL     1       6.999   5.138  18.311  0.00  0.00    +0.000 C 
ENDBRANCH   9  17
ENDBRANCH   8  15
ENDBRANCH   1   8
BRANCH   1  18
ATOM     18  C   UNL     1       2.971   5.471  17.963  0.00  0.00    +0.000 C 
BRANCH  18  19
ATOM     19  C   UNL     1       3.551   6.313  19.109  0.00  0.00    +0.000 C 
BRANCH  19  20
ATOM     20  N   UNL     1       2.455   6.752  19.985  0.00  0.00    +0.000 NA
ATOM     21  H   UNL     1       2.410   6.144  20.806  0.00  0.00    +0.000 HD
ATOM     22  H   UNL     1       1.563   6.624  19.507  0.00  0.00    +0.000 HD
ENDBRANCH  19  20
ENDBRANCH  18  19
ENDBRANCH   1  18
TORSDOF 7
ENDMDL
MODEL 4
REMARK VINA RESULT:      -6.9      1.022      1.531
REMARK  Name = 
REMARK  7 active torsions:
REMARK  status: ('A' for Active; 'I' for Inactive)
REMARK    1  A    between atoms: C_2  and  C_3
REMARK    2  A    between atoms: C_9  and  O_10
REMARK    3  A    between atoms: O_10  and  C_11
REMARK    4  A    between atoms: C_11  and  C_12
REMARK    5  A    between atoms: C_11  and  C_15
REMARK    6  A    between atoms: C_12  and  C_13
REMARK    7  A    between atoms: C_13  and  N_14
REMARK                            x       y       z     vdW  Elec       q    Type
REMARK                         _______ _______ _______ _____ _____    ______ ____
ROOT
ATOM      1  C   UNL     1       3.318   4.973  17.859  0.00  0.00    +0.000 C 
ENDROOT
BRANCH   1   2
ATOM      2  C   UNL     1       2.429   4.475  18.985  0.00  0.00    +0.000 A 
ATOM      3  C   UNL     1       2.853   4.684  20.310  0.00  0.00    +0.000 A 
ATOM      4  C   UNL     1       2.254   3.997  21.362  0.00  0.00    +0.000 A 
ATOM      5  C   UNL     1       1.208   3.116  21.105  0.00  0.00    +0.000 A 
ATOM      6  C   UNL     1       0.742   2.941  19.801  0.00  0.00    +0.000 A 
ATOM      7  C   UNL     1       1.346   3.620  18.744  0.00  0.00    +0.000 A 
ENDBRANCH   1   2
BRANCH   1   8
ATOM      8  O   UNL     1       4.564   4.258  17.786  0.00  0.00    +0.000 OA
BRANCH   8  15
ATOM      9  C   UNL     1       6.674   4.792  16.855  0.00  0.00    +0.000 A 
ATOM     10  C   UNL     1       7.540   5.038  15.771  0.00  0.00    +0.000 A 
ATOM     11  C   UNL     1       7.139   4.725  14.473  0.00  0.00    +0.000 A 
ATOM     12  C   UNL     1       5.894   4.133  14.284  0.00  0.00    +0.000 A 
ATOM     13 CL   UNL     1       5.420   3.726  12.674  0.00  0.00    +0.000 Cl
ATOM     14  C   UNL     1       5.022   3.890  15.364  0.00  0.00    +0.000 A 
ATOM     15  C   UNL     1       5.378   4.266  16.668  0.00  0.00    +0.000 A 
BRANCH   9  17
ATOM     16  N   UNL     1       7.532   5.400  19.223  0.00  0.00    +0.000 NA
ATOM     17  C   UNL     1       7.140   5.113  18.176  0.00  0.00    +0.000 C 
ENDBRANCH   9  17
ENDBRANCH   8  15
ENDBRANCH   1   8
BRANCH   1  18
ATOM     18  C   UNL     1       3.497   6.512  18.106  0.00  0.00    +0.000 C 
BRANCH  18  19
ATOM     19  C   UNL     1       2.250   7.408  18.142  0.00  0.00    +0.000 C 
BRANCH  19  20
ATOM     20  N   UNL     1       2.540   8.664  17.435  0.00  0.00    +0.000 NA
ATOM     21  H   UNL     1       1.711   8.962  16.915  0.00  0.00    +0.000 HD
ATOM     22  H   UNL     1       3.257   8.500  16.728  0.00  0.00    +0.000 HD
ENDBRANCH  19  20
ENDBRANCH  18  19
ENDBRANCH   1  18
TORSDOF 7
ENDMDL
MODEL 5
REMARK VINA RESULT:      -6.9      2.234      2.702
REMARK  Name = 
REMARK  7 active torsions:
REMARK  status: ('A' for Active; 'I' for Inactive)
REMARK    1  A    between atoms: C_2  and  C_3
REMARK    2  A    between atoms: C_9  and  O_10
REMARK    3  A    between atoms: O_10  and  C_11
REMARK    4  A    between atoms: C_11  and  C_12
REMARK    5  A    between atoms: C_11  and  C_15
REMARK    6  A    between atoms: C_12  and  C_13
REMARK    7  A    between atoms: C_13  and  N_14
REMARK                            x       y       z     vdW  Elec       q    Type
REMARK                         _______ _______ _______ _____ _____    ______ ____
ROOT
ATOM      1  C   UNL     1       2.729   5.804  17.904  0.00  0.00    +0.000 C 
ENDROOT
BRANCH   1   2
ATOM      2  C   UNL     1       1.924   4.809  18.721  0.00  0.00    +0.000 A 
ATOM      3  C   UNL     1       1.899   4.961  20.119  0.00  0.00    +0.000 A 
ATOM      4  C   UNL     1       1.445   3.928  20.935  0.00  0.00    +0.000 A 
ATOM      5  C   UNL     1       0.987   2.746  20.362  0.00  0.00    +0.000 A 
ATOM      6  C   UNL     1       0.956   2.604  18.975  0.00  0.00    +0.000 A 
ATOM      7  C   UNL     1       1.418   3.632  18.154  0.00  0.00    +0.000 A 
ENDBRANCH   1   2
BRANCH   1   8
ATOM      8  O   UNL     1       3.921   5.221  17.349  0.00  0.00    +0.000 OA
BRANCH   8  15
ATOM      9  C   UNL     1       5.808   4.839  18.726  0.00  0.00    +0.000 A 
ATOM     10  C   UNL     1       7.020   5.231  19.330  0.00  0.00    +0.000 A 
ATOM     11  C   UNL     1       7.667   6.389  18.906  0.00  0.00    +0.000 A 
ATOM     12  C   UNL     1       7.115   7.117  17.856  0.00  0.00    +0.000 A 
ATOM     13 CL   UNL     1       7.942   8.535  17.322  0.00  0.00    +0.000 Cl
ATOM     14  C   UNL     1       5.901   6.733  17.252  0.00  0.00    +0.000 A 
ATOM     15  C   UNL     1       5.197   5.611  17.716  0.00  0.00    +0.000 A 
BRANCH   9  17
ATOM     16  N   UNL     1       4.657   2.666  19.542  0.00  0.00    +0.000 NA
ATOM     17  C   UNL     1       5.188   3.626  19.184  0.00  0.00    +0.000 C 
ENDBRANCH   9  17
ENDBRANCH   8  15
ENDBRANCH   1   8
BRANCH   1  18
ATOM     18  C   UNL     1       3.014   7.012  18.863  0.00  0.00    +0.000 C 
BRANCH  18  19
ATOM     19  C   UNL     1       2.142   8.271  18.752  0.00  0.00    +0.000 C 
BRANCH  19  20
ATOM     20  N   UNL     1       2.286   8.838  17.402  0.00  0.00    +0.000 NA
ATOM     21  H   UNL     1       2.416   8.081  16.726  0.00  0.00    +0.000 HD
ATOM     22  H   UNL     1       3.142   9.391  17.354  0.00  0.00    +0.000 HD
ENDBRANCH  19  20
ENDBRANCH  18  19
ENDBRANCH   1  18
TORSDOF 7
ENDMDL
MODEL 6
REMARK VINA RESULT:      -6.9      2.847      4.469
REMARK  Name = 
REMARK  7 active torsions:
REMARK  status: ('A' for Active; 'I' for Inactive)
REMARK    1  A    between atoms: C_2  and  C_3
REMARK    2  A    between atoms: C_9  and  O_10
REMARK    3  A    between atoms: O_10  and  C_11
REMARK    4  A    between atoms: C_11  and  C_12
REMARK    5  A    between atoms: C_11  and  C_15
REMARK    6  A    between atoms: C_12  and  C_13
REMARK    7  A    between atoms: C_13  and  N_14
REMARK                            x       y       z     vdW  Elec       q    Type
REMARK                         _______ _______ _______ _____ _____    ______ ____
ROOT
ATOM      1  C   UNL     1       2.536   6.550  19.647  0.00  0.00    +0.000 C 
ENDROOT
BRANCH   1   2
ATOM      2  C   UNL     1       1.946   7.949  19.595  0.00  0.00    +0.000 A 
ATOM      3  C   UNL     1       1.251   8.420  20.723  0.00  0.00    +0.000 A 
ATOM      4  C   UNL     1       0.438   9.547  20.634  0.00  0.00    +0.000 A 
ATOM      5  C   UNL     1       0.333  10.229  19.425  0.00  0.00    +0.000 A 
ATOM      6  C   UNL     1       1.060   9.803  18.314  0.00  0.00    +0.000 A 
ATOM      7  C   UNL     1       1.868   8.670  18.396  0.00  0.00    +0.000 A 
ENDBRANCH   1   2
BRANCH   1   8
ATOM      8  O   UNL     1       2.661   5.959  18.342  0.00  0.00    +0.000 OA
BRANCH   8  15
ATOM      9  C   UNL     1       4.065   4.363  17.300  0.00  0.00    +0.000 A 
ATOM     10  C   UNL     1       5.318   3.899  16.850  0.00  0.00    +0.000 A 
ATOM     11  C   UNL     1       6.407   4.766  16.802  0.00  0.00    +0.000 A 
ATOM     12  C   UNL     1       6.217   6.096  17.164  0.00  0.00    +0.000 A 
ATOM     13 CL   UNL     1       7.568   7.168  17.074  0.00  0.00    +0.000 Cl
ATOM     14  C   UNL     1       4.969   6.565  17.620  0.00  0.00    +0.000 A 
ATOM     15  C   UNL     1       3.880   5.689  17.746  0.00  0.00    +0.000 A 
BRANCH   9  17
ATOM     16  N   UNL     1       2.089   2.688  17.288  0.00  0.00    +0.000 NA
ATOM     17  C   UNL     1       2.968   3.436  17.313  0.00  0.00    +0.000 C 
ENDBRANCH   9  17
ENDBRANCH   8  15
ENDBRANCH   1   8
BRANCH   1  18
ATOM     18  C   UNL     1       1.613   5.733  20.616  0.00  0.00    +0.000 C 
BRANCH  18  19
ATOM     19  C   UNL     1       1.838   4.221  20.757  0.00  0.00    +0.000 C 
BRANCH  19  20
ATOM     20  N   UNL     1       0.672   3.508  20.212  0.00  0.00    +0.000 NA
ATOM     21  H   UNL     1       0.968   2.601  19.845  0.00  0.00    +0.000 HD
ATOM     22  H   UNL     1       0.306   4.018  19.407  0.00  0.00    +0.000 HD
ENDBRANCH  19  20
ENDBRANCH  18  19
ENDBRANCH   1  18
TORSDOF 7
ENDMDL
MODEL 7
REMARK VINA RESULT:      -6.9      3.133      5.897
REMARK  Name = 
REMARK  7 active torsions:
REMARK  status: ('A' for Active; 'I' for Inactive)
REMARK    1  A    between atoms: C_2  and  C_3
REMARK    2  A    between atoms: C_9  and  O_10
REMARK    3  A    between atoms: O_10  and  C_11
REMARK    4  A    between atoms: C_11  and  C_12
REMARK    5  A    between atoms: C_11  and  C_15
REMARK    6  A    between atoms: C_12  and  C_13
REMARK    7  A    between atoms: C_13  and  N_14
REMARK                            x       y       z     vdW  Elec       q    Type
REMARK                         _______ _______ _______ _____ _____    ______ ____
ROOT
ATOM      1  C   UNL     1       3.995   4.801  17.248  0.00  0.00    +0.000 C 
ENDROOT
BRANCH   1   2
ATOM      2  C   UNL     1       5.192   5.515  17.851  0.00  0.00    +0.000 A 
ATOM      3  C   UNL     1       5.859   6.474  17.067  0.00  0.00    +0.000 A 
ATOM      4  C   UNL     1       7.121   6.933  17.433  0.00  0.00    +0.000 A 
ATOM      5  C   UNL     1       7.717   6.460  18.599  0.00  0.00    +0.000 A 
ATOM      6  C   UNL     1       7.043   5.551  19.412  0.00  0.00    +0.000 A 
ATOM      7  C   UNL     1       5.782   5.081  19.045  0.00  0.00    +0.000 A 
ENDBRANCH   1   2
BRANCH   1   8
ATOM      8  O   UNL     1       2.786   5.036  17.992  0.00  0.00    +0.000 OA
BRANCH   8  15
ATOM      9  C   UNL     1       2.174   6.137  19.996  0.00  0.00    +0.000 A 
ATOM     10  C   UNL     1       1.686   7.244  20.720  0.00  0.00    +0.000 A 
ATOM     11  C   UNL     1       1.555   8.483  20.095  0.00  0.00    +0.000 A 
ATOM     12  C   UNL     1       1.955   8.607  18.768  0.00  0.00    +0.000 A 
ATOM     13 CL   UNL     1       1.814  10.155  18.015  0.00  0.00    +0.000 Cl
ATOM     14  C   UNL     1       2.439   7.503  18.038  0.00  0.00    +0.000 A 
ATOM     15  C   UNL     1       2.507   6.232  18.628  0.00  0.00    +0.000 A 
BRANCH   9  17
ATOM     16  N   UNL     1       2.411   3.898  21.276  0.00  0.00    +0.000 NA
ATOM     17  C   UNL     1       2.309   4.886  20.688  0.00  0.00    +0.000 C 
ENDBRANCH   9  17
ENDBRANCH   8  15
ENDBRANCH   1   8
BRANCH   1  18
ATOM     18  C   UNL     1       4.395   3.287  17.170  0.00  0.00    +0.000 C 
BRANCH  18  19
ATOM     19  C   UNL     1       3.534   2.252  17.909  0.00  0.00    +0.000 C 
BRANCH  19  20
ATOM     20  N   UNL     1       4.195   1.891  19.173  0.00  0.00    +0.000 NA
ATOM     21  H   UNL     1       4.228   2.709  19.786  0.00  0.00    +0.000 HD
ATOM     22  H   UNL     1       5.170   1.651  18.991  0.00  0.00    +0.000 HD
ENDBRANCH  19  20
ENDBRANCH  18  19
ENDBRANCH   1  18
TORSDOF 7
ENDMDL
MODEL 8
REMARK VINA RESULT:      -6.9      3.271      5.950
REMARK  Name = 
REMARK  7 active torsions:
REMARK  status: ('A' for Active; 'I' for Inactive)
REMARK    1  A    between atoms: C_2  and  C_3
REMARK    2  A    between atoms: C_9  and  O_10
REMARK    3  A    between atoms: O_10  and  C_11
REMARK    4  A    between atoms: C_11  and  C_12
REMARK    5  A    between atoms: C_11  and  C_15
REMARK    6  A    between atoms: C_12  and  C_13
REMARK    7  A    between atoms: C_13  and  N_14
REMARK                            x       y       z     vdW  Elec       q    Type
REMARK                         _______ _______ _______ _____ _____    ______ ____
ROOT
ATOM      1  C   UNL     1       5.015   4.958  16.217  0.00  0.00    +0.000 C 
ENDROOT
BRANCH   1   2
ATOM      2  C   UNL     1       5.947   5.617  17.218  0.00  0.00    +0.000 A 
ATOM      3  C   UNL     1       6.282   6.970  17.025  0.00  0.00    +0.000 A 
ATOM      4  C   UNL     1       7.349   7.540  17.713  0.00  0.00    +0.000 A 
ATOM      5  C   UNL     1       8.076   6.773  18.619  0.00  0.00    +0.000 A 
ATOM      6  C   UNL     1       7.720   5.446  18.859  0.00  0.00    +0.000 A 
ATOM      7  C   UNL     1       6.657   4.868  18.165  0.00  0.00    +0.000 A 
ENDBRANCH   1   2
BRANCH   1   8
ATOM      8  O   UNL     1       3.858   4.378  16.845  0.00  0.00    +0.000 OA
BRANCH   8  15
ATOM      9  C   UNL     1       3.066   3.816  19.004  0.00  0.00    +0.000 A 
ATOM     10  C   UNL     1       2.372   4.099  20.198  0.00  0.00    +0.000 A 
ATOM     11  C   UNL     1       1.980   5.405  20.483  0.00  0.00    +0.000 A 
ATOM     12  C   UNL     1       2.324   6.416  19.591  0.00  0.00    +0.000 A 
ATOM     13 CL   UNL     1       1.857   8.035  19.971  0.00  0.00    +0.000 Cl
ATOM     14  C   UNL     1       3.013   6.138  18.393  0.00  0.00    +0.000 A 
ATOM     15  C   UNL     1       3.350   4.820  18.053  0.00  0.00    +0.000 A 
BRANCH   9  17
ATOM     16  N   UNL     1       3.776   1.357  18.603  0.00  0.00    +0.000 NA
ATOM     17  C   UNL     1       3.466   2.457  18.763  0.00  0.00    +0.000 C 
ENDBRANCH   9  17
ENDBRANCH   8  15
ENDBRANCH   1   8
BRANCH   1  18
ATOM     18  C   UNL     1       5.891   3.915  15.440  0.00  0.00    +0.000 C 
BRANCH  18  19
ATOM     19  C   UNL     1       6.444   4.293  14.057  0.00  0.00    +0.000 C 
BRANCH  19  20
ATOM     20  N   UNL     1       7.560   5.236  14.227  0.00  0.00    +0.000 NA
ATOM     21  H   UNL     1       7.269   6.003  14.838  0.00  0.00    +0.000 HD
ATOM     22  H   UNL     1       7.777   5.673  13.331  0.00  0.00    +0.000 HD
ENDBRANCH  19  20
ENDBRANCH  18  19
ENDBRANCH   1  18
TORSDOF 7
ENDMDL
MODEL 9
REMARK VINA RESULT:      -6.8      2.776      4.411
REMARK  Name = 
REMARK  7 active torsions:
REMARK  status: ('A' for Active; 'I' for Inactive)
REMARK    1  A    between atoms: C_2  and  C_3
REMARK    2  A    between atoms: C_9  and  O_10
REMARK    3  A    between atoms: O_10  and  C_11
REMARK    4  A    between atoms: C_11  and  C_12
REMARK    5  A    between atoms: C_11  and  C_15
REMARK    6  A    between atoms: C_12  and  C_13
REMARK    7  A    between atoms: C_13  and  N_14
REMARK                            x       y       z     vdW  Elec       q    Type
REMARK                         _______ _______ _______ _____ _____    ______ ____
ROOT
ATOM      1  C   UNL     1       2.532   6.570  19.636  0.00  0.00    +0.000 C 
ENDROOT
BRANCH   1   2
ATOM      2  C   UNL     1       1.808   7.891  19.443  0.00  0.00    +0.000 A 
ATOM      3  C   UNL     1       1.952   8.555  18.211  0.00  0.00    +0.000 A 
ATOM      4  C   UNL     1       1.575   9.889  18.078  0.00  0.00    +0.000 A 
ATOM      5  C   UNL     1       1.027  10.564  19.165  0.00  0.00    +0.000 A 
ATOM      6  C   UNL     1       0.828   9.900  20.375  0.00  0.00    +0.000 A 
ATOM      7  C   UNL     1       1.212   8.567  20.516  0.00  0.00    +0.000 A 
ENDBRANCH   1   2
BRANCH   1   8
ATOM      8  O   UNL     1       2.643   5.822  18.412  0.00  0.00    +0.000 OA
BRANCH   8  15
ATOM      9  C   UNL     1       4.029   4.257  17.301  0.00  0.00    +0.000 A 
ATOM     10  C   UNL     1       5.273   3.807  16.814  0.00  0.00    +0.000 A 
ATOM     11  C   UNL     1       6.360   4.678  16.768  0.00  0.00    +0.000 A 
ATOM     12  C   UNL     1       6.176   5.998  17.170  0.00  0.00    +0.000 A 
ATOM     13 CL   UNL     1       7.523   7.073  17.081  0.00  0.00    +0.000 Cl
ATOM     14  C   UNL     1       4.936   6.451  17.662  0.00  0.00    +0.000 A 
ATOM     15  C   UNL     1       3.851   5.570  17.786  0.00  0.00    +0.000 A 
BRANCH   9  17
ATOM     16  N   UNL     1       2.055   2.580  17.355  0.00  0.00    +0.000 NA
ATOM     17  C   UNL     1       2.933   3.328  17.311  0.00  0.00    +0.000 C 
ENDBRANCH   9  17
ENDBRANCH   8  15
ENDBRANCH   1   8
BRANCH   1  18
ATOM     18  C   UNL     1       1.744   5.812  20.760  0.00  0.00    +0.000 C 
BRANCH  18  19
ATOM     19  C   UNL     1       1.822   4.279  20.817  0.00  0.00    +0.000 C 
BRANCH  19  20
ATOM     20  N   UNL     1       0.674   3.712  20.092  0.00  0.00    +0.000 NA
ATOM     21  H   UNL     1       0.506   2.756  20.413  0.00  0.00    +0.000 HD
ATOM     22  H   UNL     1       0.905   3.626  19.101  0.00  0.00    +0.000 HD
ENDBRANCH  19  20
ENDBRANCH  18  19
ENDBRANCH   1  18
TORSDOF 7
ENDMDL
