MODEL 1
REMARK VINA RESULT:      -7.2      0.000      0.000
REMARK  Name = 
REMARK  7 active torsions:
REMARK  status: ('A' for Active; 'I' for Inactive)
REMARK    1  A    between atoms: C_1  and  C_2
REMARK    2  A    between atoms: C_6  and  C_7
REMARK    3  A    between atoms: C_7  and  C_8
REMARK    4  A    between atoms: C_7  and  N_15
REMARK    5  A    between atoms: C_17  and  C_18
REMARK    6  A    between atoms: C_20  and  C_21
REMARK    7  A    between atoms: C_23  and  O_24
REMARK                            x       y       z     vdW  Elec       q    Type
REMARK                         _______ _______ _______ _____ _____    ______ ____
ROOT
ATOM      1  C   UNL     1       3.892   4.543  18.974  0.00  0.00    +0.000 C 
ENDROOT
BRANCH   1   7
ATOM      2  C   UNL     1       7.713   5.123  12.867  0.00  0.00    +0.000 C 
ATOM      3  C   UNL     1       7.075   4.910  14.181  0.00  0.00    +0.000 A 
ATOM      4  N   UNL     1       7.595   5.483  15.326  0.00  0.00    +0.000 NA
ATOM      5  C   UNL     1       6.728   5.103  16.220  0.00  0.00    +0.000 A 
ATOM      6  S   UNL     1       6.471   5.406  17.900  0.00  0.00    +0.000 S 
ATOM      7  C   UNL     1       4.898   4.507  17.804  0.00  0.00    +0.000 A 
ATOM      8  C   UNL     1       4.702   4.024  16.551  0.00  0.00    +0.000 A 
ATOM      9  N   UNL     1       5.726   4.367  15.673  0.00  0.00    +0.000 N 
ATOM     10  N   UNL     1       5.933   4.208  14.346  0.00  0.00    +0.000 NA
BRANCH   8  11
ATOM     11  O   UNL     1       3.589   3.341  16.108  0.00  0.00    +0.000 OA
ATOM     12  H   UNL     1       2.930   4.018  15.838  0.00  0.00    +0.000 HD
ENDBRANCH   8  11
ENDBRANCH   1   7
BRANCH   1  13
ATOM     13  N   UNL     1       3.071   3.289  19.057  0.00  0.00    +0.000 NA
ATOM     14  C   UNL     1       3.922   2.115  19.360  0.00  0.00    +0.000 C 
ATOM     15  C   UNL     1       4.386   2.140  20.828  0.00  0.00    +0.000 C 
ATOM     16  C   UNL     1       5.504   1.147  21.070  0.00  0.00    +0.000 C 
ATOM     17  O   UNL     1       3.251   1.882  21.663  0.00  0.00    +0.000 OA
ATOM     18  C   UNL     1       2.296   2.957  21.522  0.00  0.00    +0.000 C 
ATOM     19  C   UNL     1       1.052   2.573  22.323  0.00  0.00    +0.000 C 
ATOM     20  C   UNL     1       1.941   3.250  20.031  0.00  0.00    +0.000 C 
ENDBRANCH   1  13
BRANCH   1  21
ATOM     21  C   UNL     1       3.009   5.794  19.004  0.00  0.00    +0.000 A 
ATOM     22  C   UNL     1       2.476   6.303  20.198  0.00  0.00    +0.000 A 
ATOM     23  C   UNL     1       1.908   7.578  20.233  0.00  0.00    +0.000 A 
ATOM     24  C   UNL     1       1.872   8.359  19.080  0.00  0.00    +0.000 A 
ATOM     25 CL   UNL     1       1.285   9.974  19.160  0.00  0.00    +0.000 Cl
ATOM     26  C   UNL     1       2.350   7.855  17.874  0.00  0.00    +0.000 A 
ATOM     27  C   UNL     1       2.900   6.573  17.832  0.00  0.00    +0.000 A 
ENDBRANCH   1  21
TORSDOF 4
ENDMDL
MODEL 2
REMARK VINA RESULT:      -7.1      3.790      6.986
REMARK  Name = 
REMARK  7 active torsions:
REMARK  status: ('A' for Active; 'I' for Inactive)
REMARK    1  A    between atoms: C_1  and  C_2
REMARK    2  A    between atoms: C_6  and  C_7
REMARK    3  A    between atoms: C_7  and  C_8
REMARK    4  A    between atoms: C_7  and  N_15
REMARK    5  A    between atoms: C_17  and  C_18
REMARK    6  A    between atoms: C_20  and  C_21
REMARK    7  A    between atoms: C_23  and  O_24
REMARK                            x       y       z     vdW  Elec       q    Type
REMARK                         _______ _______ _______ _____ _____    ______ ____
ROOT
ATOM      1  C   UNL     1       3.887   6.468  18.188  0.00  0.00    +0.000 C 
ENDROOT
BRANCH   1   7
ATOM      2  C   UNL     1      -0.491  11.358  21.213  0.00  0.00    +0.000 C 
ATOM      3  C   UNL     1       0.271  10.335  20.470  0.00  0.00    +0.000 A 
ATOM      4  N   UNL     1       0.715  10.572  19.183  0.00  0.00    +0.000 NA
ATOM      5  C   UNL     1       1.368   9.474  18.930  0.00  0.00    +0.000 A 
ATOM      6  S   UNL     1       2.346   8.890  17.633  0.00  0.00    +0.000 S 
ATOM      7  C   UNL     1       2.771   7.436  18.632  0.00  0.00    +0.000 A 
ATOM      8  C   UNL     1       2.131   7.478  19.828  0.00  0.00    +0.000 A 
ATOM      9  N   UNL     1       1.355   8.622  19.987  0.00  0.00    +0.000 N 
ATOM     10  N   UNL     1       0.632   9.147  21.002  0.00  0.00    +0.000 NA
BRANCH   8  11
ATOM     11  O   UNL     1       2.264   6.565  20.853  0.00  0.00    +0.000 OA
ATOM     12  H   UNL     1       1.929   5.707  20.514  0.00  0.00    +0.000 HD
ENDBRANCH   8  11
ENDBRANCH   1   7
BRANCH   1  13
ATOM     13  N   UNL     1       4.440   6.820  16.837  0.00  0.00    +0.000 NA
ATOM     14  C   UNL     1       5.614   7.715  16.958  0.00  0.00    +0.000 C 
ATOM     15  C   UNL     1       6.841   6.942  17.474  0.00  0.00    +0.000 C 
ATOM     16  C   UNL     1       7.943   7.885  17.913  0.00  0.00    +0.000 C 
ATOM     17  O   UNL     1       7.279   6.051  16.441  0.00  0.00    +0.000 OA
ATOM     18  C   UNL     1       6.253   5.064  16.192  0.00  0.00    +0.000 C 
ATOM     19  C   UNL     1       6.707   4.224  14.998  0.00  0.00    +0.000 C 
ATOM     20  C   UNL     1       4.856   5.706  15.934  0.00  0.00    +0.000 C 
ENDBRANCH   1  13
BRANCH   1  21
ATOM     21  C   UNL     1       3.504   4.988  18.269  0.00  0.00    +0.000 A 
ATOM     22  C   UNL     1       4.237   4.068  19.034  0.00  0.00    +0.000 A 
ATOM     23  C   UNL     1       3.718   2.800  19.306  0.00  0.00    +0.000 A 
ATOM     24  C   UNL     1       2.462   2.441  18.822  0.00  0.00    +0.000 A 
ATOM     25 CL   UNL     1       1.777   0.927  19.265  0.00  0.00    +0.000 Cl
ATOM     26  C   UNL     1       1.739   3.319  18.020  0.00  0.00    +0.000 A 
ATOM     27  C   UNL     1       2.265   4.579  17.731  0.00  0.00    +0.000 A 
ENDBRANCH   1  21
TORSDOF 4
ENDMDL
MODEL 3
REMARK VINA RESULT:      -7.0      3.901      7.124
REMARK  Name = 
REMARK  7 active torsions:
REMARK  status: ('A' for Active; 'I' for Inactive)
REMARK    1  A    between atoms: C_1  and  C_2
REMARK    2  A    between atoms: C_6  and  C_7
REMARK    3  A    between atoms: C_7  and  C_8
REMARK    4  A    between atoms: C_7  and  N_15
REMARK    5  A    between atoms: C_17  and  C_18
REMARK    6  A    between atoms: C_20  and  C_21
REMARK    7  A    between atoms: C_23  and  O_24
REMARK                            x       y       z     vdW  Elec       q    Type
REMARK                         _______ _______ _______ _____ _____    ______ ____
ROOT
ATOM      1  C   UNL     1       3.963   6.668  18.313  0.00  0.00    +0.000 C 
ENDROOT
BRANCH   1   7
ATOM      2  C   UNL     1      -0.899  11.292  20.998  0.00  0.00    +0.000 C 
ATOM      3  C   UNL     1      -0.030  10.312  20.318  0.00  0.00    +0.000 A 
ATOM      4  N   UNL     1       0.466  10.558  19.052  0.00  0.00    +0.000 NA
ATOM      5  C   UNL     1       1.206   9.504  18.857  0.00  0.00    +0.000 A 
ATOM      6  S   UNL     1       2.291   8.966  17.626  0.00  0.00    +0.000 S 
ATOM      7  C   UNL     1       2.760   7.563  18.677  0.00  0.00    +0.000 A 
ATOM      8  C   UNL     1       2.054   7.581  19.836  0.00  0.00    +0.000 A 
ATOM      9  N   UNL     1       1.194   8.671  19.929  0.00  0.00    +0.000 N 
ATOM     10  N   UNL     1       0.383   9.162  20.893  0.00  0.00    +0.000 NA
BRANCH   8  11
ATOM     11  O   UNL     1       2.194   6.698  20.886  0.00  0.00    +0.000 OA
ATOM     12  H   UNL     1       2.198   7.235  21.709  0.00  0.00    +0.000 HD
ENDBRANCH   8  11
ENDBRANCH   1   7
BRANCH   1  13
ATOM     13  N   UNL     1       4.484   6.949  16.933  0.00  0.00    +0.000 NA
ATOM     14  C   UNL     1       5.658   7.850  16.980  0.00  0.00    +0.000 C 
ATOM     15  C   UNL     1       6.898   7.106  17.507  0.00  0.00    +0.000 C 
ATOM     16  C   UNL     1       8.008   8.072  17.870  0.00  0.00    +0.000 C 
ATOM     17  O   UNL     1       7.314   6.163  16.512  0.00  0.00    +0.000 OA
ATOM     18  C   UNL     1       6.285   5.163  16.339  0.00  0.00    +0.000 C 
ATOM     19  C   UNL     1       6.713   4.262  15.181  0.00  0.00    +0.000 C 
ATOM     20  C   UNL     1       4.880   5.789  16.081  0.00  0.00    +0.000 C 
ENDBRANCH   1  13
BRANCH   1  21
ATOM     21  C   UNL     1       3.719   5.172  18.527  0.00  0.00    +0.000 A 
ATOM     22  C   UNL     1       2.811   4.444  17.743  0.00  0.00    +0.000 A 
ATOM     23  C   UNL     1       2.806   3.048  17.776  0.00  0.00    +0.000 A 
ATOM     24  C   UNL     1       3.711   2.366  18.587  0.00  0.00    +0.000 A 
ATOM     25 CL   UNL     1       3.784   0.648  18.529  0.00  0.00    +0.000 Cl
ATOM     26  C   UNL     1       4.587   3.067  19.410  0.00  0.00    +0.000 A 
ATOM     27  C   UNL     1       4.580   4.463  19.393  0.00  0.00    +0.000 A 
ENDBRANCH   1  21
TORSDOF 4
ENDMDL
MODEL 4
REMARK VINA RESULT:      -6.9      3.813      6.734
REMARK  Name = 
REMARK  7 active torsions:
REMARK  status: ('A' for Active; 'I' for Inactive)
REMARK    1  A    between atoms: C_1  and  C_2
REMARK    2  A    between atoms: C_6  and  C_7
REMARK    3  A    between atoms: C_7  and  C_8
REMARK    4  A    between atoms: C_7  and  N_15
REMARK    5  A    between atoms: C_17  and  C_18
REMARK    6  A    between atoms: C_20  and  C_21
REMARK    7  A    between atoms: C_23  and  O_24
REMARK                            x       y       z     vdW  Elec       q    Type
REMARK                         _______ _______ _______ _____ _____    ______ ____
ROOT
ATOM      1  C   UNL     1       3.855   6.309  18.459  0.00  0.00    +0.000 C 
ENDROOT
BRANCH   1   7
ATOM      2  C   UNL     1      -1.376  11.130  19.736  0.00  0.00    +0.000 C 
ATOM      3  C   UNL     1      -0.218  10.222  19.616  0.00  0.00    +0.000 A 
ATOM      4  N   UNL     1       0.076   9.308  20.611  0.00  0.00    +0.000 NA
ATOM      5  C   UNL     1       1.102   8.691  20.097  0.00  0.00    +0.000 A 
ATOM      6  S   UNL     1       2.083   7.342  20.543  0.00  0.00    +0.000 S 
ATOM      7  C   UNL     1       2.912   7.435  18.931  0.00  0.00    +0.000 A 
ATOM      8  C   UNL     1       2.426   8.475  18.206  0.00  0.00    +0.000 A 
ATOM      9  N   UNL     1       1.412   9.166  18.863  0.00  0.00    +0.000 N 
ATOM     10  N   UNL     1       0.580  10.178  18.528  0.00  0.00    +0.000 NA
BRANCH   8  11
ATOM     11  O   UNL     1       2.789   8.806  16.918  0.00  0.00    +0.000 OA
ATOM     12  H   UNL     1       2.796   7.971  16.402  0.00  0.00    +0.000 HD
ENDBRANCH   8  11
ENDBRANCH   1   7
BRANCH   1  13
ATOM     13  N   UNL     1       4.545   6.648  17.170  0.00  0.00    +0.000 NA
ATOM     14  C   UNL     1       5.846   7.310  17.420  0.00  0.00    +0.000 C 
ATOM     15  C   UNL     1       6.885   6.297  17.934  0.00  0.00    +0.000 C 
ATOM     16  C   UNL     1       8.104   6.996  18.501  0.00  0.00    +0.000 C 
ATOM     17  O   UNL     1       7.225   5.415  16.857  0.00  0.00    +0.000 OA
ATOM     18  C   UNL     1       6.062   4.646  16.480  0.00  0.00    +0.000 C 
ATOM     19  C   UNL     1       6.437   3.823  15.248  0.00  0.00    +0.000 C 
ATOM     20  C   UNL     1       4.816   5.543  16.204  0.00  0.00    +0.000 C 
ENDBRANCH   1  13
BRANCH   1  21
ATOM     21  C   UNL     1       3.199   4.926  18.397  0.00  0.00    +0.000 A 
ATOM     22  C   UNL     1       3.712   3.825  19.098  0.00  0.00    +0.000 A 
ATOM     23  C   UNL     1       2.954   2.660  19.241  0.00  0.00    +0.000 A 
ATOM     24  C   UNL     1       1.677   2.587  18.691  0.00  0.00    +0.000 A 
ATOM     25 CL   UNL     1       0.701   1.199  18.978  0.00  0.00    +0.000 Cl
ATOM     26  C   UNL     1       1.167   3.649  17.950  0.00  0.00    +0.000 A 
ATOM     27  C   UNL     1       1.931   4.806  17.789  0.00  0.00    +0.000 A 
ENDBRANCH   1  21
TORSDOF 4
ENDMDL
MODEL 5
REMARK VINA RESULT:      -6.6      0.418      1.032
REMARK  Name = 
REMARK  7 active torsions:
REMARK  status: ('A' for Active; 'I' for Inactive)
REMARK    1  A    between atoms: C_1  and  C_2
REMARK    2  A    between atoms: C_6  and  C_7
REMARK    3  A    between atoms: C_7  and  C_8
REMARK    4  A    between atoms: C_7  and  N_15
REMARK    5  A    between atoms: C_17  and  C_18
REMARK    6  A    between atoms: C_20  and  C_21
REMARK    7  A    between atoms: C_23  and  O_24
REMARK                            x       y       z     vdW  Elec       q    Type
REMARK                         _______ _______ _______ _____ _____    ______ ____
ROOT
ATOM      1  C   UNL     1       4.121   4.761  18.761  0.00  0.00    +0.000 C 
ENDROOT
BRANCH   1   7
ATOM      2  C   UNL     1       7.698   5.054  12.488  0.00  0.00    +0.000 C 
ATOM      3  C   UNL     1       7.107   4.892  13.831  0.00  0.00    +0.000 A 
ATOM      4  N   UNL     1       7.710   5.443  14.946  0.00  0.00    +0.000 NA
ATOM      5  C   UNL     1       6.861   5.124  15.881  0.00  0.00    +0.000 A 
ATOM      6  S   UNL     1       6.698   5.457  17.567  0.00  0.00    +0.000 S 
ATOM      7  C   UNL     1       5.070   4.654  17.549  0.00  0.00    +0.000 A 
ATOM      8  C   UNL     1       4.792   4.172  16.311  0.00  0.00    +0.000 A 
ATOM      9  N   UNL     1       5.795   4.444  15.386  0.00  0.00    +0.000 N 
ATOM     10  N   UNL     1       5.934   4.261  14.054  0.00  0.00    +0.000 NA
BRANCH   8  11
ATOM     11  O   UNL     1       3.622   3.553  15.925  0.00  0.00    +0.000 OA
ATOM     12  H   UNL     1       2.884   4.086  16.295  0.00  0.00    +0.000 HD
ENDBRANCH   8  11
ENDBRANCH   1   7
BRANCH   1  13
ATOM     13  N   UNL     1       3.121   3.642  18.800  0.00  0.00    +0.000 NA
ATOM     14  C   UNL     1       3.792   2.332  18.970  0.00  0.00    +0.000 C 
ATOM     15  C   UNL     1       4.320   2.171  20.407  0.00  0.00    +0.000 C 
ATOM     16  C   UNL     1       5.281   1.005  20.514  0.00  0.00    +0.000 C 
ATOM     17  O   UNL     1       3.197   2.021  21.284  0.00  0.00    +0.000 OA
ATOM     18  C   UNL     1       2.414   3.236  21.274  0.00  0.00    +0.000 C 
ATOM     19  C   UNL     1       1.164   2.981  22.115  0.00  0.00    +0.000 C 
ATOM     20  C   UNL     1       2.043   3.696  19.831  0.00  0.00    +0.000 C 
ENDBRANCH   1  13
BRANCH   1  21
ATOM     21  C   UNL     1       3.441   6.125  18.907  0.00  0.00    +0.000 A 
ATOM     22  C   UNL     1       3.285   7.001  17.822  0.00  0.00    +0.000 A 
ATOM     23  C   UNL     1       2.434   8.104  17.919  0.00  0.00    +0.000 A 
ATOM     24  C   UNL     1       1.729   8.340  19.097  0.00  0.00    +0.000 A 
ATOM     25 CL   UNL     1       0.589   9.627  19.167  0.00  0.00    +0.000 Cl
ATOM     26  C   UNL     1       1.906   7.513  20.202  0.00  0.00    +0.000 A 
ATOM     27  C   UNL     1       2.771   6.422  20.113  0.00  0.00    +0.000 A 
ENDBRANCH   1  21
TORSDOF 4
ENDMDL
MODEL 6
REMARK VINA RESULT:      -6.6      7.466     10.848
REMARK  Name = 
REMARK  7 active torsions:
REMARK  status: ('A' for Active; 'I' for Inactive)
REMARK    1  A    between atoms: C_1  and  C_2
REMARK    2  A    between atoms: C_6  and  C_7
REMARK    3  A    between atoms: C_7  and  C_8
REMARK    4  A    between atoms: C_7  and  N_15
REMARK    5  A    between atoms: C_17  and  C_18
REMARK    6  A    between atoms: C_20  and  C_21
REMARK    7  A    between atoms: C_23  and  O_24
REMARK                            x       y       z     vdW  Elec       q    Type
REMARK                         _______ _______ _______ _____ _____    ______ ____
ROOT
ATOM      1  C   UNL     1      -0.207  11.391  19.300  0.00  0.00    +0.000 C 
ENDROOT
BRANCH   1   7
ATOM      2  C   UNL     1      -7.058  12.705  17.412  0.00  0.00    +0.000 C 
ATOM      3  C   UNL     1      -5.697  12.258  17.771  0.00  0.00    +0.000 A 
ATOM      4  N   UNL     1      -4.867  11.677  16.831  0.00  0.00    +0.000 NA
ATOM      5  C   UNL     1      -3.781  11.494  17.525  0.00  0.00    +0.000 A 
ATOM      6  S   UNL     1      -2.183  10.932  17.195  0.00  0.00    +0.000 S 
ATOM      7  C   UNL     1      -1.691  11.390  18.880  0.00  0.00    +0.000 A 
ATOM      8  C   UNL     1      -2.752  11.888  19.566  0.00  0.00    +0.000 A 
ATOM      9  N   UNL     1      -3.912  11.947  18.799  0.00  0.00    +0.000 N 
ATOM     10  N   UNL     1      -5.157  12.436  18.996  0.00  0.00    +0.000 NA
BRANCH   8  11
ATOM     11  O   UNL     1      -2.727  12.384  20.852  0.00  0.00    +0.000 OA
ATOM     12  H   UNL     1      -2.341  11.682  21.419  0.00  0.00    +0.000 HD
ENDBRANCH   8  11
ENDBRANCH   1   7
BRANCH   1  13
ATOM     13  N   UNL     1       0.590  12.433  18.570  0.00  0.00    +0.000 NA
ATOM     14  C   UNL     1      -0.122  13.732  18.551  0.00  0.00    +0.000 C 
ATOM     15  C   UNL     1      -0.085  14.397  19.939  0.00  0.00    +0.000 C 
ATOM     16  C   UNL     1      -1.069  15.545  20.026  0.00  0.00    +0.000 C 
ATOM     17  O   UNL     1       1.258  14.822  20.198  0.00  0.00    +0.000 OA
ATOM     18  C   UNL     1       2.121  13.666  20.280  0.00  0.00    +0.000 C 
ATOM     19  C   UNL     1       3.556  14.175  20.423  0.00  0.00    +0.000 C 
ATOM     20  C   UNL     1       1.975  12.723  19.047  0.00  0.00    +0.000 C 
ENDBRANCH   1  13
BRANCH   1  21
ATOM     21  C   UNL     1       0.467  10.017  19.227  0.00  0.00    +0.000 A 
ATOM     22  C   UNL     1       1.083   9.550  18.057  0.00  0.00    +0.000 A 
ATOM     23  C   UNL     1       1.914   8.427  18.094  0.00  0.00    +0.000 A 
ATOM     24  C   UNL     1       2.141   7.766  19.298  0.00  0.00    +0.000 A 
ATOM     25 CL   UNL     1       3.262   6.463  19.359  0.00  0.00    +0.000 Cl
ATOM     26  C   UNL     1       1.502   8.183  20.462  0.00  0.00    +0.000 A 
ATOM     27  C   UNL     1       0.655   9.292  20.423  0.00  0.00    +0.000 A 
ENDBRANCH   1  21
TORSDOF 4
ENDMDL
MODEL 7
REMARK VINA RESULT:      -6.6      7.397     10.898
REMARK  Name = 
REMARK  7 active torsions:
REMARK  status: ('A' for Active; 'I' for Inactive)
REMARK    1  A    between atoms: C_1  and  C_2
REMARK    2  A    between atoms: C_6  and  C_7
REMARK    3  A    between atoms: C_7  and  C_8
REMARK    4  A    between atoms: C_7  and  N_15
REMARK    5  A    between atoms: C_17  and  C_18
REMARK    6  A    between atoms: C_20  and  C_21
REMARK    7  A    between atoms: C_23  and  O_24
REMARK                            x       y       z     vdW  Elec       q    Type
REMARK                         _______ _______ _______ _____ _____    ______ ____
ROOT
ATOM      1  C   UNL     1       0.134  11.854  19.470  0.00  0.00    +0.000 C 
ENDROOT
BRANCH   1   7
ATOM      2  C   UNL     1      -6.968  11.429  18.202  0.00  0.00    +0.000 C 
ATOM      3  C   UNL     1      -5.544  11.697  18.481  0.00  0.00    +0.000 A 
ATOM      4  N   UNL     1      -5.134  12.154  19.719  0.00  0.00    +0.000 NA
ATOM      5  C   UNL     1      -3.842  12.201  19.561  0.00  0.00    +0.000 A 
ATOM      6  S   UNL     1      -2.485  12.545  20.571  0.00  0.00    +0.000 S 
ATOM      7  C   UNL     1      -1.377  12.044  19.224  0.00  0.00    +0.000 A 
ATOM      8  C   UNL     1      -2.093  11.697  18.124  0.00  0.00    +0.000 A 
ATOM      9  N   UNL     1      -3.468  11.783  18.324  0.00  0.00    +0.000 N 
ATOM     10  N   UNL     1      -4.557  11.463  17.589  0.00  0.00    +0.000 NA
BRANCH   8  11
ATOM     11  O   UNL     1      -1.579  11.216  16.939  0.00  0.00    +0.000 OA
ATOM     12  H   UNL     1      -1.013  11.928  16.566  0.00  0.00    +0.000 HD
ENDBRANCH   8  11
ENDBRANCH   1   7
BRANCH   1  13
ATOM     13  N   UNL     1       0.969  12.735  18.586  0.00  0.00    +0.000 NA
ATOM     14  C   UNL     1       0.309  14.041  18.359  0.00  0.00    +0.000 C 
ATOM     15  C   UNL     1       0.376  14.916  19.623  0.00  0.00    +0.000 C 
ATOM     16  C   UNL     1      -0.563  16.101  19.524  0.00  0.00    +0.000 C 
ATOM     17  O   UNL     1       1.735  15.324  19.816  0.00  0.00    +0.000 OA
ATOM     18  C   UNL     1       2.552  14.163  20.083  0.00  0.00    +0.000 C 
ATOM     19  C   UNL     1       4.006  14.631  20.149  0.00  0.00    +0.000 C 
ATOM     20  C   UNL     1       2.365  13.042  19.016  0.00  0.00    +0.000 C 
ENDBRANCH   1  13
BRANCH   1  21
ATOM     21  C   UNL     1       0.601  10.397  19.411  0.00  0.00    +0.000 A 
ATOM     22  C   UNL     1       1.231   9.860  18.279  0.00  0.00    +0.000 A 
ATOM     23  C   UNL     1       1.882   8.626  18.348  0.00  0.00    +0.000 A 
ATOM     24  C   UNL     1       1.913   7.920  19.548  0.00  0.00    +0.000 A 
ATOM     25 CL   UNL     1       2.821   6.463  19.659  0.00  0.00    +0.000 Cl
ATOM     26  C   UNL     1       1.252   8.409  20.671  0.00  0.00    +0.000 A 
ATOM     27  C   UNL     1       0.585   9.633  20.598  0.00  0.00    +0.000 A 
ENDBRANCH   1  21
TORSDOF 4
ENDMDL
MODEL 8
REMARK VINA RESULT:      -6.6      6.095      9.268
REMARK  Name = 
REMARK  7 active torsions:
REMARK  status: ('A' for Active; 'I' for Inactive)
REMARK    1  A    between atoms: C_1  and  C_2
REMARK    2  A    between atoms: C_6  and  C_7
REMARK    3  A    between atoms: C_7  and  C_8
REMARK    4  A    between atoms: C_7  and  N_15
REMARK    5  A    between atoms: C_17  and  C_18
REMARK    6  A    between atoms: C_20  and  C_21
REMARK    7  A    between atoms: C_23  and  O_24
REMARK                            x       y       z     vdW  Elec       q    Type
REMARK                         _______ _______ _______ _____ _____    ______ ____
ROOT
ATOM      1  C   UNL     1       0.105  11.685  18.864  0.00  0.00    +0.000 C 
ENDROOT
BRANCH   1   7
ATOM      2  C   UNL     1       2.492   5.039  20.405  0.00  0.00    +0.000 C 
ATOM      3  C   UNL     1       2.182   6.445  20.080  0.00  0.00    +0.000 A 
ATOM      4  N   UNL     1       2.505   6.979  18.847  0.00  0.00    +0.000 NA
ATOM      5  C   UNL     1       2.021   8.184  18.953  0.00  0.00    +0.000 A 
ATOM      6  S   UNL     1       1.849   9.543  17.903  0.00  0.00    +0.000 S 
ATOM      7  C   UNL     1       0.871  10.383  19.181  0.00  0.00    +0.000 A 
ATOM      8  C   UNL     1       0.779   9.611  20.293  0.00  0.00    +0.000 A 
ATOM      9  N   UNL     1       1.420   8.383  20.154  0.00  0.00    +0.000 N 
ATOM     10  N   UNL     1       1.523   7.273  20.919  0.00  0.00    +0.000 NA
BRANCH   8  11
ATOM     11  O   UNL     1       0.067   9.912  21.435  0.00  0.00    +0.000 OA
ATOM     12  H   UNL     1       0.311  10.830  21.687  0.00  0.00    +0.000 HD
ENDBRANCH   8  11
ENDBRANCH   1   7
BRANCH   1  13
ATOM     13  N   UNL     1       0.383  12.766  19.869  0.00  0.00    +0.000 NA
ATOM     14  C   UNL     1       1.809  13.164  19.843  0.00  0.00    +0.000 C 
ATOM     15  C   UNL     1       2.125  13.986  18.581  0.00  0.00    +0.000 C 
ATOM     16  C   UNL     1       3.620  14.121  18.371  0.00  0.00    +0.000 C 
ATOM     17  O   UNL     1       1.485  15.262  18.704  0.00  0.00    +0.000 OA
ATOM     18  C   UNL     1       0.052  15.080  18.720  0.00  0.00    +0.000 C 
ATOM     19  C   UNL     1      -0.580  16.447  18.985  0.00  0.00    +0.000 C 
ATOM     20  C   UNL     1      -0.406  14.030  19.778  0.00  0.00    +0.000 C 
ENDBRANCH   1  13
BRANCH   1  21
ATOM     21  C   UNL     1      -1.399  11.491  18.649  0.00  0.00    +0.000 A 
ATOM     22  C   UNL     1      -2.350  11.972  19.561  0.00  0.00    +0.000 A 
ATOM     23  C   UNL     1      -3.702  12.022  19.214  0.00  0.00    +0.000 A 
ATOM     24  C   UNL     1      -4.115  11.598  17.952  0.00  0.00    +0.000 A 
ATOM     25 CL   UNL     1      -5.761  11.779  17.486  0.00  0.00    +0.000 Cl
ATOM     26  C   UNL     1      -3.195  11.072  17.051  0.00  0.00    +0.000 A 
ATOM     27  C   UNL     1      -1.846  11.003  17.403  0.00  0.00    +0.000 A 
ENDBRANCH   1  21
TORSDOF 4
ENDMDL
MODEL 9
REMARK VINA RESULT:      -6.4      7.349     10.759
REMARK  Name = 
REMARK  7 active torsions:
REMARK  status: ('A' for Active; 'I' for Inactive)
REMARK    1  A    between atoms: C_1  and  C_2
REMARK    2  A    between atoms: C_6  and  C_7
REMARK    3  A    between atoms: C_7  and  C_8
REMARK    4  A    between atoms: C_7  and  N_15
REMARK    5  A    between atoms: C_17  and  C_18
REMARK    6  A    between atoms: C_20  and  C_21
REMARK    7  A    between atoms: C_23  and  O_24
REMARK                            x       y       z     vdW  Elec       q    Type
REMARK                         _______ _______ _______ _____ _____    ______ ____
ROOT
ATOM      1  C   UNL     1       0.217  11.612  19.363  0.00  0.00    +0.000 C 
ENDROOT
BRANCH   1   7
ATOM      2  C   UNL     1      -6.792  12.167  17.688  0.00  0.00    +0.000 C 
ATOM      3  C   UNL     1      -5.387  11.871  18.030  0.00  0.00    +0.000 A 
ATOM      4  N   UNL     1      -4.556  11.225  17.134  0.00  0.00    +0.000 NA
ATOM      5  C   UNL     1      -3.430  11.216  17.787  0.00  0.00    +0.000 A 
ATOM      6  S   UNL     1      -1.809  10.727  17.449  0.00  0.00    +0.000 S 
ATOM      7  C   UNL     1      -1.280  11.449  19.028  0.00  0.00    +0.000 A 
ATOM      8  C   UNL     1      -2.345  11.962  19.696  0.00  0.00    +0.000 A 
ATOM      9  N   UNL     1      -3.539  11.832  18.993  0.00  0.00    +0.000 N 
ATOM     10  N   UNL     1      -4.808  12.255  19.189  0.00  0.00    +0.000 NA
BRANCH   8  11
ATOM     11  O   UNL     1      -2.303  12.632  20.900  0.00  0.00    +0.000 OA
ATOM     12  H   UNL     1      -2.284  11.948  21.605  0.00  0.00    +0.000 HD
ENDBRANCH   8  11
ENDBRANCH   1   7
BRANCH   1  13
ATOM     13  N   UNL     1       0.891  12.618  18.476  0.00  0.00    +0.000 NA
ATOM     14  C   UNL     1       0.115  13.878  18.412  0.00  0.00    +0.000 C 
ATOM     15  C   UNL     1       0.240  14.666  19.728  0.00  0.00    +0.000 C 
ATOM     16  C   UNL     1      -0.791  15.773  19.808  0.00  0.00    +0.000 C 
ATOM     17  O   UNL     1       1.577  15.170  19.825  0.00  0.00    +0.000 OA
ATOM     18  C   UNL     1       2.502  14.065  19.925  0.00  0.00    +0.000 C 
ATOM     19  C   UNL     1       3.916  14.646  19.891  0.00  0.00    +0.000 C 
ATOM     20  C   UNL     1       2.296  13.009  18.796  0.00  0.00    +0.000 C 
ENDBRANCH   1  13
BRANCH   1  21
ATOM     21  C   UNL     1       0.996  10.295  19.412  0.00  0.00    +0.000 A 
ATOM     22  C   UNL     1       0.967   9.451  20.532  0.00  0.00    +0.000 A 
ATOM     23  C   UNL     1       1.459   8.146  20.450  0.00  0.00    +0.000 A 
ATOM     24  C   UNL     1       1.978   7.671  19.248  0.00  0.00    +0.000 A 
ATOM     25 CL   UNL     1       2.467   6.027  19.120  0.00  0.00    +0.000 Cl
ATOM     26  C   UNL     1       2.063   8.506  18.138  0.00  0.00    +0.000 A 
ATOM     27  C   UNL     1       1.590   9.816  18.224  0.00  0.00    +0.000 A 
ENDBRANCH   1  21
TORSDOF 4
ENDMDL
