MODEL 1
REMARK VINA RESULT:      -8.6      0.000      0.000
REMARK  Name = 
REMARK  6 active torsions:
REMARK  status: ('A' for Active; 'I' for Inactive)
REMARK    1  A    between atoms: C_2  and  C_3
REMARK    2  A    between atoms: C_3  and  C_4
REMARK    3  A    between atoms: N_14  and  C_15
REMARK    4  A    between atoms: N_17  and  C_18
REMARK    5  A    between atoms: C_20  and  N_21
REMARK    6  A    between atoms: C_22  and  C_24
REMARK                            x       y       z     vdW  Elec       q    Type
REMARK                         _______ _______ _______ _____ _____    ______ ____
ROOT
ATOM      1  C   UNL     1       1.969   7.796  19.682  0.00  0.00    +0.000 A 
ATOM      2  C   UNL     1       2.032   6.471  19.305  0.00  0.00    +0.000 A 
ATOM      3  N   UNL     1       1.441   5.795  20.341  0.00  0.00    +0.000 N 
ATOM      4  C   UNL     1       1.048   6.710  21.267  0.00  0.00    +0.000 A 
ATOM      5  N   UNL     1       1.386   7.921  20.901  0.00  0.00    +0.000 NA
ENDROOT
BRANCH   1   8
ATOM      6  O   UNL     1       2.318  10.479  17.420  0.00  0.00    +0.000 OA
ATOM      7  C   UNL     1       1.715   9.578  18.020  0.00  0.00    +0.000 C 
ATOM      8  N   UNL     1       2.410   8.865  18.957  0.00  0.00    +0.000 N 
ATOM      9  H   UNL     1       3.371   9.153  19.077  0.00  0.00    +0.000 HD
BRANCH   7  10
ATOM     10  C   UNL     1       0.242   9.306  17.727  0.00  0.00    +0.000 C 
BRANCH  10  11
ATOM     11  C   UNL     1      -0.747  10.313  18.304  0.00  0.00    +0.000 A 
ATOM     12  C   UNL     1      -0.452  10.889  19.556  0.00  0.00    +0.000 A 
ATOM     13  C   UNL     1      -1.343  11.755  20.179  0.00  0.00    +0.000 A 
ATOM     14  C   UNL     1      -2.560  12.050  19.574  0.00  0.00    +0.000 A 
ATOM     15  C   UNL     1      -2.901  11.491  18.336  0.00  0.00    +0.000 A 
ATOM     16  C   UNL     1      -4.144  11.805  17.759  0.00  0.00    +0.000 A 
ATOM     17  C   UNL     1      -4.520  11.279  16.526  0.00  0.00    +0.000 A 
ATOM     18  C   UNL     1      -3.654  10.428  15.856  0.00  0.00    +0.000 A 
ATOM     19  C   UNL     1      -2.419  10.097  16.425  0.00  0.00    +0.000 A 
ATOM     20  C   UNL     1      -1.999  10.613  17.676  0.00  0.00    +0.000 A 
ENDBRANCH  10  11
ENDBRANCH   7  10
ENDBRANCH   1   8
BRANCH   3  21
ATOM     21  C   UNL     1       1.232   4.370  20.371  0.00  0.00    +0.000 C 
ATOM     22  C   UNL     1       1.796   3.671  19.104  0.00  0.00    +0.000 C 
ATOM     23  C   UNL     1       3.044   3.253  19.906  0.00  0.00    +0.000 C 
ATOM     24  C   UNL     1       2.239   3.539  21.198  0.00  0.00    +0.000 C 
BRANCH  23  25
ATOM     25  N   UNL     1       4.216   4.118  19.682  0.00  0.00    +0.000 N 
ATOM     26  C   UNL     1       4.873   4.179  18.465  0.00  0.00    +0.000 C 
ATOM     27  O   UNL     1       4.574   3.486  17.502  0.00  0.00    +0.000 OA
ATOM     28  H   UNL     1       4.557   4.780  20.379  0.00  0.00    +0.000 HD
BRANCH  26  29
ATOM     29  C   UNL     1       6.002   5.164  18.407  0.00  0.00    +0.000 A 
ATOM     30  C   UNL     1       6.000   6.147  17.423  0.00  0.00    +0.000 A 
ATOM     31  C   UNL     1       7.062   7.044  17.387  0.00  0.00    +0.000 A 
ATOM     32  C   UNL     1       8.084   6.927  18.325  0.00  0.00    +0.000 A 
ATOM     33  C   UNL     1       8.000   5.915  19.271  0.00  0.00    +0.000 A 
ATOM     34  N   UNL     1       6.982   5.027  19.344  0.00  0.00    +0.000 NA
ENDBRANCH  26  29
ENDBRANCH  23  25
ENDBRANCH   3  21
TORSDOF 6
ENDMDL
MODEL 2
REMARK VINA RESULT:      -8.6      4.889      8.826
REMARK  Name = 
REMARK  6 active torsions:
REMARK  status: ('A' for Active; 'I' for Inactive)
REMARK    1  A    between atoms: C_2  and  C_3
REMARK    2  A    between atoms: C_3  and  C_4
REMARK    3  A    between atoms: N_14  and  C_15
REMARK    4  A    between atoms: N_17  and  C_18
REMARK    5  A    between atoms: C_20  and  N_21
REMARK    6  A    between atoms: C_22  and  C_24
REMARK                            x       y       z     vdW  Elec       q    Type
REMARK                         _______ _______ _______ _____ _____    ______ ____
ROOT
ATOM      1  C   UNL     1       8.298   8.136  18.564  0.00  0.00    +0.000 A 
ATOM      2  C   UNL     1       8.092   6.781  18.709  0.00  0.00    +0.000 A 
ATOM      3  N   UNL     1       7.461   6.407  17.551  0.00  0.00    +0.000 N 
ATOM      4  C   UNL     1       7.326   7.514  16.773  0.00  0.00    +0.000 A 
ATOM      5  N   UNL     1       7.797   8.573  17.381  0.00  0.00    +0.000 NA
ENDROOT
BRANCH   1   8
ATOM      6  O   UNL     1       9.935  10.811  20.177  0.00  0.00    +0.000 OA
ATOM      7  C   UNL     1       9.319  10.253  19.259  0.00  0.00    +0.000 C 
ATOM      8  N   UNL     1       8.924   8.959  19.455  0.00  0.00    +0.000 N 
ATOM      9  H   UNL     1       9.173   8.575  20.357  0.00  0.00    +0.000 HD
BRANCH   7  10
ATOM     10  C   UNL     1       9.001  11.007  17.970  0.00  0.00    +0.000 C 
BRANCH  10  11
ATOM     11  C   UNL     1       9.846  12.248  17.702  0.00  0.00    +0.000 A 
ATOM     12  C   UNL     1      11.219  12.071  17.437  0.00  0.00    +0.000 A 
ATOM     13  C   UNL     1      12.065  13.159  17.259  0.00  0.00    +0.000 A 
ATOM     14  C   UNL     1      11.562  14.451  17.362  0.00  0.00    +0.000 A 
ATOM     15  C   UNL     1      10.207  14.676  17.637  0.00  0.00    +0.000 A 
ATOM     16  C   UNL     1       9.736  15.996  17.743  0.00  0.00    +0.000 A 
ATOM     17  C   UNL     1       8.395  16.264  18.006  0.00  0.00    +0.000 A 
ATOM     18  C   UNL     1       7.509  15.210  18.169  0.00  0.00    +0.000 A 
ATOM     19  C   UNL     1       7.967  13.891  18.078  0.00  0.00    +0.000 A 
ATOM     20  C   UNL     1       9.323  13.577  17.809  0.00  0.00    +0.000 A 
ENDBRANCH  10  11
ENDBRANCH   7  10
ENDBRANCH   1   8
BRANCH   3  21
ATOM     21  C   UNL     1       7.086   5.054  17.226  0.00  0.00    +0.000 C 
ATOM     22  C   UNL     1       6.226   4.403  18.343  0.00  0.00    +0.000 C 
ATOM     23  C   UNL     1       4.958   4.689  17.514  0.00  0.00    +0.000 C 
ATOM     24  C   UNL     1       5.876   4.878  16.281  0.00  0.00    +0.000 C 
BRANCH  23  25
ATOM     25  N   UNL     1       4.218   5.887  17.947  0.00  0.00    +0.000 N 
ATOM     26  C   UNL     1       2.842   5.897  18.101  0.00  0.00    +0.000 C 
ATOM     27  O   UNL     1       2.128   4.937  17.841  0.00  0.00    +0.000 OA
ATOM     28  H   UNL     1       4.680   6.749  18.237  0.00  0.00    +0.000 HD
BRANCH  26  29
ATOM     29  C   UNL     1       2.274   7.186  18.612  0.00  0.00    +0.000 A 
ATOM     30  C   UNL     1       2.042   8.231  17.724  0.00  0.00    +0.000 A 
ATOM     31  C   UNL     1       1.521   9.418  18.226  0.00  0.00    +0.000 A 
ATOM     32  C   UNL     1       1.254   9.522  19.588  0.00  0.00    +0.000 A 
ATOM     33  C   UNL     1       1.515   8.426  20.399  0.00  0.00    +0.000 A 
ATOM     34  N   UNL     1       2.017   7.252  19.949  0.00  0.00    +0.000 NA
ENDBRANCH  26  29
ENDBRANCH  23  25
ENDBRANCH   3  21
TORSDOF 6
ENDMDL
MODEL 3
REMARK VINA RESULT:      -8.5      1.418      1.862
REMARK  Name = 
REMARK  6 active torsions:
REMARK  status: ('A' for Active; 'I' for Inactive)
REMARK    1  A    between atoms: C_2  and  C_3
REMARK    2  A    between atoms: C_3  and  C_4
REMARK    3  A    between atoms: N_14  and  C_15
REMARK    4  A    between atoms: N_17  and  C_18
REMARK    5  A    between atoms: C_20  and  N_21
REMARK    6  A    between atoms: C_22  and  C_24
REMARK                            x       y       z     vdW  Elec       q    Type
REMARK                         _______ _______ _______ _____ _____    ______ ____
ROOT
ATOM      1  C   UNL     1       1.750   6.680  20.424  0.00  0.00    +0.000 A 
ATOM      2  C   UNL     1       1.494   5.329  20.523  0.00  0.00    +0.000 A 
ATOM      3  N   UNL     1       1.823   4.829  19.289  0.00  0.00    +0.000 N 
ATOM      4  C   UNL     1       2.261   5.864  18.523  0.00  0.00    +0.000 A 
ATOM      5  N   UNL     1       2.195   6.994  19.182  0.00  0.00    +0.000 NA
ENDROOT
BRANCH   1   8
ATOM      6  O   UNL     1       1.248   9.620  22.307  0.00  0.00    +0.000 OA
ATOM      7  C   UNL     1       1.267   8.924  21.282  0.00  0.00    +0.000 C 
ATOM      8  N   UNL     1       1.602   7.605  21.417  0.00  0.00    +0.000 N 
ATOM      9  H   UNL     1       1.800   7.316  22.365  0.00  0.00    +0.000 HD
BRANCH   7  10
ATOM     10  C   UNL     1       0.904   9.531  19.929  0.00  0.00    +0.000 C 
BRANCH  10  11
ATOM     11  C   UNL     1      -0.234  10.545  19.941  0.00  0.00    +0.000 A 
ATOM     12  C   UNL     1      -0.371  11.377  21.070  0.00  0.00    +0.000 A 
ATOM     13  C   UNL     1      -1.429  12.270  21.184  0.00  0.00    +0.000 A 
ATOM     14  C   UNL     1      -2.388  12.340  20.180  0.00  0.00    +0.000 A 
ATOM     15  C   UNL     1      -2.301  11.523  19.045  0.00  0.00    +0.000 A 
ATOM     16  C   UNL     1      -3.294  11.615  18.054  0.00  0.00    +0.000 A 
ATOM     17  C   UNL     1      -3.241  10.828  16.906  0.00  0.00    +0.000 A 
ATOM     18  C   UNL     1      -2.192   9.938  16.738  0.00  0.00    +0.000 A 
ATOM     19  C   UNL     1      -1.203   9.828  17.722  0.00  0.00    +0.000 A 
ATOM     20  C   UNL     1      -1.219  10.612  18.903  0.00  0.00    +0.000 A 
ENDBRANCH  10  11
ENDBRANCH   7  10
ENDBRANCH   1   8
BRANCH   3  21
ATOM     21  C   UNL     1       1.763   3.435  18.931  0.00  0.00    +0.000 C 
ATOM     22  C   UNL     1       2.525   3.138  17.612  0.00  0.00    +0.000 C 
ATOM     23  C   UNL     1       3.720   2.618  18.435  0.00  0.00    +0.000 C 
ATOM     24  C   UNL     1       2.760   2.493  19.643  0.00  0.00    +0.000 C 
BRANCH  23  25
ATOM     25  N   UNL     1       4.812   3.596  18.588  0.00  0.00    +0.000 N 
ATOM     26  C   UNL     1       5.327   4.309  17.519  0.00  0.00    +0.000 C 
ATOM     27  O   UNL     1       4.960   4.149  16.362  0.00  0.00    +0.000 OA
ATOM     28  H   UNL     1       5.192   3.865  19.496  0.00  0.00    +0.000 HD
BRANCH  26  29
ATOM     29  C   UNL     1       6.387   5.306  17.878  0.00  0.00    +0.000 A 
ATOM     30  C   UNL     1       6.554   6.440  17.090  0.00  0.00    +0.000 A 
ATOM     31  C   UNL     1       7.550   7.345  17.441  0.00  0.00    +0.000 A 
ATOM     32  C   UNL     1       8.341   7.087  18.557  0.00  0.00    +0.000 A 
ATOM     33  C   UNL     1       8.101   5.930  19.286  0.00  0.00    +0.000 A 
ATOM     34  N   UNL     1       7.139   5.028  18.981  0.00  0.00    +0.000 NA
ENDBRANCH  26  29
ENDBRANCH  23  25
ENDBRANCH   3  21
TORSDOF 6
ENDMDL
MODEL 4
REMARK VINA RESULT:      -8.5      0.992      1.224
REMARK  Name = 
REMARK  6 active torsions:
REMARK  status: ('A' for Active; 'I' for Inactive)
REMARK    1  A    between atoms: C_2  and  C_3
REMARK    2  A    between atoms: C_3  and  C_4
REMARK    3  A    between atoms: N_14  and  C_15
REMARK    4  A    between atoms: N_17  and  C_18
REMARK    5  A    between atoms: C_20  and  N_21
REMARK    6  A    between atoms: C_22  and  C_24
REMARK                            x       y       z     vdW  Elec       q    Type
REMARK                         _______ _______ _______ _____ _____    ______ ____
ROOT
ATOM      1  C   UNL     1       2.048   7.034  19.174  0.00  0.00    +0.000 A 
ATOM      2  C   UNL     1       2.120   5.907  18.383  0.00  0.00    +0.000 A 
ATOM      3  N   UNL     1       1.841   4.873  19.239  0.00  0.00    +0.000 N 
ATOM      4  C   UNL     1       1.609   5.402  20.471  0.00  0.00    +0.000 A 
ATOM      5  N   UNL     1       1.760   6.703  20.457  0.00  0.00    +0.000 NA
ENDROOT
BRANCH   1   8
ATOM      6  O   UNL     1       1.700  10.471  18.458  0.00  0.00    +0.000 OA
ATOM      7  C   UNL     1       1.392   9.387  18.974  0.00  0.00    +0.000 C 
ATOM      8  N   UNL     1       2.225   8.324  18.761  0.00  0.00    +0.000 N 
ATOM      9  H   UNL     1       3.035   8.531  18.195  0.00  0.00    +0.000 HD
BRANCH   7  10
ATOM     10  C   UNL     1       0.136   9.270  19.833  0.00  0.00    +0.000 C 
BRANCH  10  11
ATOM     11  C   UNL     1      -0.871  10.407  19.696  0.00  0.00    +0.000 A 
ATOM     12  C   UNL     1      -0.998  11.313  20.768  0.00  0.00    +0.000 A 
ATOM     13  C   UNL     1      -1.948  12.328  20.746  0.00  0.00    +0.000 A 
ATOM     14  C   UNL     1      -2.807  12.448  19.660  0.00  0.00    +0.000 A 
ATOM     15  C   UNL     1      -2.726  11.562  18.578  0.00  0.00    +0.000 A 
ATOM     16  C   UNL     1      -3.619  11.709  17.501  0.00  0.00    +0.000 A 
ATOM     17  C   UNL     1      -3.568  10.856  16.402  0.00  0.00    +0.000 A 
ATOM     18  C   UNL     1      -2.622   9.843  16.368  0.00  0.00    +0.000 A 
ATOM     19  C   UNL     1      -1.736   9.678  17.439  0.00  0.00    +0.000 A 
ATOM     20  C   UNL     1      -1.754  10.526  18.575  0.00  0.00    +0.000 A 
ENDBRANCH  10  11
ENDBRANCH   7  10
ENDBRANCH   1   8
BRANCH   3  21
ATOM     21  C   UNL     1       1.753   3.490  18.846  0.00  0.00    +0.000 C 
ATOM     22  C   UNL     1       2.512   3.211  17.521  0.00  0.00    +0.000 C 
ATOM     23  C   UNL     1       3.694   2.645  18.334  0.00  0.00    +0.000 C 
ATOM     24  C   UNL     1       2.728   2.510  19.536  0.00  0.00    +0.000 C 
BRANCH  23  25
ATOM     25  N   UNL     1       4.806   3.596  18.513  0.00  0.00    +0.000 N 
ATOM     26  C   UNL     1       5.272   4.397  17.485  0.00  0.00    +0.000 C 
ATOM     27  O   UNL     1       4.842   4.343  16.340  0.00  0.00    +0.000 OA
ATOM     28  H   UNL     1       5.237   3.779  19.419  0.00  0.00    +0.000 HD
BRANCH  26  29
ATOM     29  C   UNL     1       6.364   5.349  17.873  0.00  0.00    +0.000 A 
ATOM     30  C   UNL     1       6.566   6.500  17.120  0.00  0.00    +0.000 A 
ATOM     31  C   UNL     1       7.590   7.362  17.498  0.00  0.00    +0.000 A 
ATOM     32  C   UNL     1       8.373   7.045  18.604  0.00  0.00    +0.000 A 
ATOM     33  C   UNL     1       8.097   5.874  19.297  0.00  0.00    +0.000 A 
ATOM     34  N   UNL     1       7.107   5.013  18.965  0.00  0.00    +0.000 NA
ENDBRANCH  26  29
ENDBRANCH  23  25
ENDBRANCH   3  21
TORSDOF 6
ENDMDL
MODEL 5
REMARK VINA RESULT:      -8.4      1.037      1.360
REMARK  Name = 
REMARK  6 active torsions:
REMARK  status: ('A' for Active; 'I' for Inactive)
REMARK    1  A    between atoms: C_2  and  C_3
REMARK    2  A    between atoms: C_3  and  C_4
REMARK    3  A    between atoms: N_14  and  C_15
REMARK    4  A    between atoms: N_17  and  C_18
REMARK    5  A    between atoms: C_20  and  N_21
REMARK    6  A    between atoms: C_22  and  C_24
REMARK                            x       y       z     vdW  Elec       q    Type
REMARK                         _______ _______ _______ _____ _____    ______ ____
ROOT
ATOM      1  C   UNL     1       2.186   7.178  19.224  0.00  0.00    +0.000 A 
ATOM      2  C   UNL     1       2.404   6.066  18.438  0.00  0.00    +0.000 A 
ATOM      3  N   UNL     1       1.904   5.025  19.176  0.00  0.00    +0.000 N 
ATOM      4  C   UNL     1       1.411   5.534  20.336  0.00  0.00    +0.000 A 
ATOM      5  N   UNL     1       1.601   6.829  20.397  0.00  0.00    +0.000 NA
ENDROOT
BRANCH   1   8
ATOM      6  O   UNL     1       2.170  10.497  18.030  0.00  0.00    +0.000 OA
ATOM      7  C   UNL     1       1.681   9.391  18.300  0.00  0.00    +0.000 C 
ATOM      8  N   UNL     1       2.492   8.468  18.901  0.00  0.00    +0.000 N 
ATOM      9  H   UNL     1       3.434   8.788  19.078  0.00  0.00    +0.000 HD
BRANCH   7  10
ATOM     10  C   UNL     1       0.216   9.096  17.987  0.00  0.00    +0.000 C 
BRANCH  10  11
ATOM     11  C   UNL     1      -0.784  10.160  18.427  0.00  0.00    +0.000 A 
ATOM     12  C   UNL     1      -0.583  10.784  19.675  0.00  0.00    +0.000 A 
ATOM     13  C   UNL     1      -1.495  11.706  20.175  0.00  0.00    +0.000 A 
ATOM     14  C   UNL     1      -2.640  12.011  19.449  0.00  0.00    +0.000 A 
ATOM     15  C   UNL     1      -2.889  11.405  18.210  0.00  0.00    +0.000 A 
ATOM     16  C   UNL     1      -4.063  11.732  17.508  0.00  0.00    +0.000 A 
ATOM     17  C   UNL     1      -4.344  11.160  16.271  0.00  0.00    +0.000 A 
ATOM     18  C   UNL     1      -3.453  10.251  15.720  0.00  0.00    +0.000 A 
ATOM     19  C   UNL     1      -2.287   9.909  16.414  0.00  0.00    +0.000 A 
ATOM     20  C   UNL     1      -1.963  10.469  17.675  0.00  0.00    +0.000 A 
ENDBRANCH  10  11
ENDBRANCH   7  10
ENDBRANCH   1   8
BRANCH   3  21
ATOM     21  C   UNL     1       1.867   3.655  18.732  0.00  0.00    +0.000 C 
ATOM     22  C   UNL     1       2.598   3.460  17.377  0.00  0.00    +0.000 C 
ATOM     23  C   UNL     1       3.828   2.921  18.132  0.00  0.00    +0.000 C 
ATOM     24  C   UNL     1       2.907   2.696  19.356  0.00  0.00    +0.000 C 
BRANCH  23  25
ATOM     25  N   UNL     1       4.900   3.915  18.316  0.00  0.00    +0.000 N 
ATOM     26  C   UNL     1       5.474   4.595  17.256  0.00  0.00    +0.000 C 
ATOM     27  O   UNL     1       5.180   4.390  16.086  0.00  0.00    +0.000 OA
ATOM     28  H   UNL     1       5.222   4.219  19.236  0.00  0.00    +0.000 HD
BRANCH  26  29
ATOM     29  C   UNL     1       6.502   5.615  17.643  0.00  0.00    +0.000 A 
ATOM     30  C   UNL     1       7.269   5.413  18.786  0.00  0.00    +0.000 A 
ATOM     31  C   UNL     1       8.210   6.378  19.126  0.00  0.00    +0.000 A 
ATOM     32  C   UNL     1       8.349   7.506  18.322  0.00  0.00    +0.000 A 
ATOM     33  C   UNL     1       7.540   7.623  17.200  0.00  0.00    +0.000 A 
ATOM     34  N   UNL     1       6.618   6.704  16.832  0.00  0.00    +0.000 NA
ENDBRANCH  26  29
ENDBRANCH  23  25
ENDBRANCH   3  21
TORSDOF 6
ENDMDL
MODEL 6
REMARK VINA RESULT:      -8.4      2.228      3.140
REMARK  Name = 
REMARK  6 active torsions:
REMARK  status: ('A' for Active; 'I' for Inactive)
REMARK    1  A    between atoms: C_2  and  C_3
REMARK    2  A    between atoms: C_3  and  C_4
REMARK    3  A    between atoms: N_14  and  C_15
REMARK    4  A    between atoms: N_17  and  C_18
REMARK    5  A    between atoms: C_20  and  N_21
REMARK    6  A    between atoms: C_22  and  C_24
REMARK                            x       y       z     vdW  Elec       q    Type
REMARK                         _______ _______ _______ _____ _____    ______ ____
ROOT
ATOM      1  C   UNL     1       1.848   7.022  20.538  0.00  0.00    +0.000 A 
ATOM      2  C   UNL     1       1.599   5.668  20.599  0.00  0.00    +0.000 A 
ATOM      3  N   UNL     1       1.656   5.253  19.294  0.00  0.00    +0.000 N 
ATOM      4  C   UNL     1       1.940   6.337  18.523  0.00  0.00    +0.000 A 
ATOM      5  N   UNL     1       2.029   7.420  19.254  0.00  0.00    +0.000 NA
ENDROOT
BRANCH   1   8
ATOM      6  O   UNL     1       1.315   9.575  22.913  0.00  0.00    +0.000 OA
ATOM      7  C   UNL     1       1.030   8.854  21.946  0.00  0.00    +0.000 C 
ATOM      8  N   UNL     1       1.924   7.879  21.598  0.00  0.00    +0.000 N 
ATOM      9  H   UNL     1       2.748   7.836  22.182  0.00  0.00    +0.000 HD
BRANCH   7  10
ATOM     10  C   UNL     1      -0.286   9.047  21.198  0.00  0.00    +0.000 C 
BRANCH  10  11
ATOM     11  C   UNL     1      -0.484  10.411  20.543  0.00  0.00    +0.000 A 
ATOM     12  C   UNL     1      -0.003  10.592  19.232  0.00  0.00    +0.000 A 
ATOM     13  C   UNL     1      -0.079  11.829  18.601  0.00  0.00    +0.000 A 
ATOM     14  C   UNL     1      -0.620  12.918  19.275  0.00  0.00    +0.000 A 
ATOM     15  C   UNL     1      -1.099  12.787  20.585  0.00  0.00    +0.000 A 
ATOM     16  C   UNL     1      -1.631  13.913  21.238  0.00  0.00    +0.000 A 
ATOM     17  C   UNL     1      -2.125  13.825  22.537  0.00  0.00    +0.000 A 
ATOM     18  C   UNL     1      -2.091  12.607  23.199  0.00  0.00    +0.000 A 
ATOM     19  C   UNL     1      -1.553  11.482  22.564  0.00  0.00    +0.000 A 
ATOM     20  C   UNL     1      -1.042  11.529  21.243  0.00  0.00    +0.000 A 
ENDBRANCH  10  11
ENDBRANCH   7  10
ENDBRANCH   1   8
BRANCH   3  21
ATOM     21  C   UNL     1       1.503   3.886  18.866  0.00  0.00    +0.000 C 
ATOM     22  C   UNL     1       2.240   3.607  17.528  0.00  0.00    +0.000 C 
ATOM     23  C   UNL     1       3.400   2.967  18.317  0.00  0.00    +0.000 C 
ATOM     24  C   UNL     1       2.436   2.844  19.523  0.00  0.00    +0.000 C 
BRANCH  23  25
ATOM     25  N   UNL     1       4.555   3.862  18.513  0.00  0.00    +0.000 N 
ATOM     26  C   UNL     1       5.197   4.489  17.460  0.00  0.00    +0.000 C 
ATOM     27  O   UNL     1       4.898   4.311  16.286  0.00  0.00    +0.000 OA
ATOM     28  H   UNL     1       4.893   4.135  19.436  0.00  0.00    +0.000 HD
BRANCH  26  29
ATOM     29  C   UNL     1       6.308   5.412  17.859  0.00  0.00    +0.000 A 
ATOM     30  C   UNL     1       6.521   6.579  17.133  0.00  0.00    +0.000 A 
ATOM     31  C   UNL     1       7.563   7.414  17.520  0.00  0.00    +0.000 A 
ATOM     32  C   UNL     1       8.353   7.057  18.608  0.00  0.00    +0.000 A 
ATOM     33  C   UNL     1       8.066   5.874  19.275  0.00  0.00    +0.000 A 
ATOM     34  N   UNL     1       7.058   5.037  18.933  0.00  0.00    +0.000 NA
ENDBRANCH  26  29
ENDBRANCH  23  25
ENDBRANCH   3  21
TORSDOF 6
ENDMDL
MODEL 7
REMARK VINA RESULT:      -8.3      1.917      2.573
REMARK  Name = 
REMARK  6 active torsions:
REMARK  status: ('A' for Active; 'I' for Inactive)
REMARK    1  A    between atoms: C_2  and  C_3
REMARK    2  A    between atoms: C_3  and  C_4
REMARK    3  A    between atoms: N_14  and  C_15
REMARK    4  A    between atoms: N_17  and  C_18
REMARK    5  A    between atoms: C_20  and  N_21
REMARK    6  A    between atoms: C_22  and  C_24
REMARK                            x       y       z     vdW  Elec       q    Type
REMARK                         _______ _______ _______ _____ _____    ______ ____
ROOT
ATOM      1  C   UNL     1       2.084   6.961  19.210  0.00  0.00    +0.000 A 
ATOM      2  C   UNL     1       2.180   5.849  18.401  0.00  0.00    +0.000 A 
ATOM      3  N   UNL     1       1.825   4.805  19.215  0.00  0.00    +0.000 N 
ATOM      4  C   UNL     1       1.528   5.313  20.441  0.00  0.00    +0.000 A 
ATOM      5  N   UNL     1       1.708   6.610  20.466  0.00  0.00    +0.000 NA
ENDROOT
BRANCH   1   8
ATOM      6  O   UNL     1       1.809  10.379  18.383  0.00  0.00    +0.000 OA
ATOM      7  C   UNL     1       1.418   9.287  18.819  0.00  0.00    +0.000 C 
ATOM      8  N   UNL     1       2.314   8.254  18.838  0.00  0.00    +0.000 N 
ATOM      9  H   UNL     1       3.234   8.489  18.492  0.00  0.00    +0.000 HD
BRANCH   7  10
ATOM     10  C   UNL     1      -0.010   9.127  19.335  0.00  0.00    +0.000 C 
BRANCH  10  11
ATOM     11  C   UNL     1      -0.318   9.813  20.661  0.00  0.00    +0.000 A 
ATOM     12  C   UNL     1      -0.155   9.069  21.846  0.00  0.00    +0.000 A 
ATOM     13  C   UNL     1      -0.490   9.604  23.085  0.00  0.00    +0.000 A 
ATOM     14  C   UNL     1      -1.014  10.889  23.166  0.00  0.00    +0.000 A 
ATOM     15  C   UNL     1      -1.205  11.661  22.013  0.00  0.00    +0.000 A 
ATOM     16  C   UNL     1      -1.747  12.953  22.133  0.00  0.00    +0.000 A 
ATOM     17  C   UNL     1      -1.946  13.757  21.014  0.00  0.00    +0.000 A 
ATOM     18  C   UNL     1      -1.606  13.276  19.759  0.00  0.00    +0.000 A 
ATOM     19  C   UNL     1      -1.078  11.987  19.624  0.00  0.00    +0.000 A 
ATOM     20  C   UNL     1      -0.858  11.138  20.738  0.00  0.00    +0.000 A 
ENDBRANCH  10  11
ENDBRANCH   7  10
ENDBRANCH   1   8
BRANCH   3  21
ATOM     21  C   UNL     1       1.732   3.432  18.786  0.00  0.00    +0.000 C 
ATOM     22  C   UNL     1       2.482   3.186  17.450  0.00  0.00    +0.000 C 
ATOM     23  C   UNL     1       3.668   2.597  18.240  0.00  0.00    +0.000 C 
ATOM     24  C   UNL     1       2.709   2.432  19.445  0.00  0.00    +0.000 C 
BRANCH  23  25
ATOM     25  N   UNL     1       4.782   3.541  18.437  0.00  0.00    +0.000 N 
ATOM     26  C   UNL     1       5.229   4.384  17.435  0.00  0.00    +0.000 C 
ATOM     27  O   UNL     1       4.777   4.377  16.297  0.00  0.00    +0.000 OA
ATOM     28  H   UNL     1       5.231   3.687  19.341  0.00  0.00    +0.000 HD
BRANCH  26  29
ATOM     29  C   UNL     1       6.328   5.320  17.840  0.00  0.00    +0.000 A 
ATOM     30  C   UNL     1       6.589   6.444  17.065  0.00  0.00    +0.000 A 
ATOM     31  C   UNL     1       7.618   7.292  17.460  0.00  0.00    +0.000 A 
ATOM     32  C   UNL     1       8.348   6.987  18.605  0.00  0.00    +0.000 A 
ATOM     33  C   UNL     1       8.015   5.844  19.318  0.00  0.00    +0.000 A 
ATOM     34  N   UNL     1       7.018   4.997  18.970  0.00  0.00    +0.000 NA
ENDBRANCH  26  29
ENDBRANCH  23  25
ENDBRANCH   3  21
TORSDOF 6
ENDMDL
MODEL 8
REMARK VINA RESULT:      -8.2      1.768      2.376
REMARK  Name = 
REMARK  6 active torsions:
REMARK  status: ('A' for Active; 'I' for Inactive)
REMARK    1  A    between atoms: C_2  and  C_3
REMARK    2  A    between atoms: C_3  and  C_4
REMARK    3  A    between atoms: N_14  and  C_15
REMARK    4  A    between atoms: N_17  and  C_18
REMARK    5  A    between atoms: C_20  and  N_21
REMARK    6  A    between atoms: C_22  and  C_24
REMARK                            x       y       z     vdW  Elec       q    Type
REMARK                         _______ _______ _______ _____ _____    ______ ____
ROOT
ATOM      1  C   UNL     1       1.813   7.343  20.748  0.00  0.00    +0.000 A 
ATOM      2  C   UNL     1       1.640   5.976  20.751  0.00  0.00    +0.000 A 
ATOM      3  N   UNL     1       1.844   5.604  19.448  0.00  0.00    +0.000 N 
ATOM      4  C   UNL     1       2.134   6.726  18.735  0.00  0.00    +0.000 A 
ATOM      5  N   UNL     1       2.090   7.789  19.497  0.00  0.00    +0.000 NA
ENDROOT
BRANCH   1   8
ATOM      6  O   UNL     1       0.938   9.822  23.101  0.00  0.00    +0.000 OA
ATOM      7  C   UNL     1       0.793   9.125  22.086  0.00  0.00    +0.000 C 
ATOM      8  N   UNL     1       1.738   8.170  21.832  0.00  0.00    +0.000 N 
ATOM      9  H   UNL     1       2.479   8.119  22.517  0.00  0.00    +0.000 HD
BRANCH   7  10
ATOM     10  C   UNL     1      -0.418   9.326  21.178  0.00  0.00    +0.000 C 
BRANCH  10  11
ATOM     11  C   UNL     1      -0.328  10.492  20.200  0.00  0.00    +0.000 A 
ATOM     12  C   UNL     1       0.561  11.543  20.501  0.00  0.00    +0.000 A 
ATOM     13  C   UNL     1       0.640  12.674  19.696  0.00  0.00    +0.000 A 
ATOM     14  C   UNL     1      -0.184  12.790  18.582  0.00  0.00    +0.000 A 
ATOM     15  C   UNL     1      -1.092  11.776  18.251  0.00  0.00    +0.000 A 
ATOM     16  C   UNL     1      -1.916  11.932  17.122  0.00  0.00    +0.000 A 
ATOM     17  C   UNL     1      -2.826  10.945  16.753  0.00  0.00    +0.000 A 
ATOM     18  C   UNL     1      -2.924   9.789  17.512  0.00  0.00    +0.000 A 
ATOM     19  C   UNL     1      -2.119   9.627  18.645  0.00  0.00    +0.000 A 
ATOM     20  C   UNL     1      -1.179  10.606  19.054  0.00  0.00    +0.000 A 
ENDBRANCH  10  11
ENDBRANCH   7  10
ENDBRANCH   1   8
BRANCH   3  21
ATOM     21  C   UNL     1       1.814   4.245  18.973  0.00  0.00    +0.000 C 
ATOM     22  C   UNL     1       2.491   4.096  17.584  0.00  0.00    +0.000 C 
ATOM     23  C   UNL     1       3.761   3.562  18.275  0.00  0.00    +0.000 C 
ATOM     24  C   UNL     1       2.894   3.290  19.530  0.00  0.00    +0.000 C 
BRANCH  23  25
ATOM     25  N   UNL     1       4.822   4.571  18.440  0.00  0.00    +0.000 N 
ATOM     26  C   UNL     1       5.754   4.839  17.453  0.00  0.00    +0.000 C 
ATOM     27  O   UNL     1       5.808   4.227  16.394  0.00  0.00    +0.000 OA
ATOM     28  H   UNL     1       4.880   5.186  19.252  0.00  0.00    +0.000 HD
BRANCH  26  29
ATOM     29  C   UNL     1       6.714   5.944  17.774  0.00  0.00    +0.000 A 
ATOM     30  C   UNL     1       7.573   5.808  18.860  0.00  0.00    +0.000 A 
ATOM     31  C   UNL     1       8.449   6.852  19.140  0.00  0.00    +0.000 A 
ATOM     32  C   UNL     1       8.434   7.987  18.335  0.00  0.00    +0.000 A 
ATOM     33  C   UNL     1       7.543   8.033  17.272  0.00  0.00    +0.000 A 
ATOM     34  N   UNL     1       6.680   7.038  16.963  0.00  0.00    +0.000 NA
ENDBRANCH  26  29
ENDBRANCH  23  25
ENDBRANCH   3  21
TORSDOF 6
ENDMDL
MODEL 9
REMARK VINA RESULT:      -8.2      6.103      9.584
REMARK  Name = 
REMARK  6 active torsions:
REMARK  status: ('A' for Active; 'I' for Inactive)
REMARK    1  A    between atoms: C_2  and  C_3
REMARK    2  A    between atoms: C_3  and  C_4
REMARK    3  A    between atoms: N_14  and  C_15
REMARK    4  A    between atoms: N_17  and  C_18
REMARK    5  A    between atoms: C_20  and  N_21
REMARK    6  A    between atoms: C_22  and  C_24
REMARK                            x       y       z     vdW  Elec       q    Type
REMARK                         _______ _______ _______ _____ _____    ______ ____
ROOT
ATOM      1  C   UNL     1      -4.578  13.114  22.479  0.00  0.00    +0.000 A 
ATOM      2  C   UNL     1      -4.423  14.432  22.852  0.00  0.00    +0.000 A 
ATOM      3  N   UNL     1      -3.989  14.368  24.151  0.00  0.00    +0.000 N 
ATOM      4  C   UNL     1      -3.892  13.055  24.495  0.00  0.00    +0.000 A 
ATOM      5  N   UNL     1      -4.274  12.284  23.508  0.00  0.00    +0.000 NA
ENDROOT
BRANCH   1   8
ATOM      6  O   UNL     1      -4.795  12.245  19.067  0.00  0.00    +0.000 OA
ATOM      7  C   UNL     1      -4.233  12.634  20.100  0.00  0.00    +0.000 C 
ATOM      8  N   UNL     1      -4.970  12.662  21.251  0.00  0.00    +0.000 N 
ATOM      9  H   UNL     1      -5.925  12.349  21.147  0.00  0.00    +0.000 HD
BRANCH   7  10
ATOM     10  C   UNL     1      -2.762  13.041  20.073  0.00  0.00    +0.000 C 
BRANCH  10  11
ATOM     11  C   UNL     1      -1.770  11.926  19.755  0.00  0.00    +0.000 A 
ATOM     12  C   UNL     1      -1.548  11.602  18.402  0.00  0.00    +0.000 A 
ATOM     13  C   UNL     1      -0.718  10.547  18.041  0.00  0.00    +0.000 A 
ATOM     14  C   UNL     1      -0.106   9.779  19.024  0.00  0.00    +0.000 A 
ATOM     15  C   UNL     1      -0.308  10.056  20.383  0.00  0.00    +0.000 A 
ATOM     16  C   UNL     1       0.320   9.252  21.350  0.00  0.00    +0.000 A 
ATOM     17  C   UNL     1       0.154   9.498  22.710  0.00  0.00    +0.000 A 
ATOM     18  C   UNL     1      -0.647  10.553  23.119  0.00  0.00    +0.000 A 
ATOM     19  C   UNL     1      -1.289  11.354  22.167  0.00  0.00    +0.000 A 
ATOM     20  C   UNL     1      -1.143  11.138  20.773  0.00  0.00    +0.000 A 
ENDBRANCH  10  11
ENDBRANCH   7  10
ENDBRANCH   1   8
BRANCH   3  21
ATOM     21  C   UNL     1      -3.643  15.514  24.953  0.00  0.00    +0.000 C 
ATOM     22  C   UNL     1      -2.173  15.457  25.448  0.00  0.00    +0.000 C 
ATOM     23  C   UNL     1      -1.771  16.435  24.326  0.00  0.00    +0.000 C 
ATOM     24  C   UNL     1      -3.269  16.806  24.191  0.00  0.00    +0.000 C 
BRANCH  23  25
ATOM     25  N   UNL     1      -1.169  15.781  23.151  0.00  0.00    +0.000 N 
ATOM     26  C   UNL     1       0.196  15.769  22.925  0.00  0.00    +0.000 C 
ATOM     27  O   UNL     1       1.004  16.342  23.645  0.00  0.00    +0.000 OA
ATOM     28  H   UNL     1      -1.711  15.230  22.485  0.00  0.00    +0.000 HD
BRANCH  26  29
ATOM     29  C   UNL     1       0.628  14.998  21.714  0.00  0.00    +0.000 A 
ATOM     30  C   UNL     1       0.163  15.378  20.459  0.00  0.00    +0.000 A 
ATOM     31  C   UNL     1       0.573  14.642  19.354  0.00  0.00    +0.000 A 
ATOM     32  C   UNL     1       1.426  13.557  19.537  0.00  0.00    +0.000 A 
ATOM     33  C   UNL     1       1.841  13.252  20.826  0.00  0.00    +0.000 A 
ATOM     34  N   UNL     1       1.469  13.947  21.927  0.00  0.00    +0.000 NA
ENDBRANCH  26  29
ENDBRANCH  23  25
ENDBRANCH   3  21
TORSDOF 6
ENDMDL
