MODEL 1
REMARK VINA RESULT:      -8.0      0.000      0.000
REMARK  Name = 
REMARK  8 active torsions:
REMARK  status: ('A' for Active; 'I' for Inactive)
REMARK    1  A    between atoms: S_2  and  C_4
REMARK    2  A    between atoms: S_2  and  N_10
REMARK    3  A    between atoms: C_14  and  O_15
REMARK    4  A    between atoms: O_15  and  C_16
REMARK    5  A    between atoms: C_16  and  C_17
REMARK    6  A    between atoms: C_17  and  N_18
REMARK    7  A    between atoms: N_18  and  C_19
REMARK    8  A    between atoms: C_19  and  C_20
REMARK                            x       y       z     vdW  Elec       q    Type
REMARK                         _______ _______ _______ _____ _____    ______ ____
ROOT
ATOM      1  N   UNL     1       1.104  10.056  18.944  0.00  0.00    +0.000 N 
ATOM      2  C   UNL     1       2.135  10.184  18.055  0.00  0.00    +0.000 A 
ATOM      3  C   UNL     1       2.118   8.987  17.397  0.00  0.00    +0.000 A 
ATOM      4  C   UNL     1       1.983   8.126  18.524  0.00  0.00    +0.000 A 
ATOM      5  C   UNL     1       2.604   6.895  18.788  0.00  0.00    +0.000 A 
ATOM      6  C   UNL     1       2.431   6.338  20.052  0.00  0.00    +0.000 A 
ATOM      7  C   UNL     1       1.592   6.958  20.992  0.00  0.00    +0.000 A 
ATOM      8  C   UNL     1       0.959   8.197  20.746  0.00  0.00    +0.000 A 
ATOM      9  C   UNL     1       1.257   8.802  19.516  0.00  0.00    +0.000 A 
ENDROOT
BRANCH   1  11
ATOM     10  O   UNL     1       0.847  12.522  18.637  0.00  0.00    +0.000 OA
ATOM     11  S   UNL     1       0.224  11.448  19.351  0.00  0.00    +0.000 S 
ATOM     12  O   UNL     1       0.118  11.432  20.818  0.00  0.00    +0.000 OA
BRANCH  11  13
ATOM     13  C   UNL     1      -1.401  11.119  18.664  0.00  0.00    +0.000 A 
ATOM     14  C   UNL     1      -2.509  11.881  19.036  0.00  0.00    +0.000 A 
ATOM     15  C   UNL     1      -3.776  11.619  18.486  0.00  0.00    +0.000 A 
ATOM     16  C   UNL     1      -3.941  10.586  17.561  0.00  0.00    +0.000 A 
ATOM     17  C   UNL     1      -2.829   9.844  17.153  0.00  0.00    +0.000 A 
ATOM     18  C   UNL     1      -1.561  10.107  17.689  0.00  0.00    +0.000 A 
ENDBRANCH  11  13
ENDBRANCH   1  11
BRANCH   5  19
ATOM     19  O   UNL     1       3.442   6.465  17.805  0.00  0.00    +0.000 OA
BRANCH  19  20
ATOM     20  C   UNL     1       4.717   5.974  18.175  0.00  0.00    +0.000 C 
BRANCH  20  21
ATOM     21  C   UNL     1       5.078   4.796  17.254  0.00  0.00    +0.000 C 
BRANCH  21  22
ATOM     22  N   UNL     1       5.038   3.495  17.939  0.00  0.00    +0.000 NA
ATOM     23  H   UNL     1       5.159   3.613  18.944  0.00  0.00    +0.000 HD
BRANCH  22  24
ATOM     24  C   UNL     1       3.771   2.805  17.690  0.00  0.00    +0.000 C 
BRANCH  24  25
ATOM     25  C   UNL     1       2.885   2.838  18.912  0.00  0.00    +0.000 A 
ATOM     26  C   UNL     1       1.504   3.054  18.797  0.00  0.00    +0.000 A 
ATOM     27  C   UNL     1       0.699   3.109  19.937  0.00  0.00    +0.000 A 
ATOM     28  C   UNL     1       1.264   2.945  21.200  0.00  0.00    +0.000 A 
ATOM     29  C   UNL     1       2.632   2.713  21.326  0.00  0.00    +0.000 A 
ATOM     30  C   UNL     1       3.438   2.656  20.189  0.00  0.00    +0.000 A 
ENDBRANCH  24  25
ENDBRANCH  22  24
ENDBRANCH  21  22
ENDBRANCH  20  21
ENDBRANCH  19  20
ENDBRANCH   5  19
TORSDOF 8
ENDMDL
MODEL 2
REMARK VINA RESULT:      -7.9      1.321      3.303
REMARK  Name = 
REMARK  8 active torsions:
REMARK  status: ('A' for Active; 'I' for Inactive)
REMARK    1  A    between atoms: S_2  and  C_4
REMARK    2  A    between atoms: S_2  and  N_10
REMARK    3  A    between atoms: C_14  and  O_15
REMARK    4  A    between atoms: O_15  and  C_16
REMARK    5  A    between atoms: C_16  and  C_17
REMARK    6  A    between atoms: C_17  and  N_18
REMARK    7  A    between atoms: N_18  and  C_19
REMARK    8  A    between atoms: C_19  and  C_20
REMARK                            x       y       z     vdW  Elec       q    Type
REMARK                         _______ _______ _______ _____ _____    ______ ____
ROOT
ATOM      1  N   UNL     1       0.457  10.074  19.895  0.00  0.00    +0.000 N 
ATOM      2  C   UNL     1      -0.211   9.293  20.797  0.00  0.00    +0.000 A 
ATOM      3  C   UNL     1       0.799   8.600  21.403  0.00  0.00    +0.000 A 
ATOM      4  C   UNL     1       1.532   8.231  20.239  0.00  0.00    +0.000 A 
ATOM      5  C   UNL     1       2.163   7.016  19.928  0.00  0.00    +0.000 A 
ATOM      6  C   UNL     1       2.665   6.856  18.639  0.00  0.00    +0.000 A 
ATOM      7  C   UNL     1       2.610   7.915  17.720  0.00  0.00    +0.000 A 
ATOM      8  C   UNL     1       1.980   9.146  18.014  0.00  0.00    +0.000 A 
ATOM      9  C   UNL     1       1.364   9.232  19.271  0.00  0.00    +0.000 A 
ENDROOT
BRANCH   1  11
ATOM     10  O   UNL     1       0.805  12.260  18.736  0.00  0.00    +0.000 OA
ATOM     11  S   UNL     1      -0.182  11.605  19.541  0.00  0.00    +0.000 S 
ATOM     12  O   UNL     1      -0.637  12.150  20.830  0.00  0.00    +0.000 OA
BRANCH  11  13
ATOM     13  C   UNL     1      -1.628  11.225  18.548  0.00  0.00    +0.000 A 
ATOM     14  C   UNL     1      -1.568  10.286  17.518  0.00  0.00    +0.000 A 
ATOM     15  C   UNL     1      -2.709   9.990  16.752  0.00  0.00    +0.000 A 
ATOM     16  C   UNL     1      -3.919  10.638  17.013  0.00  0.00    +0.000 A 
ATOM     17  C   UNL     1      -3.997  11.551  18.069  0.00  0.00    +0.000 A 
ATOM     18  C   UNL     1      -2.866  11.842  18.843  0.00  0.00    +0.000 A 
ENDBRANCH  11  13
ENDBRANCH   1  11
BRANCH   5  19
ATOM     19  O   UNL     1       2.066   6.066  20.898  0.00  0.00    +0.000 OA
BRANCH  19  20
ATOM     20  C   UNL     1       1.463   4.828  20.570  0.00  0.00    +0.000 C 
BRANCH  20  21
ATOM     21  C   UNL     1       2.485   3.703  20.808  0.00  0.00    +0.000 C 
BRANCH  21  22
ATOM     22  N   UNL     1       2.897   3.027  19.569  0.00  0.00    +0.000 NA
ATOM     23  H   UNL     1       2.542   3.523  18.753  0.00  0.00    +0.000 HD
BRANCH  22  24
ATOM     24  C   UNL     1       4.355   2.936  19.475  0.00  0.00    +0.000 C 
BRANCH  24  25
ATOM     25  C   UNL     1       4.903   3.973  18.524  0.00  0.00    +0.000 A 
ATOM     26  C   UNL     1       5.785   4.967  18.971  0.00  0.00    +0.000 A 
ATOM     27  C   UNL     1       6.265   5.938  18.088  0.00  0.00    +0.000 A 
ATOM     28  C   UNL     1       5.871   5.921  16.751  0.00  0.00    +0.000 A 
ATOM     29  C   UNL     1       5.008   4.928  16.291  0.00  0.00    +0.000 A 
ATOM     30  C   UNL     1       4.530   3.958  17.171  0.00  0.00    +0.000 A 
ENDBRANCH  24  25
ENDBRANCH  22  24
ENDBRANCH  21  22
ENDBRANCH  20  21
ENDBRANCH  19  20
ENDBRANCH   5  19
TORSDOF 8
ENDMDL
MODEL 3
REMARK VINA RESULT:      -7.7      2.635      8.433
REMARK  Name = 
REMARK  8 active torsions:
REMARK  status: ('A' for Active; 'I' for Inactive)
REMARK    1  A    between atoms: S_2  and  C_4
REMARK    2  A    between atoms: S_2  and  N_10
REMARK    3  A    between atoms: C_14  and  O_15
REMARK    4  A    between atoms: O_15  and  C_16
REMARK    5  A    between atoms: C_16  and  C_17
REMARK    6  A    between atoms: C_17  and  N_18
REMARK    7  A    between atoms: N_18  and  C_19
REMARK    8  A    between atoms: C_19  and  C_20
REMARK                            x       y       z     vdW  Elec       q    Type
REMARK                         _______ _______ _______ _____ _____    ______ ____
ROOT
ATOM      1  N   UNL     1       2.758   4.665  18.970  0.00  0.00    +0.000 N 
ATOM      2  C   UNL     1       2.870   4.612  20.332  0.00  0.00    +0.000 A 
ATOM      3  C   UNL     1       1.777   5.314  20.753  0.00  0.00    +0.000 A 
ATOM      4  C   UNL     1       1.884   6.426  19.869  0.00  0.00    +0.000 A 
ATOM      5  C   UNL     1       1.678   7.791  20.121  0.00  0.00    +0.000 A 
ATOM      6  C   UNL     1       2.021   8.696  19.120  0.00  0.00    +0.000 A 
ATOM      7  C   UNL     1       2.477   8.236  17.875  0.00  0.00    +0.000 A 
ATOM      8  C   UNL     1       2.691   6.866  17.601  0.00  0.00    +0.000 A 
ATOM      9  C   UNL     1       2.466   5.987  18.671  0.00  0.00    +0.000 A 
ENDROOT
BRANCH   1  11
ATOM     10  O   UNL     1       2.349   3.138  17.036  0.00  0.00    +0.000 OA
ATOM     11  S   UNL     1       3.316   3.338  18.072  0.00  0.00    +0.000 S 
ATOM     12  O   UNL     1       3.638   2.300  19.063  0.00  0.00    +0.000 OA
BRANCH  11  13
ATOM     13  C   UNL     1       4.853   3.941  17.367  0.00  0.00    +0.000 A 
ATOM     14  C   UNL     1       4.997   4.107  15.990  0.00  0.00    +0.000 A 
ATOM     15  C   UNL     1       6.203   4.587  15.449  0.00  0.00    +0.000 A 
ATOM     16  C   UNL     1       7.275   4.899  16.288  0.00  0.00    +0.000 A 
ATOM     17  C   UNL     1       7.125   4.773  17.672  0.00  0.00    +0.000 A 
ATOM     18  C   UNL     1       5.921   4.306  18.218  0.00  0.00    +0.000 A 
ENDBRANCH  11  13
ENDBRANCH   1  11
BRANCH   5  19
ATOM     19  O   UNL     1       1.305   8.078  21.399  0.00  0.00    +0.000 OA
BRANCH  19  20
ATOM     20  C   UNL     1       0.070   8.737  21.607  0.00  0.00    +0.000 C 
BRANCH  20  21
ATOM     21  C   UNL     1       0.333  10.246  21.750  0.00  0.00    +0.000 C 
BRANCH  21  22
ATOM     22  N   UNL     1      -0.806  11.073  21.323  0.00  0.00    +0.000 NA
ATOM     23  H   UNL     1      -1.021  11.779  22.025  0.00  0.00    +0.000 HD
BRANCH  22  24
ATOM     24  C   UNL     1      -0.528  11.738  20.048  0.00  0.00    +0.000 C 
BRANCH  24  25
ATOM     25  C   UNL     1      -1.478  11.269  18.973  0.00  0.00    +0.000 A 
ATOM     26  C   UNL     1      -1.110  10.254  18.078  0.00  0.00    +0.000 A 
ATOM     27  C   UNL     1      -1.987   9.846  17.071  0.00  0.00    +0.000 A 
ATOM     28  C   UNL     1      -3.241  10.444  16.951  0.00  0.00    +0.000 A 
ATOM     29  C   UNL     1      -3.624  11.441  17.845  0.00  0.00    +0.000 A 
ATOM     30  C   UNL     1      -2.750  11.849  18.853  0.00  0.00    +0.000 A 
ENDBRANCH  24  25
ENDBRANCH  22  24
ENDBRANCH  21  22
ENDBRANCH  20  21
ENDBRANCH  19  20
ENDBRANCH   5  19
TORSDOF 8
ENDMDL
MODEL 4
REMARK VINA RESULT:      -7.6      2.667      8.363
REMARK  Name = 
REMARK  8 active torsions:
REMARK  status: ('A' for Active; 'I' for Inactive)
REMARK    1  A    between atoms: S_2  and  C_4
REMARK    2  A    between atoms: S_2  and  N_10
REMARK    3  A    between atoms: C_14  and  O_15
REMARK    4  A    between atoms: O_15  and  C_16
REMARK    5  A    between atoms: C_16  and  C_17
REMARK    6  A    between atoms: C_17  and  N_18
REMARK    7  A    between atoms: N_18  and  C_19
REMARK    8  A    between atoms: C_19  and  C_20
REMARK                            x       y       z     vdW  Elec       q    Type
REMARK                         _______ _______ _______ _____ _____    ______ ____
ROOT
ATOM      1  N   UNL     1       2.828   4.642  18.947  0.00  0.00    +0.000 N 
ATOM      2  C   UNL     1       2.940   4.561  20.307  0.00  0.00    +0.000 A 
ATOM      3  C   UNL     1       1.844   5.249  20.743  0.00  0.00    +0.000 A 
ATOM      4  C   UNL     1       1.946   6.380  19.883  0.00  0.00    +0.000 A 
ATOM      5  C   UNL     1       1.734   7.739  20.163  0.00  0.00    +0.000 A 
ATOM      6  C   UNL     1       2.074   8.666  19.181  0.00  0.00    +0.000 A 
ATOM      7  C   UNL     1       2.532   8.234  17.926  0.00  0.00    +0.000 A 
ATOM      8  C   UNL     1       2.752   6.871  17.624  0.00  0.00    +0.000 A 
ATOM      9  C   UNL     1       2.530   5.969  18.675  0.00  0.00    +0.000 A 
ENDROOT
BRANCH   1  11
ATOM     10  O   UNL     1       2.387   3.105  17.027  0.00  0.00    +0.000 OA
ATOM     11  S   UNL     1       3.391   3.337  18.021  0.00  0.00    +0.000 S 
ATOM     12  O   UNL     1       3.791   2.308  18.993  0.00  0.00    +0.000 OA
BRANCH  11  13
ATOM     13  C   UNL     1       4.874   3.993  17.252  0.00  0.00    +0.000 A 
ATOM     14  C   UNL     1       5.978   4.367  18.018  0.00  0.00    +0.000 A 
ATOM     15  C   UNL     1       7.138   4.872  17.404  0.00  0.00    +0.000 A 
ATOM     16  C   UNL     1       7.195   5.010  16.016  0.00  0.00    +0.000 A 
ATOM     17  C   UNL     1       6.109   4.600  15.238  0.00  0.00    +0.000 A 
ATOM     18  C   UNL     1       4.954   4.085  15.843  0.00  0.00    +0.000 A 
ENDBRANCH  11  13
ENDBRANCH   1  11
BRANCH   5  19
ATOM     19  O   UNL     1       1.360   7.997  21.446  0.00  0.00    +0.000 OA
BRANCH  19  20
ATOM     20  C   UNL     1       1.214   9.348  21.846  0.00  0.00    +0.000 C 
BRANCH  20  21
ATOM     21  C   UNL     1      -0.231   9.568  22.323  0.00  0.00    +0.000 C 
BRANCH  21  22
ATOM     22  N   UNL     1      -0.794  10.853  21.883  0.00  0.00    +0.000 NA
ATOM     23  H   UNL     1      -0.640  11.574  22.586  0.00  0.00    +0.000 HD
BRANCH  22  24
ATOM     24  C   UNL     1      -0.196  11.287  20.618  0.00  0.00    +0.000 C 
BRANCH  24  25
ATOM     25  C   UNL     1      -1.158  11.097  19.470  0.00  0.00    +0.000 A 
ATOM     26  C   UNL     1      -0.891  10.170  18.452  0.00  0.00    +0.000 A 
ATOM     27  C   UNL     1      -1.775  10.022  17.380  0.00  0.00    +0.000 A 
ATOM     28  C   UNL     1      -2.935  10.793  17.319  0.00  0.00    +0.000 A 
ATOM     29  C   UNL     1      -3.219  11.704  18.333  0.00  0.00    +0.000 A 
ATOM     30  C   UNL     1      -2.338  11.853  19.405  0.00  0.00    +0.000 A 
ENDBRANCH  24  25
ENDBRANCH  22  24
ENDBRANCH  21  22
ENDBRANCH  20  21
ENDBRANCH  19  20
ENDBRANCH   5  19
TORSDOF 8
ENDMDL
MODEL 5
REMARK VINA RESULT:      -7.5      0.652      1.145
REMARK  Name = 
REMARK  8 active torsions:
REMARK  status: ('A' for Active; 'I' for Inactive)
REMARK    1  A    between atoms: S_2  and  C_4
REMARK    2  A    between atoms: S_2  and  N_10
REMARK    3  A    between atoms: C_14  and  O_15
REMARK    4  A    between atoms: O_15  and  C_16
REMARK    5  A    between atoms: C_16  and  C_17
REMARK    6  A    between atoms: C_17  and  N_18
REMARK    7  A    between atoms: N_18  and  C_19
REMARK    8  A    between atoms: C_19  and  C_20
REMARK                            x       y       z     vdW  Elec       q    Type
REMARK                         _______ _______ _______ _____ _____    ______ ____
ROOT
ATOM      1  N   UNL     1       1.121  10.452  19.417  0.00  0.00    +0.000 N 
ATOM      2  C   UNL     1       2.068  10.654  18.452  0.00  0.00    +0.000 A 
ATOM      3  C   UNL     1       1.914   9.564  17.643  0.00  0.00    +0.000 A 
ATOM      4  C   UNL     1       1.835   8.561  18.651  0.00  0.00    +0.000 A 
ATOM      5  C   UNL     1       2.401   7.276  18.681  0.00  0.00    +0.000 A 
ATOM      6  C   UNL     1       2.318   6.556  19.869  0.00  0.00    +0.000 A 
ATOM      7  C   UNL     1       1.614   7.077  20.966  0.00  0.00    +0.000 A 
ATOM      8  C   UNL     1       1.037   8.368  20.957  0.00  0.00    +0.000 A 
ATOM      9  C   UNL     1       1.252   9.124  19.796  0.00  0.00    +0.000 A 
ENDROOT
BRANCH   1  11
ATOM     10  O   UNL     1       1.050  12.946  19.542  0.00  0.00    +0.000 OA
ATOM     11  S   UNL     1       0.373  11.814  20.097  0.00  0.00    +0.000 S 
ATOM     12  O   UNL     1       0.325  11.555  21.545  0.00  0.00    +0.000 OA
BRANCH  11  13
ATOM     13  C   UNL     1      -1.300  11.724  19.453  0.00  0.00    +0.000 A 
ATOM     14  C   UNL     1      -1.597  10.967  18.319  0.00  0.00    +0.000 A 
ATOM     15  C   UNL     1      -2.912  10.898  17.828  0.00  0.00    +0.000 A 
ATOM     16  C   UNL     1      -3.940  11.592  18.471  0.00  0.00    +0.000 A 
ATOM     17  C   UNL     1      -3.659  12.319  19.631  0.00  0.00    +0.000 A 
ATOM     18  C   UNL     1      -2.351  12.383  20.131  0.00  0.00    +0.000 A 
ENDBRANCH  11  13
ENDBRANCH   1  11
BRANCH   5  19
ATOM     19  O   UNL     1       3.112   6.949  17.567  0.00  0.00    +0.000 OA
BRANCH  19  20
ATOM     20  C   UNL     1       4.456   6.533  17.724  0.00  0.00    +0.000 C 
BRANCH  20  21
ATOM     21  C   UNL     1       4.677   5.253  16.901  0.00  0.00    +0.000 C 
BRANCH  21  22
ATOM     22  N   UNL     1       4.861   4.055  17.736  0.00  0.00    +0.000 NA
ATOM     23  H   UNL     1       4.922   4.309  18.720  0.00  0.00    +0.000 HD
BRANCH  22  24
ATOM     24  C   UNL     1       3.758   3.110  17.555  0.00  0.00    +0.000 C 
BRANCH  24  25
ATOM     25  C   UNL     1       2.882   3.057  18.783  0.00  0.00    +0.000 A 
ATOM     26  C   UNL     1       1.485   3.125  18.677  0.00  0.00    +0.000 A 
ATOM     27  C   UNL     1       0.685   3.102  19.822  0.00  0.00    +0.000 A 
ATOM     28  C   UNL     1       1.273   3.007  21.082  0.00  0.00    +0.000 A 
ATOM     29  C   UNL     1       2.659   2.922  21.200  0.00  0.00    +0.000 A 
ATOM     30  C   UNL     1       3.458   2.943  20.057  0.00  0.00    +0.000 A 
ENDBRANCH  24  25
ENDBRANCH  22  24
ENDBRANCH  21  22
ENDBRANCH  20  21
ENDBRANCH  19  20
ENDBRANCH   5  19
TORSDOF 8
ENDMDL
MODEL 6
REMARK VINA RESULT:      -7.5      1.350      3.335
REMARK  Name = 
REMARK  8 active torsions:
REMARK  status: ('A' for Active; 'I' for Inactive)
REMARK    1  A    between atoms: S_2  and  C_4
REMARK    2  A    between atoms: S_2  and  N_10
REMARK    3  A    between atoms: C_14  and  O_15
REMARK    4  A    between atoms: O_15  and  C_16
REMARK    5  A    between atoms: C_16  and  C_17
REMARK    6  A    between atoms: C_17  and  N_18
REMARK    7  A    between atoms: N_18  and  C_19
REMARK    8  A    between atoms: C_19  and  C_20
REMARK                            x       y       z     vdW  Elec       q    Type
REMARK                         _______ _______ _______ _____ _____    ______ ____
ROOT
ATOM      1  N   UNL     1       0.961   9.820  20.259  0.00  0.00    +0.000 N 
ATOM      2  C   UNL     1       0.234   9.044  21.118  0.00  0.00    +0.000 A 
ATOM      3  C   UNL     1       1.155   8.138  21.561  0.00  0.00    +0.000 A 
ATOM      4  C   UNL     1       1.748   7.808  20.308  0.00  0.00    +0.000 A 
ATOM      5  C   UNL     1       2.157   6.559  19.815  0.00  0.00    +0.000 A 
ATOM      6  C   UNL     1       2.548   6.484  18.481  0.00  0.00    +0.000 A 
ATOM      7  C   UNL     1       2.606   7.644  17.692  0.00  0.00    +0.000 A 
ATOM      8  C   UNL     1       2.199   8.910  18.170  0.00  0.00    +0.000 A 
ATOM      9  C   UNL     1       1.682   8.934  19.474  0.00  0.00    +0.000 A 
ENDROOT
BRANCH   1  11
ATOM     10  O   UNL     1       1.526  12.034  19.248  0.00  0.00    +0.000 OA
ATOM     11  S   UNL     1       0.554  11.462  20.129  0.00  0.00    +0.000 S 
ATOM     12  O   UNL     1       0.368  11.932  21.511  0.00  0.00    +0.000 OA
BRANCH  11  13
ATOM     13  C   UNL     1      -1.052  11.422  19.327  0.00  0.00    +0.000 A 
ATOM     14  C   UNL     1      -2.136  12.129  19.848  0.00  0.00    +0.000 A 
ATOM     15  C   UNL     1      -3.386  12.097  19.206  0.00  0.00    +0.000 A 
ATOM     16  C   UNL     1      -3.559  11.350  18.039  0.00  0.00    +0.000 A 
ATOM     17  C   UNL     1      -2.468  10.672  17.488  0.00  0.00    +0.000 A 
ATOM     18  C   UNL     1      -1.215  10.709  18.117  0.00  0.00    +0.000 A 
ENDBRANCH  11  13
ENDBRANCH   1  11
BRANCH   5  19
ATOM     19  O   UNL     1       1.969   5.523  20.678  0.00  0.00    +0.000 OA
BRANCH  19  20
ATOM     20  C   UNL     1       1.635   4.255  20.145  0.00  0.00    +0.000 C 
BRANCH  20  21
ATOM     21  C   UNL     1       2.816   3.297  20.372  0.00  0.00    +0.000 C 
BRANCH  21  22
ATOM     22  N   UNL     1       3.621   3.076  19.161  0.00  0.00    +0.000 NA
ATOM     23  H   UNL     1       3.132   3.422  18.337  0.00  0.00    +0.000 HD
BRANCH  22  24
ATOM     24  C   UNL     1       4.920   3.744  19.260  0.00  0.00    +0.000 C 
BRANCH  24  25
ATOM     25  C   UNL     1       5.344   4.307  17.925  0.00  0.00    +0.000 A 
ATOM     26  C   UNL     1       4.759   3.853  16.733  0.00  0.00    +0.000 A 
ATOM     27  C   UNL     1       5.177   4.361  15.501  0.00  0.00    +0.000 A 
ATOM     28  C   UNL     1       6.180   5.329  15.448  0.00  0.00    +0.000 A 
ATOM     29  C   UNL     1       6.756   5.799  16.626  0.00  0.00    +0.000 A 
ATOM     30  C   UNL     1       6.338   5.294  17.857  0.00  0.00    +0.000 A 
ENDBRANCH  24  25
ENDBRANCH  22  24
ENDBRANCH  21  22
ENDBRANCH  20  21
ENDBRANCH  19  20
ENDBRANCH   5  19
TORSDOF 8
ENDMDL
MODEL 7
REMARK VINA RESULT:      -7.4      3.618      9.206
REMARK  Name = 
REMARK  8 active torsions:
REMARK  status: ('A' for Active; 'I' for Inactive)
REMARK    1  A    between atoms: S_2  and  C_4
REMARK    2  A    between atoms: S_2  and  N_10
REMARK    3  A    between atoms: C_14  and  O_15
REMARK    4  A    between atoms: O_15  and  C_16
REMARK    5  A    between atoms: C_16  and  C_17
REMARK    6  A    between atoms: C_17  and  N_18
REMARK    7  A    between atoms: N_18  and  C_19
REMARK    8  A    between atoms: C_19  and  C_20
REMARK                            x       y       z     vdW  Elec       q    Type
REMARK                         _______ _______ _______ _____ _____    ______ ____
ROOT
ATOM      1  N   UNL     1       2.995   4.432  19.207  0.00  0.00    +0.000 N 
ATOM      2  C   UNL     1       3.008   4.374  20.573  0.00  0.00    +0.000 A 
ATOM      3  C   UNL     1       1.849   5.009  20.914  0.00  0.00    +0.000 A 
ATOM      4  C   UNL     1       1.957   6.133  20.045  0.00  0.00    +0.000 A 
ATOM      5  C   UNL     1       1.656   7.482  20.286  0.00  0.00    +0.000 A 
ATOM      6  C   UNL     1       2.020   8.413  19.318  0.00  0.00    +0.000 A 
ATOM      7  C   UNL     1       2.593   7.990  18.108  0.00  0.00    +0.000 A 
ATOM      8  C   UNL     1       2.905   6.637  17.846  0.00  0.00    +0.000 A 
ATOM      9  C   UNL     1       2.651   5.737  18.892  0.00  0.00    +0.000 A 
ENDROOT
BRANCH   1  11
ATOM     10  O   UNL     1       2.672   2.671  17.464  0.00  0.00    +0.000 OA
ATOM     11  S   UNL     1       3.693   3.146  18.348  0.00  0.00    +0.000 S 
ATOM     12  O   UNL     1       4.319   2.287  19.364  0.00  0.00    +0.000 OA
BRANCH  11  13
ATOM     13  C   UNL     1       4.995   3.945  17.405  0.00  0.00    +0.000 A 
ATOM     14  C   UNL     1       4.902   4.082  16.020  0.00  0.00    +0.000 A 
ATOM     15  C   UNL     1       5.924   4.717  15.293  0.00  0.00    +0.000 A 
ATOM     16  C   UNL     1       7.051   5.215  15.952  0.00  0.00    +0.000 A 
ATOM     17  C   UNL     1       7.133   5.117  17.344  0.00  0.00    +0.000 A 
ATOM     18  C   UNL     1       6.112   4.496  18.076  0.00  0.00    +0.000 A 
ENDBRANCH  11  13
ENDBRANCH   1  11
BRANCH   5  19
ATOM     19  O   UNL     1       1.173   7.737  21.534  0.00  0.00    +0.000 OA
BRANCH  19  20
ATOM     20  C   UNL     1       1.203   9.070  22.008  0.00  0.00    +0.000 C 
BRANCH  20  21
ATOM     21  C   UNL     1      -0.220   9.481  22.420  0.00  0.00    +0.000 C 
BRANCH  21  22
ATOM     22  N   UNL     1      -0.264  10.760  23.146  0.00  0.00    +0.000 NA
ATOM     23  H   UNL     1       0.671  11.041  23.435  0.00  0.00    +0.000 HD
BRANCH  22  24
ATOM     24  C   UNL     1      -0.845  11.818  22.317  0.00  0.00    +0.000 C 
BRANCH  24  25
ATOM     25  C   UNL     1      -1.790  12.678  23.120  0.00  0.00    +0.000 A 
ATOM     26  C   UNL     1      -1.407  13.954  23.560  0.00  0.00    +0.000 A 
ATOM     27  C   UNL     1      -2.279  14.731  24.325  0.00  0.00    +0.000 A 
ATOM     28  C   UNL     1      -3.543  14.243  24.655  0.00  0.00    +0.000 A 
ATOM     29  C   UNL     1      -3.942  12.985  24.210  0.00  0.00    +0.000 A 
ATOM     30  C   UNL     1      -3.072  12.208  23.444  0.00  0.00    +0.000 A 
ENDBRANCH  24  25
ENDBRANCH  22  24
ENDBRANCH  21  22
ENDBRANCH  20  21
ENDBRANCH  19  20
ENDBRANCH   5  19
TORSDOF 8
ENDMDL
MODEL 8
REMARK VINA RESULT:      -7.3      2.356      4.306
REMARK  Name = 
REMARK  8 active torsions:
REMARK  status: ('A' for Active; 'I' for Inactive)
REMARK    1  A    between atoms: S_2  and  C_4
REMARK    2  A    between atoms: S_2  and  N_10
REMARK    3  A    between atoms: C_14  and  O_15
REMARK    4  A    between atoms: O_15  and  C_16
REMARK    5  A    between atoms: C_16  and  C_17
REMARK    6  A    between atoms: C_17  and  N_18
REMARK    7  A    between atoms: N_18  and  C_19
REMARK    8  A    between atoms: C_19  and  C_20
REMARK                            x       y       z     vdW  Elec       q    Type
REMARK                         _______ _______ _______ _____ _____    ______ ____
ROOT
ATOM      1  N   UNL     1       0.435  10.178  19.989  0.00  0.00    +0.000 N 
ATOM      2  C   UNL     1      -0.222   9.389  20.892  0.00  0.00    +0.000 A 
ATOM      3  C   UNL     1       0.791   8.670  21.460  0.00  0.00    +0.000 A 
ATOM      4  C   UNL     1       1.491   8.313  20.272  0.00  0.00    +0.000 A 
ATOM      5  C   UNL     1       2.096   7.095  19.923  0.00  0.00    +0.000 A 
ATOM      6  C   UNL     1       2.565   6.953  18.620  0.00  0.00    +0.000 A 
ATOM      7  C   UNL     1       2.504   8.031  17.722  0.00  0.00    +0.000 A 
ATOM      8  C   UNL     1       1.899   9.264  18.054  0.00  0.00    +0.000 A 
ATOM      9  C   UNL     1       1.315   9.335  19.327  0.00  0.00    +0.000 A 
ENDROOT
BRANCH   1  11
ATOM     10  O   UNL     1      -0.945  12.077  20.842  0.00  0.00    +0.000 OA
ATOM     11  S   UNL     1      -0.188  11.724  19.679  0.00  0.00    +0.000 S 
ATOM     12  O   UNL     1      -0.791  11.646  18.340  0.00  0.00    +0.000 OA
BRANCH  11  13
ATOM     13  C   UNL     1       1.285  12.745  19.576  0.00  0.00    +0.000 A 
ATOM     14  C   UNL     1       1.850  13.072  18.343  0.00  0.00    +0.000 A 
ATOM     15  C   UNL     1       2.999  13.879  18.273  0.00  0.00    +0.000 A 
ATOM     16  C   UNL     1       3.593  14.359  19.443  0.00  0.00    +0.000 A 
ATOM     17  C   UNL     1       3.011  14.068  20.679  0.00  0.00    +0.000 A 
ATOM     18  C   UNL     1       1.858  13.274  20.755  0.00  0.00    +0.000 A 
ENDBRANCH  11  13
ENDBRANCH   1  11
BRANCH   5  19
ATOM     19  O   UNL     1       2.008   6.129  20.877  0.00  0.00    +0.000 OA
BRANCH  19  20
ATOM     20  C   UNL     1       1.481   4.867  20.510  0.00  0.00    +0.000 C 
BRANCH  20  21
ATOM     21  C   UNL     1       2.558   3.795  20.743  0.00  0.00    +0.000 C 
BRANCH  21  22
ATOM     22  N   UNL     1       2.841   2.991  19.544  0.00  0.00    +0.000 NA
ATOM     23  H   UNL     1       2.416   3.413  18.720  0.00  0.00    +0.000 HD
BRANCH  22  24
ATOM     24  C   UNL     1       4.283   2.861  19.322  0.00  0.00    +0.000 C 
BRANCH  24  25
ATOM     25  C   UNL     1       4.800   3.976  18.446  0.00  0.00    +0.000 A 
ATOM     26  C   UNL     1       4.408   4.079  17.103  0.00  0.00    +0.000 A 
ATOM     27  C   UNL     1       4.913   5.099  16.294  0.00  0.00    +0.000 A 
ATOM     28  C   UNL     1       5.811   6.027  16.819  0.00  0.00    +0.000 A 
ATOM     29  C   UNL     1       6.195   5.946  18.156  0.00  0.00    +0.000 A 
ATOM     30  C   UNL     1       5.689   4.928  18.965  0.00  0.00    +0.000 A 
ENDBRANCH  24  25
ENDBRANCH  22  24
ENDBRANCH  21  22
ENDBRANCH  20  21
ENDBRANCH  19  20
ENDBRANCH   5  19
TORSDOF 8
ENDMDL
MODEL 9
REMARK VINA RESULT:      -7.3      1.454      3.268
REMARK  Name = 
REMARK  8 active torsions:
REMARK  status: ('A' for Active; 'I' for Inactive)
REMARK    1  A    between atoms: S_2  and  C_4
REMARK    2  A    between atoms: S_2  and  N_10
REMARK    3  A    between atoms: C_14  and  O_15
REMARK    4  A    between atoms: O_15  and  C_16
REMARK    5  A    between atoms: C_16  and  C_17
REMARK    6  A    between atoms: C_17  and  N_18
REMARK    7  A    between atoms: N_18  and  C_19
REMARK    8  A    between atoms: C_19  and  C_20
REMARK                            x       y       z     vdW  Elec       q    Type
REMARK                         _______ _______ _______ _____ _____    ______ ____
ROOT
ATOM      1  N   UNL     1       0.358   9.831  20.120  0.00  0.00    +0.000 N 
ATOM      2  C   UNL     1      -0.088   8.954  21.070  0.00  0.00    +0.000 A 
ATOM      3  C   UNL     1       1.063   8.350  21.489  0.00  0.00    +0.000 A 
ATOM      4  C   UNL     1       1.647   8.098  20.214  0.00  0.00    +0.000 A 
ATOM      5  C   UNL     1       2.340   6.966  19.756  0.00  0.00    +0.000 A 
ATOM      6  C   UNL     1       2.657   6.903  18.402  0.00  0.00    +0.000 A 
ATOM      7  C   UNL     1       2.363   7.981  17.553  0.00  0.00    +0.000 A 
ATOM      8  C   UNL     1       1.666   9.129  17.994  0.00  0.00    +0.000 A 
ATOM      9  C   UNL     1       1.239   9.109  19.330  0.00  0.00    +0.000 A 
ENDROOT
BRANCH   1  11
ATOM     10  O   UNL     1       0.516  12.256  19.543  0.00  0.00    +0.000 OA
ATOM     11  S   UNL     1      -0.473  11.298  19.937  0.00  0.00    +0.000 S 
ATOM     12  O   UNL     1      -1.277  11.451  21.159  0.00  0.00    +0.000 OA
BRANCH  11  13
ATOM     13  C   UNL     1      -1.586  10.969  18.568  0.00  0.00    +0.000 A 
ATOM     14  C   UNL     1      -2.431   9.860  18.577  0.00  0.00    +0.000 A 
ATOM     15  C   UNL     1      -3.305   9.616  17.503  0.00  0.00    +0.000 A 
ATOM     16  C   UNL     1      -3.332  10.483  16.408  0.00  0.00    +0.000 A 
ATOM     17  C   UNL     1      -2.518  11.619  16.410  0.00  0.00    +0.000 A 
ATOM     18  C   UNL     1      -1.652  11.873  17.483  0.00  0.00    +0.000 A 
ENDBRANCH  11  13
ENDBRANCH   1  11
BRANCH   5  19
ATOM     19  O   UNL     1       2.482   5.980  20.683  0.00  0.00    +0.000 OA
BRANCH  19  20
ATOM     20  C   UNL     1       1.631   4.851  20.600  0.00  0.00    +0.000 C 
BRANCH  20  21
ATOM     21  C   UNL     1       2.489   3.578  20.703  0.00  0.00    +0.000 C 
BRANCH  21  22
ATOM     22  N   UNL     1       3.063   3.164  19.414  0.00  0.00    +0.000 NA
ATOM     23  H   UNL     1       2.719   3.757  18.660  0.00  0.00    +0.000 HD
BRANCH  22  24
ATOM     24  C   UNL     1       4.526   3.229  19.441  0.00  0.00    +0.000 C 
BRANCH  24  25
ATOM     25  C   UNL     1       5.044   4.216  18.423  0.00  0.00    +0.000 A 
ATOM     26  C   UNL     1       4.662   4.130  17.076  0.00  0.00    +0.000 A 
ATOM     27  C   UNL     1       5.169   5.031  16.137  0.00  0.00    +0.000 A 
ATOM     28  C   UNL     1       6.057   6.029  16.536  0.00  0.00    +0.000 A 
ATOM     29  C   UNL     1       6.431   6.135  17.874  0.00  0.00    +0.000 A 
ATOM     30  C   UNL     1       5.925   5.236  18.812  0.00  0.00    +0.000 A 
ENDBRANCH  24  25
ENDBRANCH  22  24
ENDBRANCH  21  22
ENDBRANCH  20  21
ENDBRANCH  19  20
ENDBRANCH   5  19
TORSDOF 8
ENDMDL
