MODEL 1
REMARK VINA RESULT:      -7.7      0.000      0.000
REMARK  Name = 
REMARK  7 active torsions:
REMARK  status: ('A' for Active; 'I' for Inactive)
REMARK    1  A    between atoms: C_1  and  C_2
REMARK    2  A    between atoms: C_4  and  C_5
REMARK    3  A    between atoms: C_6  and  C_7
REMARK    4  A    between atoms: N_9  and  C_10
REMARK    5  A    between atoms: C_10  and  C_11
REMARK    6  A    between atoms: C_11  and  N_12
REMARK    7  A    between atoms: C_13  and  C_15
REMARK                            x       y       z     vdW  Elec       q    Type
REMARK                         _______ _______ _______ _____ _____    ______ ____
ROOT
ATOM      1  C   UNL     1       3.088   3.144  20.279  0.00  0.00    +0.000 C 
ENDROOT
BRANCH   1   2
ATOM      2  N   UNL     1       2.852   4.573  20.162  0.00  0.00    +0.000 N 
ATOM      3  C   UNL     1       2.406   5.160  18.999  0.00  0.00    +0.000 C 
ATOM      4  O   UNL     1       2.195   4.524  17.973  0.00  0.00    +0.000 OA
ATOM      5  H   UNL     1       2.930   5.132  21.007  0.00  0.00    +0.000 HD
BRANCH   3   6
ATOM      6  C   UNL     1       2.181   6.635  19.012  0.00  0.00    +0.000 A 
ATOM      7  C   UNL     1       2.485   7.371  17.854  0.00  0.00    +0.000 A 
ATOM      8  C   UNL     1       2.261   8.750  17.819  0.00  0.00    +0.000 A 
ATOM      9  C   UNL     1       1.741   9.391  18.939  0.00  0.00    +0.000 A 
ATOM     10  F   UNL     1       1.515  10.710  18.900  0.00  0.00    +0.000 F 
ATOM     11  C   UNL     1       1.448   8.684  20.098  0.00  0.00    +0.000 A 
ATOM     12  C   UNL     1       1.673   7.310  20.126  0.00  0.00    +0.000 A 
ATOM     13  F   UNL     1       1.380   6.655  21.260  0.00  0.00    +0.000 F 
ENDBRANCH   3   6
ENDBRANCH   1   2
BRANCH   1  14
ATOM     14  C   UNL     1       4.563   2.752  20.107  0.00  0.00    +0.000 C 
BRANCH  14  17
ATOM     15  C   UNL     1       5.829   4.350  18.714  0.00  0.00    +0.000 C 
ATOM     16  O   UNL     1       6.047   5.043  19.711  0.00  0.00    +0.000 OA
ATOM     17  N   UNL     1       5.118   3.175  18.834  0.00  0.00    +0.000 N 
ATOM     18  H   UNL     1       4.963   2.603  18.012  0.00  0.00    +0.000 HD
BRANCH  15  24
ATOM     19  C   UNL     1       7.030   4.781  13.566  0.00  0.00    +0.000 C 
ATOM     20  C   UNL     1       6.871   4.945  15.037  0.00  0.00    +0.000 A 
ATOM     21  N   UNL     1       7.435   5.912  15.723  0.00  0.00    +0.000 NA
ATOM     22  C   UNL     1       7.119   5.793  17.065  0.00  0.00    +0.000 A 
ATOM     23  C   UNL     1       7.676   6.808  18.001  0.00  0.00    +0.000 C 
ATOM     24  C   UNL     1       6.305   4.718  17.392  0.00  0.00    +0.000 A 
ATOM     25  S   UNL     1       5.922   3.848  15.959  0.00  0.00    +0.000 S 
ENDBRANCH  15  24
ENDBRANCH  14  17
ENDBRANCH   1  14
TORSDOF 5
ENDMDL
MODEL 2
REMARK VINA RESULT:      -7.7      3.410      6.626
REMARK  Name = 
REMARK  7 active torsions:
REMARK  status: ('A' for Active; 'I' for Inactive)
REMARK    1  A    between atoms: C_1  and  C_2
REMARK    2  A    between atoms: C_4  and  C_5
REMARK    3  A    between atoms: C_6  and  C_7
REMARK    4  A    between atoms: N_9  and  C_10
REMARK    5  A    between atoms: C_10  and  C_11
REMARK    6  A    between atoms: C_11  and  N_12
REMARK    7  A    between atoms: C_13  and  C_15
REMARK                            x       y       z     vdW  Elec       q    Type
REMARK                         _______ _______ _______ _____ _____    ______ ____
ROOT
ATOM      1  C   UNL     1       8.053   4.806  18.361  0.00  0.00    +0.000 C 
ENDROOT
BRANCH   1   2
ATOM      2  N   UNL     1       7.503   4.386  17.083  0.00  0.00    +0.000 N 
ATOM      3  C   UNL     1       7.305   5.259  16.036  0.00  0.00    +0.000 C 
ATOM      4  O   UNL     1       7.562   6.455  16.113  0.00  0.00    +0.000 OA
ATOM      5  H   UNL     1       7.354   3.392  16.940  0.00  0.00    +0.000 HD
BRANCH   3   6
ATOM      6  C   UNL     1       6.753   4.702  14.768  0.00  0.00    +0.000 A 
ATOM      7  C   UNL     1       7.555   4.738  13.614  0.00  0.00    +0.000 A 
ATOM      8  C   UNL     1       7.084   4.199  12.413  0.00  0.00    +0.000 A 
ATOM      9  C   UNL     1       5.813   3.635  12.365  0.00  0.00    +0.000 A 
ATOM     10  F   UNL     1       5.367   3.109  11.218  0.00  0.00    +0.000 F 
ATOM     11  C   UNL     1       4.999   3.603  13.490  0.00  0.00    +0.000 A 
ATOM     12  C   UNL     1       5.476   4.140  14.683  0.00  0.00    +0.000 A 
ATOM     13  F   UNL     1       4.666   4.095  15.752  0.00  0.00    +0.000 F 
ENDBRANCH   3   6
ENDBRANCH   1   2
BRANCH   1  14
ATOM     14  C   UNL     1       7.055   5.581  19.232  0.00  0.00    +0.000 C 
BRANCH  14  17
ATOM     15  C   UNL     1       4.643   5.398  18.735  0.00  0.00    +0.000 C 
ATOM     16  O   UNL     1       4.719   6.394  18.012  0.00  0.00    +0.000 OA
ATOM     17  N   UNL     1       5.773   4.912  19.359  0.00  0.00    +0.000 N 
ATOM     18  H   UNL     1       5.704   4.080  19.933  0.00  0.00    +0.000 HD
BRANCH  15  24
ATOM     19  C   UNL     1       0.552   2.027  18.934  0.00  0.00    +0.000 C 
ATOM     20  C   UNL     1       1.502   3.166  19.071  0.00  0.00    +0.000 A 
ATOM     21  N   UNL     1       1.214   4.276  19.709  0.00  0.00    +0.000 NA
ATOM     22  C   UNL     1       2.284   5.152  19.652  0.00  0.00    +0.000 A 
ATOM     23  C   UNL     1       2.137   6.472  20.324  0.00  0.00    +0.000 C 
ATOM     24  C   UNL     1       3.394   4.691  18.958  0.00  0.00    +0.000 A 
ATOM     25  S   UNL     1       3.074   3.103  18.379  0.00  0.00    +0.000 S 
ENDBRANCH  15  24
ENDBRANCH  14  17
ENDBRANCH   1  14
TORSDOF 5
ENDMDL
MODEL 3
REMARK VINA RESULT:      -7.6      2.957      4.546
REMARK  Name = 
REMARK  7 active torsions:
REMARK  status: ('A' for Active; 'I' for Inactive)
REMARK    1  A    between atoms: C_1  and  C_2
REMARK    2  A    between atoms: C_4  and  C_5
REMARK    3  A    between atoms: C_6  and  C_7
REMARK    4  A    between atoms: N_9  and  C_10
REMARK    5  A    between atoms: C_10  and  C_11
REMARK    6  A    between atoms: C_11  and  N_12
REMARK    7  A    between atoms: C_13  and  C_15
REMARK                            x       y       z     vdW  Elec       q    Type
REMARK                         _______ _______ _______ _____ _____    ______ ____
ROOT
ATOM      1  C   UNL     1       7.331   4.827  18.843  0.00  0.00    +0.000 C 
ENDROOT
BRANCH   1   2
ATOM      2  N   UNL     1       6.047   4.152  18.763  0.00  0.00    +0.000 N 
ATOM      3  C   UNL     1       4.864   4.759  19.123  0.00  0.00    +0.000 C 
ATOM      4  O   UNL     1       4.811   5.906  19.552  0.00  0.00    +0.000 OA
ATOM      5  H   UNL     1       6.027   3.232  18.334  0.00  0.00    +0.000 HD
BRANCH   3   6
ATOM      6  C   UNL     1       3.609   3.967  18.975  0.00  0.00    +0.000 A 
ATOM      7  C   UNL     1       3.495   3.088  17.885  0.00  0.00    +0.000 A 
ATOM      8  C   UNL     1       2.346   2.307  17.728  0.00  0.00    +0.000 A 
ATOM      9  C   UNL     1       1.313   2.412  18.654  0.00  0.00    +0.000 A 
ATOM     10  F   UNL     1       0.218   1.656  18.509  0.00  0.00    +0.000 F 
ATOM     11  C   UNL     1       1.400   3.286  19.730  0.00  0.00    +0.000 A 
ATOM     12  C   UNL     1       2.548   4.060  19.880  0.00  0.00    +0.000 A 
ATOM     13  F   UNL     1       2.601   4.895  20.929  0.00  0.00    +0.000 F 
ENDBRANCH   3   6
ENDBRANCH   1   2
BRANCH   1  14
ATOM     14  C   UNL     1       7.611   5.751  17.649  0.00  0.00    +0.000 C 
BRANCH  14  17
ATOM     15  C   UNL     1       6.626   5.526  15.395  0.00  0.00    +0.000 C 
ATOM     16  O   UNL     1       5.966   6.551  15.585  0.00  0.00    +0.000 OA
ATOM     17  N   UNL     1       7.493   5.076  16.369  0.00  0.00    +0.000 N 
ATOM     18  H   UNL     1       8.047   4.245  16.195  0.00  0.00    +0.000 HD
BRANCH  15  24
ATOM     19  C   UNL     1       5.484   2.204  11.422  0.00  0.00    +0.000 C 
ATOM     20  C   UNL     1       6.037   3.253  12.323  0.00  0.00    +0.000 A 
ATOM     21  N   UNL     1       7.058   4.015  12.005  0.00  0.00    +0.000 NA
ATOM     22  C   UNL     1       7.352   4.878  13.047  0.00  0.00    +0.000 A 
ATOM     23  C   UNL     1       8.488   5.822  12.865  0.00  0.00    +0.000 C 
ATOM     24  C   UNL     1       6.539   4.760  14.165  0.00  0.00    +0.000 A 
ATOM     25  S   UNL     1       5.366   3.535  13.879  0.00  0.00    +0.000 S 
ENDBRANCH  15  24
ENDBRANCH  14  17
ENDBRANCH   1  14
TORSDOF 5
ENDMDL
MODEL 4
REMARK VINA RESULT:      -7.4      4.831      8.522
REMARK  Name = 
REMARK  7 active torsions:
REMARK  status: ('A' for Active; 'I' for Inactive)
REMARK    1  A    between atoms: C_1  and  C_2
REMARK    2  A    between atoms: C_4  and  C_5
REMARK    3  A    between atoms: C_6  and  C_7
REMARK    4  A    between atoms: N_9  and  C_10
REMARK    5  A    between atoms: C_10  and  C_11
REMARK    6  A    between atoms: C_11  and  N_12
REMARK    7  A    between atoms: C_13  and  C_15
REMARK                            x       y       z     vdW  Elec       q    Type
REMARK                         _______ _______ _______ _____ _____    ______ ____
ROOT
ATOM      1  C   UNL     1       2.435   9.048  17.851  0.00  0.00    +0.000 C 
ENDROOT
BRANCH   1   2
ATOM      2  N   UNL     1       2.708   7.624  17.772  0.00  0.00    +0.000 N 
ATOM      3  C   UNL     1       2.575   6.780  18.853  0.00  0.00    +0.000 C 
ATOM      4  O   UNL     1       2.235   7.173  19.963  0.00  0.00    +0.000 OA
ATOM      5  H   UNL     1       2.911   7.235  16.857  0.00  0.00    +0.000 HD
BRANCH   3   6
ATOM      6  C   UNL     1       2.865   5.333  18.639  0.00  0.00    +0.000 A 
ATOM      7  C   UNL     1       1.908   4.549  17.972  0.00  0.00    +0.000 A 
ATOM      8  C   UNL     1       2.156   3.195  17.727  0.00  0.00    +0.000 A 
ATOM      9  C   UNL     1       3.352   2.627  18.154  0.00  0.00    +0.000 A 
ATOM     10  F   UNL     1       3.594   1.333  17.908  0.00  0.00    +0.000 F 
ATOM     11  C   UNL     1       4.305   3.382  18.827  0.00  0.00    +0.000 A 
ATOM     12  C   UNL     1       4.051   4.729  19.066  0.00  0.00    +0.000 A 
ATOM     13  F   UNL     1       4.991   5.432  19.720  0.00  0.00    +0.000 F 
ENDBRANCH   3   6
ENDBRANCH   1   2
BRANCH   1  14
ATOM     14  C   UNL     1       0.950   9.375  18.062  0.00  0.00    +0.000 C 
BRANCH  14  17
ATOM     15  C   UNL     1      -0.574  10.493  19.653  0.00  0.00    +0.000 C 
ATOM     16  O   UNL     1      -1.524  10.261  18.901  0.00  0.00    +0.000 OA
ATOM     17  N   UNL     1       0.692  10.058  19.317  0.00  0.00    +0.000 N 
ATOM     18  H   UNL     1       1.462  10.235  19.952  0.00  0.00    +0.000 HD
BRANCH  15  24
ATOM     19  C   UNL     1      -1.277  13.993  23.576  0.00  0.00    +0.000 C 
ATOM     20  C   UNL     1      -1.051  12.790  22.728  0.00  0.00    +0.000 A 
ATOM     21  N   UNL     1      -0.810  11.596  23.216  0.00  0.00    +0.000 NA
ATOM     22  C   UNL     1      -0.627  10.688  22.187  0.00  0.00    +0.000 A 
ATOM     23  C   UNL     1      -0.340   9.274  22.554  0.00  0.00    +0.000 C 
ATOM     24  C   UNL     1      -0.729  11.211  20.906  0.00  0.00    +0.000 A 
ATOM     25  S   UNL     1      -1.082  12.890  21.012  0.00  0.00    +0.000 S 
ENDBRANCH  15  24
ENDBRANCH  14  17
ENDBRANCH   1  14
TORSDOF 5
ENDMDL
MODEL 5
REMARK VINA RESULT:      -7.4      1.460      2.191
REMARK  Name = 
REMARK  7 active torsions:
REMARK  status: ('A' for Active; 'I' for Inactive)
REMARK    1  A    between atoms: C_1  and  C_2
REMARK    2  A    between atoms: C_4  and  C_5
REMARK    3  A    between atoms: C_6  and  C_7
REMARK    4  A    between atoms: N_9  and  C_10
REMARK    5  A    between atoms: C_10  and  C_11
REMARK    6  A    between atoms: C_11  and  N_12
REMARK    7  A    between atoms: C_13  and  C_15
REMARK                            x       y       z     vdW  Elec       q    Type
REMARK                         _______ _______ _______ _____ _____    ______ ____
ROOT
ATOM      1  C   UNL     1       2.301   2.707  19.069  0.00  0.00    +0.000 C 
ENDROOT
BRANCH   1   2
ATOM      2  N   UNL     1       2.114   4.128  18.825  0.00  0.00    +0.000 N 
ATOM      3  C   UNL     1       2.312   5.081  19.799  0.00  0.00    +0.000 C 
ATOM      4  O   UNL     1       2.642   4.800  20.945  0.00  0.00    +0.000 OA
ATOM      5  H   UNL     1       1.924   4.419  17.871  0.00  0.00    +0.000 HD
BRANCH   3   6
ATOM      6  C   UNL     1       2.109   6.509  19.418  0.00  0.00    +0.000 A 
ATOM      7  C   UNL     1       2.458   6.913  18.118  0.00  0.00    +0.000 A 
ATOM      8  C   UNL     1       2.256   8.236  17.714  0.00  0.00    +0.000 A 
ATOM      9  C   UNL     1       1.713   9.152  18.610  0.00  0.00    +0.000 A 
ATOM     10  F   UNL     1       1.508  10.416  18.219  0.00  0.00    +0.000 F 
ATOM     11  C   UNL     1       1.374   8.776  19.903  0.00  0.00    +0.000 A 
ATOM     12  C   UNL     1       1.578   7.457  20.298  0.00  0.00    +0.000 A 
ATOM     13  F   UNL     1       1.241   7.125  21.554  0.00  0.00    +0.000 F 
ENDBRANCH   3   6
ENDBRANCH   1   2
BRANCH   1  14
ATOM     14  C   UNL     1       3.686   2.192  18.652  0.00  0.00    +0.000 C 
BRANCH  14  17
ATOM     15  C   UNL     1       4.741   3.956  17.282  0.00  0.00    +0.000 C 
ATOM     16  O   UNL     1       3.950   3.714  16.366  0.00  0.00    +0.000 OA
ATOM     17  N   UNL     1       4.656   3.257  18.468  0.00  0.00    +0.000 N 
ATOM     18  H   UNL     1       5.296   3.479  19.221  0.00  0.00    +0.000 HD
BRANCH  15  24
ATOM     19  C   UNL     1       8.141   7.984  17.867  0.00  0.00    +0.000 C 
ATOM     20  C   UNL     1       7.348   6.809  17.410  0.00  0.00    +0.000 A 
ATOM     21  N   UNL     1       7.521   6.228  16.246  0.00  0.00    +0.000 NA
ATOM     22  C   UNL     1       6.630   5.179  16.099  0.00  0.00    +0.000 A 
ATOM     23  C   UNL     1       6.678   4.401  14.831  0.00  0.00    +0.000 C 
ATOM     24  C   UNL     1       5.773   4.971  17.171  0.00  0.00    +0.000 A 
ATOM     25  S   UNL     1       6.119   6.125  18.398  0.00  0.00    +0.000 S 
ENDBRANCH  15  24
ENDBRANCH  14  17
ENDBRANCH   1  14
TORSDOF 5
ENDMDL
MODEL 6
REMARK VINA RESULT:      -7.3      2.648      4.594
REMARK  Name = 
REMARK  7 active torsions:
REMARK  status: ('A' for Active; 'I' for Inactive)
REMARK    1  A    between atoms: C_1  and  C_2
REMARK    2  A    between atoms: C_4  and  C_5
REMARK    3  A    between atoms: C_6  and  C_7
REMARK    4  A    between atoms: N_9  and  C_10
REMARK    5  A    between atoms: C_10  and  C_11
REMARK    6  A    between atoms: C_11  and  N_12
REMARK    7  A    between atoms: C_13  and  C_15
REMARK                            x       y       z     vdW  Elec       q    Type
REMARK                         _______ _______ _______ _____ _____    ______ ____
ROOT
ATOM      1  C   UNL     1       7.591   5.813  18.522  0.00  0.00    +0.000 C 
ENDROOT
BRANCH   1   2
ATOM      2  N   UNL     1       6.359   5.423  19.186  0.00  0.00    +0.000 N 
ATOM      3  C   UNL     1       5.524   4.447  18.688  0.00  0.00    +0.000 C 
ATOM      4  O   UNL     1       5.749   3.852  17.641  0.00  0.00    +0.000 OA
ATOM      5  H   UNL     1       6.171   5.825  20.099  0.00  0.00    +0.000 HD
BRANCH   3   6
ATOM      6  C   UNL     1       4.299   4.121  19.474  0.00  0.00    +0.000 A 
ATOM      7  C   UNL     1       4.150   2.815  19.973  0.00  0.00    +0.000 A 
ATOM      8  C   UNL     1       3.029   2.479  20.738  0.00  0.00    +0.000 A 
ATOM      9  C   UNL     1       2.059   3.442  20.996  0.00  0.00    +0.000 A 
ATOM     10  F   UNL     1       0.992   3.122  21.739  0.00  0.00    +0.000 F 
ATOM     11  C   UNL     1       2.181   4.734  20.500  0.00  0.00    +0.000 A 
ATOM     12  C   UNL     1       3.300   5.061  19.740  0.00  0.00    +0.000 A 
ATOM     13  F   UNL     1       3.388   6.318  19.274  0.00  0.00    +0.000 F 
ENDBRANCH   3   6
ENDBRANCH   1   2
BRANCH   1  14
ATOM     14  C   UNL     1       7.364   6.623  17.238  0.00  0.00    +0.000 C 
BRANCH  14  17
ATOM     15  C   UNL     1       6.317   5.796  15.159  0.00  0.00    +0.000 C 
ATOM     16  O   UNL     1       5.349   6.535  15.357  0.00  0.00    +0.000 OA
ATOM     17  N   UNL     1       7.378   5.802  16.040  0.00  0.00    +0.000 N 
ATOM     18  H   UNL     1       8.178   5.206  15.857  0.00  0.00    +0.000 HD
BRANCH  15  24
ATOM     19  C   UNL     1       5.745   2.050  11.448  0.00  0.00    +0.000 C 
ATOM     20  C   UNL     1       6.159   3.204  12.293  0.00  0.00    +0.000 A 
ATOM     21  N   UNL     1       7.189   3.969  12.018  0.00  0.00    +0.000 NA
ATOM     22  C   UNL     1       7.334   4.944  12.991  0.00  0.00    +0.000 A 
ATOM     23  C   UNL     1       8.459   5.908  12.844  0.00  0.00    +0.000 C 
ATOM     24  C   UNL     1       6.397   4.907  14.014  0.00  0.00    +0.000 A 
ATOM     25  S   UNL     1       5.299   3.615  13.723  0.00  0.00    +0.000 S 
ENDBRANCH  15  24
ENDBRANCH  14  17
ENDBRANCH   1  14
TORSDOF 5
ENDMDL
MODEL 7
REMARK VINA RESULT:      -7.3      5.387      7.828
REMARK  Name = 
REMARK  7 active torsions:
REMARK  status: ('A' for Active; 'I' for Inactive)
REMARK    1  A    between atoms: C_1  and  C_2
REMARK    2  A    between atoms: C_4  and  C_5
REMARK    3  A    between atoms: C_6  and  C_7
REMARK    4  A    between atoms: N_9  and  C_10
REMARK    5  A    between atoms: C_10  and  C_11
REMARK    6  A    between atoms: C_11  and  N_12
REMARK    7  A    between atoms: C_13  and  C_15
REMARK                            x       y       z     vdW  Elec       q    Type
REMARK                         _______ _______ _______ _____ _____    ______ ____
ROOT
ATOM      1  C   UNL     1       8.088   8.447  18.410  0.00  0.00    +0.000 C 
ENDROOT
BRANCH   1   2
ATOM      2  N   UNL     1       8.759   9.673  18.012  0.00  0.00    +0.000 N 
ATOM      3  C   UNL     1       9.361  10.518  18.918  0.00  0.00    +0.000 C 
ATOM      4  O   UNL     1       9.358  10.307  20.126  0.00  0.00    +0.000 OA
ATOM      5  H   UNL     1       8.864   9.849  17.018  0.00  0.00    +0.000 HD
BRANCH   3   6
ATOM      6  C   UNL     1      10.037  11.735  18.383  0.00  0.00    +0.000 A 
ATOM      7  C   UNL     1       9.242  12.759  17.838  0.00  0.00    +0.000 A 
ATOM      8  C   UNL     1       9.837  13.927  17.352  0.00  0.00    +0.000 A 
ATOM      9  C   UNL     1      11.219  14.068  17.405  0.00  0.00    +0.000 A 
ATOM     10  F   UNL     1      11.787  15.192  16.950  0.00  0.00    +0.000 F 
ATOM     11  C   UNL     1      12.023  13.062  17.926  0.00  0.00    +0.000 A 
ATOM     12  C   UNL     1      11.424  11.902  18.409  0.00  0.00    +0.000 A 
ATOM     13  F   UNL     1      12.228  10.948  18.906  0.00  0.00    +0.000 F 
ENDBRANCH   3   6
ENDBRANCH   1   2
BRANCH   1  14
ATOM     14  C   UNL     1       7.632   7.587  17.223  0.00  0.00    +0.000 C 
BRANCH  14  17
ATOM     15  C   UNL     1       5.532   6.397  16.696  0.00  0.00    +0.000 C 
ATOM     16  O   UNL     1       5.523   6.914  15.577  0.00  0.00    +0.000 OA
ATOM     17  N   UNL     1       6.568   6.662  17.568  0.00  0.00    +0.000 N 
ATOM     18  H   UNL     1       6.577   6.214  18.478  0.00  0.00    +0.000 HD
BRANCH  15  24
ATOM     19  C   UNL     1       2.351   2.323  17.886  0.00  0.00    +0.000 C 
ATOM     20  C   UNL     1       3.008   3.648  17.709  0.00  0.00    +0.000 A 
ATOM     21  N   UNL     1       2.471   4.780  18.102  0.00  0.00    +0.000 NA
ATOM     22  C   UNL     1       3.305   5.839  17.788  0.00  0.00    +0.000 A 
ATOM     23  C   UNL     1       2.856   7.208  18.159  0.00  0.00    +0.000 C 
ATOM     24  C   UNL     1       4.487   5.495  17.146  0.00  0.00    +0.000 A 
ATOM     25  S   UNL     1       4.545   3.787  16.953  0.00  0.00    +0.000 S 
ENDBRANCH  15  24
ENDBRANCH  14  17
ENDBRANCH   1  14
TORSDOF 5
ENDMDL
MODEL 8
REMARK VINA RESULT:      -7.3      2.112      2.918
REMARK  Name = 
REMARK  7 active torsions:
REMARK  status: ('A' for Active; 'I' for Inactive)
REMARK    1  A    between atoms: C_1  and  C_2
REMARK    2  A    between atoms: C_4  and  C_5
REMARK    3  A    between atoms: C_6  and  C_7
REMARK    4  A    between atoms: N_9  and  C_10
REMARK    5  A    between atoms: C_10  and  C_11
REMARK    6  A    between atoms: C_11  and  N_12
REMARK    7  A    between atoms: C_13  and  C_15
REMARK                            x       y       z     vdW  Elec       q    Type
REMARK                         _______ _______ _______ _____ _____    ______ ____
ROOT
ATOM      1  C   UNL     1       2.124   5.294  19.955  0.00  0.00    +0.000 C 
ENDROOT
BRANCH   1   2
ATOM      2  N   UNL     1       1.473   6.408  20.624  0.00  0.00    +0.000 N 
ATOM      3  C   UNL     1       1.575   7.706  20.175  0.00  0.00    +0.000 C 
ATOM      4  O   UNL     1       2.236   8.019  19.192  0.00  0.00    +0.000 OA
ATOM      5  H   UNL     1       0.845   6.191  21.391  0.00  0.00    +0.000 HD
BRANCH   3   6
ATOM      6  C   UNL     1       0.841   8.758  20.937  0.00  0.00    +0.000 A 
ATOM      7  C   UNL     1       0.915   8.745  22.340  0.00  0.00    +0.000 A 
ATOM      8  C   UNL     1       0.264   9.731  23.088  0.00  0.00    +0.000 A 
ATOM      9  C   UNL     1      -0.462  10.721  22.435  0.00  0.00    +0.000 A 
ATOM     10  F   UNL     1      -1.075  11.672  23.151  0.00  0.00    +0.000 F 
ATOM     11  C   UNL     1      -0.559  10.744  21.049  0.00  0.00    +0.000 A 
ATOM     12  C   UNL     1       0.092   9.759  20.311  0.00  0.00    +0.000 A 
ATOM     13  F   UNL     1      -0.021   9.808  18.974  0.00  0.00    +0.000 F 
ENDBRANCH   3   6
ENDBRANCH   1   2
BRANCH   1  14
ATOM     14  C   UNL     1       3.657   5.350  20.026  0.00  0.00    +0.000 C 
BRANCH  14  17
ATOM     15  C   UNL     1       5.452   4.738  18.444  0.00  0.00    +0.000 C 
ATOM     16  O   UNL     1       5.961   4.016  19.306  0.00  0.00    +0.000 OA
ATOM     17  N   UNL     1       4.284   5.417  18.718  0.00  0.00    +0.000 N 
ATOM     18  H   UNL     1       3.862   5.990  17.996  0.00  0.00    +0.000 HD
BRANCH  15  24
ATOM     19  C   UNL     1       6.977   4.443  13.373  0.00  0.00    +0.000 C 
ATOM     20  C   UNL     1       6.750   4.796  14.802  0.00  0.00    +0.000 A 
ATOM     21  N   UNL     1       7.359   5.789  15.408  0.00  0.00    +0.000 NA
ATOM     22  C   UNL     1       6.958   5.859  16.731  0.00  0.00    +0.000 A 
ATOM     23  C   UNL     1       7.551   6.930  17.578  0.00  0.00    +0.000 C 
ATOM     24  C   UNL     1       6.034   4.902  17.124  0.00  0.00    +0.000 A 
ATOM     25  S   UNL     1       5.655   3.901  15.778  0.00  0.00    +0.000 S 
ENDBRANCH  15  24
ENDBRANCH  14  17
ENDBRANCH   1  14
TORSDOF 5
ENDMDL
MODEL 9
REMARK VINA RESULT:      -7.3      1.724      2.631
REMARK  Name = 
REMARK  7 active torsions:
REMARK  status: ('A' for Active; 'I' for Inactive)
REMARK    1  A    between atoms: C_1  and  C_2
REMARK    2  A    between atoms: C_4  and  C_5
REMARK    3  A    between atoms: C_6  and  C_7
REMARK    4  A    between atoms: N_9  and  C_10
REMARK    5  A    between atoms: C_10  and  C_11
REMARK    6  A    between atoms: C_11  and  N_12
REMARK    7  A    between atoms: C_13  and  C_15
REMARK                            x       y       z     vdW  Elec       q    Type
REMARK                         _______ _______ _______ _____ _____    ______ ____
ROOT
ATOM      1  C   UNL     1       2.213   2.448  19.014  0.00  0.00    +0.000 C 
ENDROOT
BRANCH   1   2
ATOM      2  N   UNL     1       1.984   3.881  18.941  0.00  0.00    +0.000 N 
ATOM      3  C   UNL     1       2.406   4.752  19.922  0.00  0.00    +0.000 C 
ATOM      4  O   UNL     1       2.988   4.379  20.934  0.00  0.00    +0.000 OA
ATOM      5  H   UNL     1       1.583   4.249  18.084  0.00  0.00    +0.000 HD
BRANCH   3   6
ATOM      6  C   UNL     1       2.130   6.204  19.720  0.00  0.00    +0.000 A 
ATOM      7  C   UNL     1       1.537   6.926  20.770  0.00  0.00    +0.000 A 
ATOM      8  C   UNL     1       1.289   8.294  20.630  0.00  0.00    +0.000 A 
ATOM      9  C   UNL     1       1.626   8.936  19.442  0.00  0.00    +0.000 A 
ATOM     10  F   UNL     1       1.399  10.248  19.313  0.00  0.00    +0.000 F 
ATOM     11  C   UNL     1       2.200   8.237  18.388  0.00  0.00    +0.000 A 
ATOM     12  C   UNL     1       2.445   6.875  18.535  0.00  0.00    +0.000 A 
ATOM     13  F   UNL     1       3.000   6.228  17.498  0.00  0.00    +0.000 F 
ENDBRANCH   3   6
ENDBRANCH   1   2
BRANCH   1  14
ATOM     14  C   UNL     1       3.559   2.012  18.419  0.00  0.00    +0.000 C 
BRANCH  14  17
ATOM     15  C   UNL     1       4.776   3.779  17.194  0.00  0.00    +0.000 C 
ATOM     16  O   UNL     1       4.129   3.515  16.177  0.00  0.00    +0.000 OA
ATOM     17  N   UNL     1       4.530   3.090  18.363  0.00  0.00    +0.000 N 
ATOM     18  H   UNL     1       5.052   3.330  19.199  0.00  0.00    +0.000 HD
BRANCH  15  24
ATOM     19  C   UNL     1       8.233   7.629  18.356  0.00  0.00    +0.000 C 
ATOM     20  C   UNL     1       7.398   6.572  17.722  0.00  0.00    +0.000 A 
ATOM     21  N   UNL     1       7.465   6.264  16.447  0.00  0.00    +0.000 NA
ATOM     22  C   UNL     1       6.559   5.260  16.150  0.00  0.00    +0.000 A 
ATOM     23  C   UNL     1       6.493   4.780  14.743  0.00  0.00    +0.000 C 
ATOM     24  C   UNL     1       5.799   4.808  17.220  0.00  0.00    +0.000 A 
ATOM     25  S   UNL     1       6.257   5.669  18.637  0.00  0.00    +0.000 S 
ENDBRANCH  15  24
ENDBRANCH  14  17
ENDBRANCH   1  14
TORSDOF 5
ENDMDL
