MODEL 1
REMARK VINA RESULT:      -8.1      0.000      0.000
REMARK  Name = 
REMARK  2 active torsions:
REMARK  status: ('A' for Active; 'I' for Inactive)
REMARK    1  A    between atoms: C_4  and  C_5
REMARK    2  A    between atoms: C_14  and  C_15
REMARK                            x       y       z     vdW  Elec       q    Type
REMARK                         _______ _______ _______ _____ _____    ______ ____
ROOT
ATOM      1  N   UNL     1       7.631   5.260  19.399  0.00  0.00    +0.000 N 
ATOM      2  C   UNL     1       6.485   4.776  18.825  0.00  0.00    +0.000 A 
ATOM      3  N   UNL     1       5.505   4.401  19.616  0.00  0.00    +0.000 NA
ATOM      4  C   UNL     1       4.316   3.934  19.061  0.00  0.00    +0.000 A 
ATOM      5  C   UNL     1       4.109   3.892  17.731  0.00  0.00    +0.000 A 
ATOM      6  N   UNL     1       5.129   4.264  16.885  0.00  0.00    +0.000 N 
ATOM      7  N   UNL     1       5.180   4.291  15.539  0.00  0.00    +0.000 NA
ATOM      8  C   UNL     1       6.452   4.655  15.310  0.00  0.00    +0.000 A 
ATOM      9  N   UNL     1       7.202   4.892  16.440  0.00  0.00    +0.000 NA
ATOM     10  C   UNL     1       6.329   4.669  17.395  0.00  0.00    +0.000 A 
ATOM     11  H   UNL     1       7.760   5.012  20.373  0.00  0.00    +0.000 HD
ATOM     12  H   UNL     1       8.464   5.228  18.820  0.00  0.00    +0.000 HD
ENDROOT
BRANCH   4  13
ATOM     13  C   UNL     1       3.240   3.516  19.981  0.00  0.00    +0.000 A 
ATOM     14  C   UNL     1       1.905   3.852  19.822  0.00  0.00    +0.000 A 
ATOM     15  N   UNL     1       0.913   3.498  20.670  0.00  0.00    +0.000 NA
ATOM     16  C   UNL     1       1.288   2.750  21.716  0.00  0.00    +0.000 A 
ATOM     17  N   UNL     1       2.534   2.328  21.973  0.00  0.00    +0.000 NA
ATOM     18  C   UNL     1       3.481   2.720  21.087  0.00  0.00    +0.000 A 
ENDBRANCH   4  13
BRANCH   8  19
ATOM     19  C   UNL     1       6.999   4.791  13.927  0.00  0.00    +0.000 A 
ATOM     20  C   UNL     1       6.622   4.030  12.834  0.00  0.00    +0.000 A 
ATOM     21  C   UNL     1       7.382   4.487  11.732  0.00  0.00    +0.000 A 
ATOM     22  C   UNL     1       8.187   5.490  12.217  0.00  0.00    +0.000 A 
ATOM     23  O   UNL     1       7.956   5.690  13.540  0.00  0.00    +0.000 OA
ENDBRANCH   8  19
TORSDOF 2
ENDMDL
MODEL 2
REMARK VINA RESULT:      -8.0      0.067      1.028
REMARK  Name = 
REMARK  2 active torsions:
REMARK  status: ('A' for Active; 'I' for Inactive)
REMARK    1  A    between atoms: C_4  and  C_5
REMARK    2  A    between atoms: C_14  and  C_15
REMARK                            x       y       z     vdW  Elec       q    Type
REMARK                         _______ _______ _______ _____ _____    ______ ____
ROOT
ATOM      1  N   UNL     1       7.685   5.149  19.358  0.00  0.00    +0.000 N 
ATOM      2  C   UNL     1       6.520   4.701  18.793  0.00  0.00    +0.000 A 
ATOM      3  N   UNL     1       5.540   4.344  19.592  0.00  0.00    +0.000 NA
ATOM      4  C   UNL     1       4.332   3.914  19.047  0.00  0.00    +0.000 A 
ATOM      5  C   UNL     1       4.109   3.890  17.718  0.00  0.00    +0.000 A 
ATOM      6  N   UNL     1       5.129   4.244  16.864  0.00  0.00    +0.000 N 
ATOM      7  N   UNL     1       5.165   4.282  15.518  0.00  0.00    +0.000 NA
ATOM      8  C   UNL     1       6.443   4.615  15.277  0.00  0.00    +0.000 A 
ATOM      9  N   UNL     1       7.212   4.821  16.401  0.00  0.00    +0.000 NA
ATOM     10  C   UNL     1       6.345   4.613  17.364  0.00  0.00    +0.000 A 
ATOM     11  H   UNL     1       7.819   4.889  20.327  0.00  0.00    +0.000 HD
ATOM     12  H   UNL     1       8.510   5.102  18.768  0.00  0.00    +0.000 HD
ENDROOT
BRANCH   4  13
ATOM     13  C   UNL     1       3.257   3.515  19.975  0.00  0.00    +0.000 A 
ATOM     14  C   UNL     1       3.453   2.745  21.111  0.00  0.00    +0.000 A 
ATOM     15  N   UNL     1       2.474   2.352  21.956  0.00  0.00    +0.000 NA
ATOM     16  C   UNL     1       1.242   2.776  21.648  0.00  0.00    +0.000 A 
ATOM     17  N   UNL     1       0.915   3.550  20.603  0.00  0.00    +0.000 NA
ATOM     18  C   UNL     1       1.941   3.907  19.794  0.00  0.00    +0.000 A 
ENDBRANCH   4  13
BRANCH   8  19
ATOM     19  C   UNL     1       6.977   4.750  13.889  0.00  0.00    +0.000 A 
ATOM     20  C   UNL     1       6.592   3.987  12.801  0.00  0.00    +0.000 A 
ATOM     21  C   UNL     1       7.341   4.444  11.691  0.00  0.00    +0.000 A 
ATOM     22  C   UNL     1       8.148   5.449  12.168  0.00  0.00    +0.000 A 
ATOM     23  O   UNL     1       7.929   5.650  13.492  0.00  0.00    +0.000 OA
ENDBRANCH   8  19
TORSDOF 2
ENDMDL
MODEL 3
REMARK VINA RESULT:      -7.7      2.580      7.461
REMARK  Name = 
REMARK  2 active torsions:
REMARK  status: ('A' for Active; 'I' for Inactive)
REMARK    1  A    between atoms: C_4  and  C_5
REMARK    2  A    between atoms: C_14  and  C_15
REMARK                            x       y       z     vdW  Elec       q    Type
REMARK                         _______ _______ _______ _____ _____    ______ ____
ROOT
ATOM      1  N   UNL     1       7.923   5.076  18.875  0.00  0.00    +0.000 N 
ATOM      2  C   UNL     1       7.004   4.709  17.928  0.00  0.00    +0.000 A 
ATOM      3  N   UNL     1       7.340   4.817  16.663  0.00  0.00    +0.000 NA
ATOM      4  C   UNL     1       6.438   4.422  15.677  0.00  0.00    +0.000 A 
ATOM      5  C   UNL     1       5.238   3.885  15.972  0.00  0.00    +0.000 A 
ATOM      6  N   UNL     1       4.860   3.780  17.291  0.00  0.00    +0.000 N 
ATOM      7  N   UNL     1       3.723   3.307  17.838  0.00  0.00    +0.000 NA
ATOM      8  C   UNL     1       3.915   3.547  19.145  0.00  0.00    +0.000 A 
ATOM      9  N   UNL     1       5.127   4.118  19.460  0.00  0.00    +0.000 NA
ATOM     10  C   UNL     1       5.695   4.214  18.281  0.00  0.00    +0.000 A 
ATOM     11  H   UNL     1       8.664   5.681  18.542  0.00  0.00    +0.000 HD
ATOM     12  H   UNL     1       7.549   5.299  19.793  0.00  0.00    +0.000 HD
ENDROOT
BRANCH   4  13
ATOM     13  C   UNL     1       6.848   4.563  14.267  0.00  0.00    +0.000 A 
ATOM     14  C   UNL     1       7.749   5.512  13.808  0.00  0.00    +0.000 A 
ATOM     15  N   UNL     1       8.114   5.669  12.516  0.00  0.00    +0.000 NA
ATOM     16  C   UNL     1       7.558   4.811  11.651  0.00  0.00    +0.000 A 
ATOM     17  N   UNL     1       6.700   3.828  11.961  0.00  0.00    +0.000 NA
ATOM     18  C   UNL     1       6.373   3.726  13.272  0.00  0.00    +0.000 A 
ENDBRANCH   4  13
BRANCH   8  19
ATOM     19  C   UNL     1       2.881   3.213  20.170  0.00  0.00    +0.000 A 
ATOM     20  C   UNL     1       1.535   3.525  20.087  0.00  0.00    +0.000 A 
ATOM     21  C   UNL     1       0.924   3.027  21.262  0.00  0.00    +0.000 A 
ATOM     22  C   UNL     1       1.932   2.453  21.998  0.00  0.00    +0.000 A 
ATOM     23  O   UNL     1       3.118   2.549  21.343  0.00  0.00    +0.000 OA
ENDBRANCH   8  19
TORSDOF 2
ENDMDL
MODEL 4
REMARK VINA RESULT:      -7.7      2.584      7.452
REMARK  Name = 
REMARK  2 active torsions:
REMARK  status: ('A' for Active; 'I' for Inactive)
REMARK    1  A    between atoms: C_4  and  C_5
REMARK    2  A    between atoms: C_14  and  C_15
REMARK                            x       y       z     vdW  Elec       q    Type
REMARK                         _______ _______ _______ _____ _____    ______ ____
ROOT
ATOM      1  N   UNL     1       7.937   5.102  18.857  0.00  0.00    +0.000 N 
ATOM      2  C   UNL     1       7.011   4.711  17.926  0.00  0.00    +0.000 A 
ATOM      3  N   UNL     1       7.328   4.810  16.656  0.00  0.00    +0.000 NA
ATOM      4  C   UNL     1       6.419   4.392  15.686  0.00  0.00    +0.000 A 
ATOM      5  C   UNL     1       5.230   3.842  16.003  0.00  0.00    +0.000 A 
ATOM      6  N   UNL     1       4.871   3.745  17.328  0.00  0.00    +0.000 N 
ATOM      7  N   UNL     1       3.749   3.263  17.895  0.00  0.00    +0.000 NA
ATOM      8  C   UNL     1       3.955   3.519  19.197  0.00  0.00    +0.000 A 
ATOM      9  N   UNL     1       5.163   4.111  19.489  0.00  0.00    +0.000 NA
ATOM     10  C   UNL     1       5.714   4.201  18.302  0.00  0.00    +0.000 A 
ATOM     11  H   UNL     1       8.664   5.713  18.507  0.00  0.00    +0.000 HD
ATOM     12  H   UNL     1       7.572   5.329  19.777  0.00  0.00    +0.000 HD
ENDROOT
BRANCH   4  13
ATOM     13  C   UNL     1       6.808   4.524  14.269  0.00  0.00    +0.000 A 
ATOM     14  C   UNL     1       6.320   3.723  13.249  0.00  0.00    +0.000 A 
ATOM     15  N   UNL     1       6.686   3.817  11.951  0.00  0.00    +0.000 NA
ATOM     16  C   UNL     1       7.573   4.780  11.670  0.00  0.00    +0.000 A 
ATOM     17  N   UNL     1       8.101   5.643  12.550  0.00  0.00    +0.000 NA
ATOM     18  C   UNL     1       7.694   5.494  13.834  0.00  0.00    +0.000 A 
ENDBRANCH   4  13
BRANCH   8  19
ATOM     19  C   UNL     1       2.940   3.182  20.240  0.00  0.00    +0.000 A 
ATOM     20  C   UNL     1       1.576   3.393  20.133  0.00  0.00    +0.000 A 
ATOM     21  C   UNL     1       0.993   2.932  21.337  0.00  0.00    +0.000 A 
ATOM     22  C   UNL     1       2.033   2.478  22.112  0.00  0.00    +0.000 A 
ATOM     23  O   UNL     1       3.214   2.614  21.454  0.00  0.00    +0.000 OA
ENDBRANCH   8  19
TORSDOF 2
ENDMDL
MODEL 5
REMARK VINA RESULT:      -7.4      4.688      8.200
REMARK  Name = 
REMARK  2 active torsions:
REMARK  status: ('A' for Active; 'I' for Inactive)
REMARK    1  A    between atoms: C_4  and  C_5
REMARK    2  A    between atoms: C_14  and  C_15
REMARK                            x       y       z     vdW  Elec       q    Type
REMARK                         _______ _______ _______ _____ _____    ______ ____
ROOT
ATOM      1  N   UNL     1       2.298   4.146  20.882  0.00  0.00    +0.000 N 
ATOM      2  C   UNL     1       2.622   5.119  19.975  0.00  0.00    +0.000 A 
ATOM      3  N   UNL     1       3.411   4.799  18.975  0.00  0.00    +0.000 NA
ATOM      4  C   UNL     1       3.733   5.759  18.019  0.00  0.00    +0.000 A 
ATOM      5  C   UNL     1       3.227   7.007  18.053  0.00  0.00    +0.000 A 
ATOM      6  N   UNL     1       2.411   7.369  19.101  0.00  0.00    +0.000 N 
ATOM      7  N   UNL     1       1.806   8.541  19.371  0.00  0.00    +0.000 NA
ATOM      8  C   UNL     1       1.231   8.297  20.560  0.00  0.00    +0.000 A 
ATOM      9  N   UNL     1       1.413   7.021  21.043  0.00  0.00    +0.000 NA
ATOM     10  C   UNL     1       2.124   6.469  20.088  0.00  0.00    +0.000 A 
ATOM     11  H   UNL     1       2.920   3.347  20.894  0.00  0.00    +0.000 HD
ATOM     12  H   UNL     1       1.980   4.473  21.789  0.00  0.00    +0.000 HD
ENDROOT
BRANCH   4  13
ATOM     13  C   UNL     1       4.629   5.364  16.915  0.00  0.00    +0.000 A 
ATOM     14  C   UNL     1       4.985   4.055  16.631  0.00  0.00    +0.000 A 
ATOM     15  N   UNL     1       5.823   3.681  15.639  0.00  0.00    +0.000 NA
ATOM     16  C   UNL     1       6.306   4.677  14.885  0.00  0.00    +0.000 A 
ATOM     17  N   UNL     1       6.020   5.979  15.027  0.00  0.00    +0.000 NA
ATOM     18  C   UNL     1       5.176   6.287  16.041  0.00  0.00    +0.000 A 
ENDBRANCH   4  13
BRANCH   8  19
ATOM     19  C   UNL     1       0.453   9.341  21.292  0.00  0.00    +0.000 A 
ATOM     20  C   UNL     1      -0.074   9.208  22.564  0.00  0.00    +0.000 A 
ATOM     21  C   UNL     1      -0.728  10.426  22.869  0.00  0.00    +0.000 A 
ATOM     22  C   UNL     1      -0.573  11.225  21.762  0.00  0.00    +0.000 A 
ATOM     23  O   UNL     1       0.149  10.585  20.806  0.00  0.00    +0.000 OA
ENDBRANCH   8  19
TORSDOF 2
ENDMDL
MODEL 6
REMARK VINA RESULT:      -7.4      4.787      8.251
REMARK  Name = 
REMARK  2 active torsions:
REMARK  status: ('A' for Active; 'I' for Inactive)
REMARK    1  A    between atoms: C_4  and  C_5
REMARK    2  A    between atoms: C_14  and  C_15
REMARK                            x       y       z     vdW  Elec       q    Type
REMARK                         _______ _______ _______ _____ _____    ______ ____
ROOT
ATOM      1  N   UNL     1       2.244   4.259  20.979  0.00  0.00    +0.000 N 
ATOM      2  C   UNL     1       2.554   5.236  20.070  0.00  0.00    +0.000 A 
ATOM      3  N   UNL     1       3.338   4.922  19.064  0.00  0.00    +0.000 NA
ATOM      4  C   UNL     1       3.645   5.886  18.107  0.00  0.00    +0.000 A 
ATOM      5  C   UNL     1       3.130   7.131  18.146  0.00  0.00    +0.000 A 
ATOM      6  N   UNL     1       2.320   7.485  19.201  0.00  0.00    +0.000 N 
ATOM      7  N   UNL     1       1.709   8.653  19.478  0.00  0.00    +0.000 NA
ATOM      8  C   UNL     1       1.145   8.403  20.671  0.00  0.00    +0.000 A 
ATOM      9  N   UNL     1       1.340   7.128  21.151  0.00  0.00    +0.000 NA
ATOM     10  C   UNL     1       2.047   6.582  20.189  0.00  0.00    +0.000 A 
ATOM     11  H   UNL     1       2.872   3.465  20.985  0.00  0.00    +0.000 HD
ATOM     12  H   UNL     1       1.931   4.583  21.889  0.00  0.00    +0.000 HD
ENDROOT
BRANCH   4  13
ATOM     13  C   UNL     1       4.534   5.499  16.994  0.00  0.00    +0.000 A 
ATOM     14  C   UNL     1       5.099   6.394  16.100  0.00  0.00    +0.000 A 
ATOM     15  N   UNL     1       5.895   6.051  15.062  0.00  0.00    +0.000 NA
ATOM     16  C   UNL     1       6.146   4.741  14.937  0.00  0.00    +0.000 A 
ATOM     17  N   UNL     1       5.694   3.773  15.747  0.00  0.00    +0.000 NA
ATOM     18  C   UNL     1       4.900   4.184  16.765  0.00  0.00    +0.000 A 
ENDBRANCH   4  13
BRANCH   8  19
ATOM     19  C   UNL     1       0.366   9.441  21.410  0.00  0.00    +0.000 A 
ATOM     20  C   UNL     1      -0.194   9.284  22.666  0.00  0.00    +0.000 A 
ATOM     21  C   UNL     1      -0.837  10.504  22.985  0.00  0.00    +0.000 A 
ATOM     22  C   UNL     1      -0.642  11.328  21.903  0.00  0.00    +0.000 A 
ATOM     23  O   UNL     1       0.093  10.701  20.950  0.00  0.00    +0.000 OA
ENDBRANCH   8  19
TORSDOF 2
ENDMDL
MODEL 7
REMARK VINA RESULT:      -7.3      5.019      7.970
REMARK  Name = 
REMARK  2 active torsions:
REMARK  status: ('A' for Active; 'I' for Inactive)
REMARK    1  A    between atoms: C_4  and  C_5
REMARK    2  A    between atoms: C_14  and  C_15
REMARK                            x       y       z     vdW  Elec       q    Type
REMARK                         _______ _______ _______ _____ _____    ______ ____
ROOT
ATOM      1  N   UNL     1       2.567   5.093  20.969  0.00  0.00    +0.000 N 
ATOM      2  C   UNL     1       2.899   5.856  19.881  0.00  0.00    +0.000 A 
ATOM      3  N   UNL     1       3.786   5.381  19.037  0.00  0.00    +0.000 NA
ATOM      4  C   UNL     1       4.120   6.120  17.904  0.00  0.00    +0.000 A 
ATOM      5  C   UNL     1       3.532   7.297  17.612  0.00  0.00    +0.000 A 
ATOM      6  N   UNL     1       2.613   7.820  18.493  0.00  0.00    +0.000 N 
ATOM      7  N   UNL     1       1.912   8.970  18.442  0.00  0.00    +0.000 NA
ATOM      8  C   UNL     1       1.261   8.958  19.616  0.00  0.00    +0.000 A 
ATOM      9  N   UNL     1       1.486   7.846  20.395  0.00  0.00    +0.000 NA
ATOM     10  C   UNL     1       2.306   7.150  19.643  0.00  0.00    +0.000 A 
ATOM     11  H   UNL     1       3.237   4.372  21.207  0.00  0.00    +0.000 HD
ATOM     12  H   UNL     1       2.156   5.592  21.752  0.00  0.00    +0.000 HD
ENDROOT
BRANCH   4  13
ATOM     13  C   UNL     1       5.125   5.557  16.982  0.00  0.00    +0.000 A 
ATOM     14  C   UNL     1       4.987   4.345  16.325  0.00  0.00    +0.000 A 
ATOM     15  N   UNL     1       5.910   3.806  15.497  0.00  0.00    +0.000 NA
ATOM     16  C   UNL     1       7.015   4.539  15.310  0.00  0.00    +0.000 A 
ATOM     17  N   UNL     1       7.264   5.738  15.854  0.00  0.00    +0.000 NA
ATOM     18  C   UNL     1       6.301   6.221  16.676  0.00  0.00    +0.000 A 
ENDBRANCH   4  13
BRANCH   8  19
ATOM     19  C   UNL     1       0.360  10.075  20.032  0.00  0.00    +0.000 A 
ATOM     20  C   UNL     1      -0.713  10.557  19.304  0.00  0.00    +0.000 A 
ATOM     21  C   UNL     1      -1.286  11.607  20.060  0.00  0.00    +0.000 A 
ATOM     22  C   UNL     1      -0.522  11.713  21.198  0.00  0.00    +0.000 A 
ATOM     23  O   UNL     1       0.469  10.784  21.197  0.00  0.00    +0.000 OA
ENDBRANCH   8  19
TORSDOF 2
ENDMDL
MODEL 8
REMARK VINA RESULT:      -7.3      4.027      7.875
REMARK  Name = 
REMARK  2 active torsions:
REMARK  status: ('A' for Active; 'I' for Inactive)
REMARK    1  A    between atoms: C_4  and  C_5
REMARK    2  A    between atoms: C_14  and  C_15
REMARK                            x       y       z     vdW  Elec       q    Type
REMARK                         _______ _______ _______ _____ _____    ______ ____
ROOT
ATOM      1  N   UNL     1       2.744   3.076  19.870  0.00  0.00    +0.000 N 
ATOM      2  C   UNL     1       3.148   4.205  19.207  0.00  0.00    +0.000 A 
ATOM      3  N   UNL     1       3.978   4.070  18.198  0.00  0.00    +0.000 NA
ATOM      4  C   UNL     1       4.381   5.197  17.486  0.00  0.00    +0.000 A 
ATOM      5  C   UNL     1       3.915   6.430  17.763  0.00  0.00    +0.000 A 
ATOM      6  N   UNL     1       3.057   6.595  18.827  0.00  0.00    +0.000 N 
ATOM      7  N   UNL     1       2.478   7.709  19.315  0.00  0.00    +0.000 NA
ATOM      8  C   UNL     1       1.833   7.243  20.397  0.00  0.00    +0.000 A 
ATOM      9  N   UNL     1       1.948   5.887  20.603  0.00  0.00    +0.000 NA
ATOM     10  C   UNL     1       2.689   5.520  19.584  0.00  0.00    +0.000 A 
ATOM     11  H   UNL     1       3.339   2.266  19.738  0.00  0.00    +0.000 HD
ATOM     12  H   UNL     1       2.390   3.216  20.811  0.00  0.00    +0.000 HD
ENDROOT
BRANCH   4  13
ATOM     13  C   UNL     1       5.320   5.006  16.363  0.00  0.00    +0.000 A 
ATOM     14  C   UNL     1       5.062   4.211  15.258  0.00  0.00    +0.000 A 
ATOM     15  N   UNL     1       5.922   4.008  14.234  0.00  0.00    +0.000 NA
ATOM     16  C   UNL     1       7.089   4.657  14.325  0.00  0.00    +0.000 A 
ATOM     17  N   UNL     1       7.456   5.481  15.318  0.00  0.00    +0.000 NA
ATOM     18  C   UNL     1       6.550   5.639  16.313  0.00  0.00    +0.000 A 
ENDBRANCH   4  13
BRANCH   8  19
ATOM     19  C   UNL     1       1.053   8.141  21.300  0.00  0.00    +0.000 A 
ATOM     20  C   UNL     1      -0.327   8.196  21.384  0.00  0.00    +0.000 A 
ATOM     21  C   UNL     1      -0.642   9.174  22.357  0.00  0.00    +0.000 A 
ATOM     22  C   UNL     1       0.561   9.667  22.801  0.00  0.00    +0.000 A 
ATOM     23  O   UNL     1       1.593   9.042  22.177  0.00  0.00    +0.000 OA
ENDBRANCH   8  19
TORSDOF 2
ENDMDL
MODEL 9
REMARK VINA RESULT:      -7.2      4.273      5.359
REMARK  Name = 
REMARK  2 active torsions:
REMARK  status: ('A' for Active; 'I' for Inactive)
REMARK    1  A    between atoms: C_4  and  C_5
REMARK    2  A    between atoms: C_14  and  C_15
REMARK                            x       y       z     vdW  Elec       q    Type
REMARK                         _______ _______ _______ _____ _____    ______ ____
ROOT
ATOM      1  N   UNL     1       1.810   4.246  21.074  0.00  0.00    +0.000 N 
ATOM      2  C   UNL     1       1.949   5.475  20.487  0.00  0.00    +0.000 A 
ATOM      3  N   UNL     1       1.320   6.495  21.025  0.00  0.00    +0.000 NA
ATOM      4  C   UNL     1       1.468   7.764  20.469  0.00  0.00    +0.000 A 
ATOM      5  C   UNL     1       2.273   7.999  19.414  0.00  0.00    +0.000 A 
ATOM      6  N   UNL     1       2.927   6.941  18.824  0.00  0.00    +0.000 N 
ATOM      7  N   UNL     1       3.756   6.910  17.764  0.00  0.00    +0.000 NA
ATOM      8  C   UNL     1       3.993   5.595  17.626  0.00  0.00    +0.000 A 
ATOM      9  N   UNL     1       3.381   4.793  18.563  0.00  0.00    +0.000 NA
ATOM     10  C   UNL     1       2.757   5.675  19.308  0.00  0.00    +0.000 A 
ATOM     11  H   UNL     1       1.007   4.151  21.684  0.00  0.00    +0.000 HD
ATOM     12  H   UNL     1       2.014   3.446  20.483  0.00  0.00    +0.000 HD
ENDROOT
BRANCH   4  13
ATOM     13  C   UNL     1       0.742   8.884  21.097  0.00  0.00    +0.000 A 
ATOM     14  C   UNL     1      -0.078   9.766  20.410  0.00  0.00    +0.000 A 
ATOM     15  N   UNL     1      -0.728  10.811  20.968  0.00  0.00    +0.000 NA
ATOM     16  C   UNL     1      -0.558  10.957  22.288  0.00  0.00    +0.000 A 
ATOM     17  N   UNL     1       0.177  10.162  23.079  0.00  0.00    +0.000 NA
ATOM     18  C   UNL     1       0.805   9.135  22.457  0.00  0.00    +0.000 A 
ENDBRANCH   4  13
BRANCH   8  19
ATOM     19  C   UNL     1       4.857   5.058  16.533  0.00  0.00    +0.000 A 
ATOM     20  C   UNL     1       5.361   5.789  15.472  0.00  0.00    +0.000 A 
ATOM     21  C   UNL     1       6.123   4.896  14.681  0.00  0.00    +0.000 A 
ATOM     22  C   UNL     1       6.029   3.672  15.298  0.00  0.00    +0.000 A 
ATOM     23  O   UNL     1       5.276   3.759  16.424  0.00  0.00    +0.000 OA
ENDBRANCH   8  19
TORSDOF 2
ENDMDL
