MODEL 1
REMARK VINA RESULT:      -7.7      0.000      0.000
REMARK  Name = 
REMARK  10 active torsions:
REMARK  status: ('A' for Active; 'I' for Inactive)
REMARK    1  A    between atoms: C_1  and  O_2
REMARK    2  A    between atoms: O_2  and  C_3
REMARK    3  A    between atoms: N_8  and  C_9
REMARK    4  A    between atoms: C_9  and  C_10
REMARK    5  A    between atoms: C_10  and  C_11
REMARK    6  A    between atoms: N_19  and  C_20
REMARK    7  A    between atoms: C_20  and  C_21
REMARK    8  A    between atoms: C_23  and  C_24
REMARK    9  A    between atoms: C_29  and  O_30
REMARK   10  A    between atoms: O_30  and  C_31
REMARK                            x       y       z     vdW  Elec       q    Type
REMARK                         _______ _______ _______ _____ _____    ______ ____
ROOT
ATOM      1  C   UNL     1       2.035   7.734  19.237  0.00  0.00    +0.000 A 
ATOM      2  C   UNL     1       2.527   6.504  19.715  0.00  0.00    +0.000 A 
ATOM      3  C   UNL     1       3.645   5.874  19.176  0.00  0.00    +0.000 A 
ATOM      4  N   UNL     1       4.084   4.736  19.717  0.00  0.00    +0.000 NA
ATOM      5  C   UNL     1       5.205   4.202  19.219  0.00  0.00    +0.000 A 
ATOM      6  N   UNL     1       5.715   3.032  19.746  0.00  0.00    +0.000 N 
ATOM      7  N   UNL     1       5.923   4.747  18.234  0.00  0.00    +0.000 NA
ATOM      8  C   UNL     1       5.456   5.857  17.641  0.00  0.00    +0.000 A 
ATOM      9  N   UNL     1       6.134   6.376  16.539  0.00  0.00    +0.000 N 
ATOM     10  C   UNL     1       4.283   6.483  18.097  0.00  0.00    +0.000 A 
ATOM     11  C   UNL     1       3.715   7.638  17.522  0.00  0.00    +0.000 A 
ATOM     12  C   UNL     1       2.599   8.278  18.078  0.00  0.00    +0.000 A 
ATOM     13  H   UNL     1       6.572   3.233  20.243  0.00  0.00    +0.000 HD
ATOM     14  H   UNL     1       6.444   7.328  16.686  0.00  0.00    +0.000 HD
ENDROOT
BRANCH   1  16
ATOM     15  C   UNL     1       1.059   8.347  21.305  0.00  0.00    +0.000 C 
ATOM     16  O   UNL     1       1.011   8.389  19.869  0.00  0.00    +0.000 OA
ENDBRANCH   1  16
BRANCH  12  17
ATOM     17  O   UNL     1       2.264   9.385  17.359  0.00  0.00    +0.000 OA
ATOM     18  C   UNL     1       2.248  10.666  17.967  0.00  0.00    +0.000 C 
ENDBRANCH  12  17
BRANCH   6  19
ATOM     19  C   UNL     1       4.780   2.122  20.383  0.00  0.00    +0.000 C 
BRANCH  19  20
ATOM     20  C   UNL     1       3.973   1.336  19.333  0.00  0.00    +0.000 C 
BRANCH  20  21
ATOM     21  C   UNL     1       2.804   2.112  18.770  0.00  0.00    +0.000 A 
ATOM     22  C   UNL     1       2.886   2.688  17.494  0.00  0.00    +0.000 A 
ATOM     23  C   UNL     1       1.858   3.495  17.011  0.00  0.00    +0.000 A 
ATOM     24  C   UNL     1       0.729   3.726  17.792  0.00  0.00    +0.000 A 
ATOM     25  C   UNL     1       0.621   3.136  19.051  0.00  0.00    +0.000 A 
ATOM     26  C   UNL     1       1.653   2.332  19.539  0.00  0.00    +0.000 A 
ENDBRANCH  20  21
ENDBRANCH  19  20
ENDBRANCH   6  19
BRANCH   9  27
ATOM     27  C   UNL     1       7.076   5.528  15.817  0.00  0.00    +0.000 C 
BRANCH  27  28
ATOM     28  C   UNL     1       6.639   4.840  14.571  0.00  0.00    +0.000 A 
ATOM     29  C   UNL     1       5.556   4.089  14.186  0.00  0.00    +0.000 A 
ATOM     30  C   UNL     1       5.757   3.847  12.808  0.00  0.00    +0.000 A 
ATOM     31  C   UNL     1       4.895   3.104  11.863  0.00  0.00    +0.000 C 
ATOM     32  N   UNL     1       6.895   4.405  12.382  0.00  0.00    +0.000 NA
ATOM     33  O   UNL     1       7.443   5.034  13.485  0.00  0.00    +0.000 OA
ENDBRANCH  27  28
ENDBRANCH   9  27
TORSDOF 7
ENDMDL
MODEL 2
REMARK VINA RESULT:      -7.6      1.398      2.059
REMARK  Name = 
REMARK  10 active torsions:
REMARK  status: ('A' for Active; 'I' for Inactive)
REMARK    1  A    between atoms: C_1  and  O_2
REMARK    2  A    between atoms: O_2  and  C_3
REMARK    3  A    between atoms: N_8  and  C_9
REMARK    4  A    between atoms: C_9  and  C_10
REMARK    5  A    between atoms: C_10  and  C_11
REMARK    6  A    between atoms: N_19  and  C_20
REMARK    7  A    between atoms: C_20  and  C_21
REMARK    8  A    between atoms: C_23  and  C_24
REMARK    9  A    between atoms: C_29  and  O_30
REMARK   10  A    between atoms: O_30  and  C_31
REMARK                            x       y       z     vdW  Elec       q    Type
REMARK                         _______ _______ _______ _____ _____    ______ ____
ROOT
ATOM      1  C   UNL     1       1.137   9.069  19.335  0.00  0.00    +0.000 A 
ATOM      2  C   UNL     1       1.154   7.872  20.078  0.00  0.00    +0.000 A 
ATOM      3  C   UNL     1       2.111   6.878  19.891  0.00  0.00    +0.000 A 
ATOM      4  N   UNL     1       2.094   5.794  20.670  0.00  0.00    +0.000 NA
ATOM      5  C   UNL     1       3.075   4.899  20.510  0.00  0.00    +0.000 A 
ATOM      6  N   UNL     1       3.117   3.764  21.296  0.00  0.00    +0.000 N 
ATOM      7  N   UNL     1       4.079   5.032  19.641  0.00  0.00    +0.000 NA
ATOM      8  C   UNL     1       4.070   6.086  18.810  0.00  0.00    +0.000 A 
ATOM      9  N   UNL     1       5.049   6.183  17.823  0.00  0.00    +0.000 N 
ATOM     10  C   UNL     1       3.075   7.074  18.905  0.00  0.00    +0.000 A 
ATOM     11  C   UNL     1       2.982   8.202  18.064  0.00  0.00    +0.000 A 
ATOM     12  C   UNL     1       2.027   9.207  18.264  0.00  0.00    +0.000 A 
ATOM     13  H   UNL     1       3.898   3.827  21.935  0.00  0.00    +0.000 HD
ATOM     14  H   UNL     1       5.598   7.030  17.900  0.00  0.00    +0.000 HD
ENDROOT
BRANCH   1  16
ATOM     15  C   UNL     1       0.601  10.861  20.786  0.00  0.00    +0.000 C 
ATOM     16  O   UNL     1       0.260  10.080  19.628  0.00  0.00    +0.000 OA
ENDBRANCH   1  16
BRANCH  12  17
ATOM     17  O   UNL     1       2.162  10.200  17.342  0.00  0.00    +0.000 OA
ATOM     18  C   UNL     1       2.549  11.506  17.735  0.00  0.00    +0.000 C 
ENDBRANCH  12  17
BRANCH   6  19
ATOM     19  C   UNL     1       1.860   3.273  21.832  0.00  0.00    +0.000 C 
BRANCH  19  20
ATOM     20  C   UNL     1       1.152   2.351  20.822  0.00  0.00    +0.000 C 
BRANCH  20  21
ATOM     21  C   UNL     1       1.661   2.508  19.407  0.00  0.00    +0.000 A 
ATOM     22  C   UNL     1       2.751   1.747  18.959  0.00  0.00    +0.000 A 
ATOM     23  C   UNL     1       3.296   1.961  17.694  0.00  0.00    +0.000 A 
ATOM     24  C   UNL     1       2.749   2.930  16.856  0.00  0.00    +0.000 A 
ATOM     25  C   UNL     1       1.647   3.673  17.277  0.00  0.00    +0.000 A 
ATOM     26  C   UNL     1       1.104   3.465  18.547  0.00  0.00    +0.000 A 
ENDBRANCH  20  21
ENDBRANCH  19  20
ENDBRANCH   6  19
BRANCH   9  27
ATOM     27  C   UNL     1       5.808   4.994  17.452  0.00  0.00    +0.000 C 
BRANCH  27  28
ATOM     28  C   UNL     1       6.257   4.818  16.043  0.00  0.00    +0.000 A 
ATOM     29  C   UNL     1       5.849   4.073  14.963  0.00  0.00    +0.000 A 
ATOM     30  C   UNL     1       6.685   4.491  13.903  0.00  0.00    +0.000 A 
ATOM     31  C   UNL     1       6.686   4.041  12.494  0.00  0.00    +0.000 C 
ATOM     32  N   UNL     1       7.553   5.423  14.311  0.00  0.00    +0.000 NA
ATOM     33  O   UNL     1       7.279   5.632  15.650  0.00  0.00    +0.000 OA
ENDBRANCH  27  28
ENDBRANCH   9  27
TORSDOF 7
ENDMDL
MODEL 3
REMARK VINA RESULT:      -7.5      5.258      8.794
REMARK  Name = 
REMARK  10 active torsions:
REMARK  status: ('A' for Active; 'I' for Inactive)
REMARK    1  A    between atoms: C_1  and  O_2
REMARK    2  A    between atoms: O_2  and  C_3
REMARK    3  A    between atoms: N_8  and  C_9
REMARK    4  A    between atoms: C_9  and  C_10
REMARK    5  A    between atoms: C_10  and  C_11
REMARK    6  A    between atoms: N_19  and  C_20
REMARK    7  A    between atoms: C_20  and  C_21
REMARK    8  A    between atoms: C_23  and  C_24
REMARK    9  A    between atoms: C_29  and  O_30
REMARK   10  A    between atoms: O_30  and  C_31
REMARK                            x       y       z     vdW  Elec       q    Type
REMARK                         _______ _______ _______ _____ _____    ______ ____
ROOT
ATOM      1  C   UNL     1      -3.377  10.450  16.120  0.00  0.00    +0.000 A 
ATOM      2  C   UNL     1      -2.128   9.842  16.354  0.00  0.00    +0.000 A 
ATOM      3  C   UNL     1      -1.390  10.051  17.516  0.00  0.00    +0.000 A 
ATOM      4  N   UNL     1      -0.239   9.398  17.691  0.00  0.00    +0.000 NA
ATOM      5  C   UNL     1       0.401   9.568  18.853  0.00  0.00    +0.000 A 
ATOM      6  N   UNL     1       1.590   8.908  19.096  0.00  0.00    +0.000 N 
ATOM      7  N   UNL     1      -0.048  10.328  19.854  0.00  0.00    +0.000 NA
ATOM      8  C   UNL     1      -1.171  11.038  19.664  0.00  0.00    +0.000 A 
ATOM      9  N   UNL     1      -1.593  11.921  20.656  0.00  0.00    +0.000 N 
ATOM     10  C   UNL     1      -1.906  10.923  18.472  0.00  0.00    +0.000 A 
ATOM     11  C   UNL     1      -3.084  11.644  18.184  0.00  0.00    +0.000 A 
ATOM     12  C   UNL     1      -3.832  11.419  17.021  0.00  0.00    +0.000 A 
ATOM     13  H   UNL     1       1.443   8.201  19.803  0.00  0.00    +0.000 HD
ATOM     14  H   UNL     1      -2.521  11.707  20.999  0.00  0.00    +0.000 HD
ENDROOT
BRANCH   1  16
ATOM     15  C   UNL     1      -3.415  10.071  13.783  0.00  0.00    +0.000 C 
ATOM     16  O   UNL     1      -4.135  10.127  15.026  0.00  0.00    +0.000 OA
ENDBRANCH   1  16
BRANCH  12  17
ATOM     17  O   UNL     1      -4.937  12.215  16.990  0.00  0.00    +0.000 OA
ATOM     18  C   UNL     1      -6.085  11.888  17.756  0.00  0.00    +0.000 C 
ENDBRANCH  12  17
BRANCH   6  19
ATOM     19  C   UNL     1       2.398   8.539  17.948  0.00  0.00    +0.000 C 
BRANCH  19  20
ATOM     20  C   UNL     1       3.275   7.313  18.262  0.00  0.00    +0.000 C 
BRANCH  20  21
ATOM     21  C   UNL     1       2.481   6.106  18.709  0.00  0.00    +0.000 A 
ATOM     22  C   UNL     1       2.200   5.908  20.069  0.00  0.00    +0.000 A 
ATOM     23  C   UNL     1       1.565   4.746  20.502  0.00  0.00    +0.000 A 
ATOM     24  C   UNL     1       1.190   3.772  19.579  0.00  0.00    +0.000 A 
ATOM     25  C   UNL     1       1.436   3.970  18.221  0.00  0.00    +0.000 A 
ATOM     26  C   UNL     1       2.079   5.131  17.786  0.00  0.00    +0.000 A 
ENDBRANCH  20  21
ENDBRANCH  19  20
ENDBRANCH   6  19
BRANCH   9  27
ATOM     27  C   UNL     1      -0.647  12.351  21.679  0.00  0.00    +0.000 C 
BRANCH  27  28
ATOM     28  C   UNL     1       0.444  13.298  21.318  0.00  0.00    +0.000 A 
ATOM     29  C   UNL     1       0.521  14.610  20.919  0.00  0.00    +0.000 A 
ATOM     30  C   UNL     1       1.905  14.886  20.854  0.00  0.00    +0.000 A 
ATOM     31  C   UNL     1       2.580  16.153  20.496  0.00  0.00    +0.000 C 
ATOM     32  N   UNL     1       2.628  13.809  21.182  0.00  0.00    +0.000 NA
ATOM     33  O   UNL     1       1.712  12.818  21.480  0.00  0.00    +0.000 OA
ENDBRANCH  27  28
ENDBRANCH   9  27
TORSDOF 7
ENDMDL
MODEL 4
REMARK VINA RESULT:      -7.5      2.596      5.707
REMARK  Name = 
REMARK  10 active torsions:
REMARK  status: ('A' for Active; 'I' for Inactive)
REMARK    1  A    between atoms: C_1  and  O_2
REMARK    2  A    between atoms: O_2  and  C_3
REMARK    3  A    between atoms: N_8  and  C_9
REMARK    4  A    between atoms: C_9  and  C_10
REMARK    5  A    between atoms: C_10  and  C_11
REMARK    6  A    between atoms: N_19  and  C_20
REMARK    7  A    between atoms: C_20  and  C_21
REMARK    8  A    between atoms: C_23  and  C_24
REMARK    9  A    between atoms: C_29  and  O_30
REMARK   10  A    between atoms: O_30  and  C_31
REMARK                            x       y       z     vdW  Elec       q    Type
REMARK                         _______ _______ _______ _____ _____    ______ ____
ROOT
ATOM      1  C   UNL     1       2.340   3.981  21.262  0.00  0.00    +0.000 A 
ATOM      2  C   UNL     1       2.028   5.284  20.827  0.00  0.00    +0.000 A 
ATOM      3  C   UNL     1       2.582   5.854  19.684  0.00  0.00    +0.000 A 
ATOM      4  N   UNL     1       2.198   7.075  19.306  0.00  0.00    +0.000 NA
ATOM      5  C   UNL     1       2.696   7.556  18.161  0.00  0.00    +0.000 A 
ATOM      6  N   UNL     1       2.326   8.808  17.712  0.00  0.00    +0.000 N 
ATOM      7  N   UNL     1       3.532   6.885  17.365  0.00  0.00    +0.000 NA
ATOM      8  C   UNL     1       3.973   5.684  17.769  0.00  0.00    +0.000 A 
ATOM      9  N   UNL     1       4.930   5.019  17.004  0.00  0.00    +0.000 N 
ATOM     10  C   UNL     1       3.505   5.103  18.960  0.00  0.00    +0.000 A 
ATOM     11  C   UNL     1       3.928   3.856  19.464  0.00  0.00    +0.000 A 
ATOM     12  C   UNL     1       3.357   3.279  20.606  0.00  0.00    +0.000 A 
ATOM     13  H   UNL     1       1.746   8.712  16.889  0.00  0.00    +0.000 HD
ATOM     14  H   UNL     1       4.614   4.111  16.688  0.00  0.00    +0.000 HD
ENDROOT
BRANCH   1  16
ATOM     15  C   UNL     1       0.997   2.179  22.008  0.00  0.00    +0.000 C 
ATOM     16  O   UNL     1       1.684   3.403  22.317  0.00  0.00    +0.000 OA
ENDBRANCH   1  16
BRANCH  12  17
ATOM     17  O   UNL     1       3.914   2.064  20.869  0.00  0.00    +0.000 OA
ATOM     18  C   UNL     1       5.106   1.658  20.219  0.00  0.00    +0.000 C 
ENDBRANCH  12  17
BRANCH   6  19
ATOM     19  C   UNL     1       1.906   9.780  18.707  0.00  0.00    +0.000 C 
BRANCH  19  20
ATOM     20  C   UNL     1       0.374   9.789  18.858  0.00  0.00    +0.000 C 
BRANCH  20  21
ATOM     21  C   UNL     1      -0.087  10.043  20.276  0.00  0.00    +0.000 A 
ATOM     22  C   UNL     1      -0.395  11.346  20.696  0.00  0.00    +0.000 A 
ATOM     23  C   UNL     1      -0.716  11.605  22.027  0.00  0.00    +0.000 A 
ATOM     24  C   UNL     1      -0.746  10.564  22.952  0.00  0.00    +0.000 A 
ATOM     25  C   UNL     1      -0.471   9.261  22.541  0.00  0.00    +0.000 A 
ATOM     26  C   UNL     1      -0.142   8.999  21.209  0.00  0.00    +0.000 A 
ENDBRANCH  20  21
ENDBRANCH  19  20
ENDBRANCH   6  19
BRANCH   9  27
ATOM     27  C   UNL     1       5.710   5.770  16.027  0.00  0.00    +0.000 C 
BRANCH  27  28
ATOM     28  C   UNL     1       6.207   5.087  14.801  0.00  0.00    +0.000 A 
ATOM     29  C   UNL     1       5.752   4.091  13.973  0.00  0.00    +0.000 A 
ATOM     30  C   UNL     1       6.704   4.027  12.930  0.00  0.00    +0.000 A 
ATOM     31  C   UNL     1       6.716   3.146  11.742  0.00  0.00    +0.000 C 
ATOM     32  N   UNL     1       7.683   4.919  13.115  0.00  0.00    +0.000 NA
ATOM     33  O   UNL     1       7.367   5.588  14.283  0.00  0.00    +0.000 OA
ENDBRANCH  27  28
ENDBRANCH   9  27
TORSDOF 7
ENDMDL
MODEL 5
REMARK VINA RESULT:      -7.4      5.875      9.884
REMARK  Name = 
REMARK  10 active torsions:
REMARK  status: ('A' for Active; 'I' for Inactive)
REMARK    1  A    between atoms: C_1  and  O_2
REMARK    2  A    between atoms: O_2  and  C_3
REMARK    3  A    between atoms: N_8  and  C_9
REMARK    4  A    between atoms: C_9  and  C_10
REMARK    5  A    between atoms: C_10  and  C_11
REMARK    6  A    between atoms: N_19  and  C_20
REMARK    7  A    between atoms: C_20  and  C_21
REMARK    8  A    between atoms: C_23  and  C_24
REMARK    9  A    between atoms: C_29  and  O_30
REMARK   10  A    between atoms: O_30  and  C_31
REMARK                            x       y       z     vdW  Elec       q    Type
REMARK                         _______ _______ _______ _____ _____    ______ ____
ROOT
ATOM      1  C   UNL     1      -3.449  10.475  16.026  0.00  0.00    +0.000 A 
ATOM      2  C   UNL     1      -2.201   9.880  16.295  0.00  0.00    +0.000 A 
ATOM      3  C   UNL     1      -1.500  10.095  17.479  0.00  0.00    +0.000 A 
ATOM      4  N   UNL     1      -0.348   9.455  17.686  0.00  0.00    +0.000 NA
ATOM      5  C   UNL     1       0.257   9.629  18.866  0.00  0.00    +0.000 A 
ATOM      6  N   UNL     1       1.445   8.982  19.143  0.00  0.00    +0.000 N 
ATOM      7  N   UNL     1      -0.230  10.381  19.856  0.00  0.00    +0.000 NA
ATOM      8  C   UNL     1      -1.355  11.079  19.634  0.00  0.00    +0.000 A 
ATOM      9  N   UNL     1      -1.817  11.954  20.615  0.00  0.00    +0.000 N 
ATOM     10  C   UNL     1      -2.054  10.959  18.421  0.00  0.00    +0.000 A 
ATOM     11  C   UNL     1      -3.231  11.667  18.100  0.00  0.00    +0.000 A 
ATOM     12  C   UNL     1      -3.942  11.437  16.915  0.00  0.00    +0.000 A 
ATOM     13  H   UNL     1       1.286   8.271  19.844  0.00  0.00    +0.000 HD
ATOM     14  H   UNL     1      -2.751  11.729  20.930  0.00  0.00    +0.000 HD
ENDROOT
BRANCH   1  16
ATOM     15  C   UNL     1      -3.400  10.017  13.703  0.00  0.00    +0.000 C 
ATOM     16  O   UNL     1      -4.172  10.146  14.909  0.00  0.00    +0.000 OA
ENDBRANCH   1  16
BRANCH  12  17
ATOM     17  O   UNL     1      -5.055  12.220  16.854  0.00  0.00    +0.000 OA
ATOM     18  C   UNL     1      -5.802  12.507  18.023  0.00  0.00    +0.000 C 
ENDBRANCH  12  17
BRANCH   6  19
ATOM     19  C   UNL     1       2.291   8.624  18.018  0.00  0.00    +0.000 C 
BRANCH  19  20
ATOM     20  C   UNL     1       3.207   7.438  18.371  0.00  0.00    +0.000 C 
BRANCH  20  21
ATOM     21  C   UNL     1       2.448   6.197  18.785  0.00  0.00    +0.000 A 
ATOM     22  C   UNL     1       2.137   5.976  20.135  0.00  0.00    +0.000 A 
ATOM     23  C   UNL     1       1.535   4.787  20.540  0.00  0.00    +0.000 A 
ATOM     24  C   UNL     1       1.226   3.808  19.599  0.00  0.00    +0.000 A 
ATOM     25  C   UNL     1       1.503   4.026  18.250  0.00  0.00    +0.000 A 
ATOM     26  C   UNL     1       2.112   5.215  17.843  0.00  0.00    +0.000 A 
ENDBRANCH  20  21
ENDBRANCH  19  20
ENDBRANCH   6  19
BRANCH   9  27
ATOM     27  C   UNL     1      -0.905  12.393  21.666  0.00  0.00    +0.000 C 
BRANCH  27  28
ATOM     28  C   UNL     1      -1.424  13.213  22.795  0.00  0.00    +0.000 A 
ATOM     29  C   UNL     1      -1.026  14.351  23.453  0.00  0.00    +0.000 A 
ATOM     30  C   UNL     1      -2.070  14.623  24.365  0.00  0.00    +0.000 A 
ATOM     31  C   UNL     1      -2.192  15.742  25.325  0.00  0.00    +0.000 C 
ATOM     32  N   UNL     1      -3.039  13.705  24.278  0.00  0.00    +0.000 NA
ATOM     33  O   UNL     1      -2.637  12.827  23.288  0.00  0.00    +0.000 OA
ENDBRANCH  27  28
ENDBRANCH   9  27
TORSDOF 7
ENDMDL
MODEL 6
REMARK VINA RESULT:      -7.4      5.793      9.165
REMARK  Name = 
REMARK  10 active torsions:
REMARK  status: ('A' for Active; 'I' for Inactive)
REMARK    1  A    between atoms: C_1  and  O_2
REMARK    2  A    between atoms: O_2  and  C_3
REMARK    3  A    between atoms: N_8  and  C_9
REMARK    4  A    between atoms: C_9  and  C_10
REMARK    5  A    between atoms: C_10  and  C_11
REMARK    6  A    between atoms: N_19  and  C_20
REMARK    7  A    between atoms: C_20  and  C_21
REMARK    8  A    between atoms: C_23  and  C_24
REMARK    9  A    between atoms: C_29  and  O_30
REMARK   10  A    between atoms: O_30  and  C_31
REMARK                            x       y       z     vdW  Elec       q    Type
REMARK                         _______ _______ _______ _____ _____    ______ ____
ROOT
ATOM      1  C   UNL     1      -3.717  11.381  17.122  0.00  0.00    +0.000 A 
ATOM      2  C   UNL     1      -3.252  11.958  18.320  0.00  0.00    +0.000 A 
ATOM      3  C   UNL     1      -2.037  11.612  18.904  0.00  0.00    +0.000 A 
ATOM      4  N   UNL     1      -1.637  12.239  20.012  0.00  0.00    +0.000 NA
ATOM      5  C   UNL     1      -0.430  11.932  20.499  0.00  0.00    +0.000 A 
ATOM      6  N   UNL     1       0.042  12.558  21.636  0.00  0.00    +0.000 N 
ATOM      7  N   UNL     1       0.407  11.058  19.937  0.00  0.00    +0.000 NA
ATOM      8  C   UNL     1      -0.011  10.376  18.859  0.00  0.00    +0.000 A 
ATOM      9  N   UNL     1       0.807   9.381  18.325  0.00  0.00    +0.000 N 
ATOM     10  C   UNL     1      -1.266  10.632  18.282  0.00  0.00    +0.000 A 
ATOM     11  C   UNL     1      -1.788   9.950  17.164  0.00  0.00    +0.000 A 
ATOM     12  C   UNL     1      -3.005  10.312  16.569  0.00  0.00    +0.000 A 
ATOM     13  H   UNL     1       0.803  13.177  21.388  0.00  0.00    +0.000 HD
ATOM     14  H   UNL     1       1.048   9.553  17.358  0.00  0.00    +0.000 HD
ENDROOT
BRANCH   1  16
ATOM     15  C   UNL     1      -5.925  12.194  17.397  0.00  0.00    +0.000 C 
ATOM     16  O   UNL     1      -4.855  11.833  16.506  0.00  0.00    +0.000 OA
ENDBRANCH   1  16
BRANCH  12  17
ATOM     17  O   UNL     1      -3.273   9.525  15.490  0.00  0.00    +0.000 OA
ATOM     18  C   UNL     1      -3.077  10.012  14.173  0.00  0.00    +0.000 C 
ENDBRANCH  12  17
BRANCH   6  19
ATOM     19  C   UNL     1      -0.939  13.063  22.580  0.00  0.00    +0.000 C 
BRANCH  19  20
ATOM     20  C   UNL     1      -1.808  11.920  23.136  0.00  0.00    +0.000 C 
BRANCH  20  21
ATOM     21  C   UNL     1      -3.276  12.274  23.229  0.00  0.00    +0.000 A 
ATOM     22  C   UNL     1      -3.966  12.732  22.096  0.00  0.00    +0.000 A 
ATOM     23  C   UNL     1      -5.287  13.163  22.196  0.00  0.00    +0.000 A 
ATOM     24  C   UNL     1      -5.940  13.129  23.426  0.00  0.00    +0.000 A 
ATOM     25  C   UNL     1      -5.275  12.648  24.553  0.00  0.00    +0.000 A 
ATOM     26  C   UNL     1      -3.949  12.222  24.457  0.00  0.00    +0.000 A 
ENDBRANCH  20  21
ENDBRANCH  19  20
ENDBRANCH   6  19
BRANCH   9  27
ATOM     27  C   UNL     1       1.886   8.832  19.138  0.00  0.00    +0.000 C 
BRANCH  27  28
ATOM     28  C   UNL     1       2.465   7.505  18.792  0.00  0.00    +0.000 A 
ATOM     29  C   UNL     1       3.269   7.009  17.795  0.00  0.00    +0.000 A 
ATOM     30  C   UNL     1       3.506   5.664  18.160  0.00  0.00    +0.000 A 
ATOM     31  C   UNL     1       4.324   4.647  17.463  0.00  0.00    +0.000 C 
ATOM     32  N   UNL     1       2.880   5.356  19.300  0.00  0.00    +0.000 NA
ATOM     33  O   UNL     1       2.235   6.512  19.700  0.00  0.00    +0.000 OA
ENDBRANCH  27  28
ENDBRANCH   9  27
TORSDOF 7
ENDMDL
MODEL 7
REMARK VINA RESULT:      -7.4      4.025      6.689
REMARK  Name = 
REMARK  10 active torsions:
REMARK  status: ('A' for Active; 'I' for Inactive)
REMARK    1  A    between atoms: C_1  and  O_2
REMARK    2  A    between atoms: O_2  and  C_3
REMARK    3  A    between atoms: N_8  and  C_9
REMARK    4  A    between atoms: C_9  and  C_10
REMARK    5  A    between atoms: C_10  and  C_11
REMARK    6  A    between atoms: N_19  and  C_20
REMARK    7  A    between atoms: C_20  and  C_21
REMARK    8  A    between atoms: C_23  and  C_24
REMARK    9  A    between atoms: C_29  and  O_30
REMARK   10  A    between atoms: O_30  and  C_31
REMARK                            x       y       z     vdW  Elec       q    Type
REMARK                         _______ _______ _______ _____ _____    ______ ____
ROOT
ATOM      1  C   UNL     1       3.589   4.506  19.650  0.00  0.00    +0.000 A 
ATOM      2  C   UNL     1       4.560   5.517  19.505  0.00  0.00    +0.000 A 
ATOM      3  C   UNL     1       5.213   5.773  18.303  0.00  0.00    +0.000 A 
ATOM      4  N   UNL     1       6.083   6.783  18.229  0.00  0.00    +0.000 NA
ATOM      5  C   UNL     1       6.632   7.045  17.037  0.00  0.00    +0.000 A 
ATOM      6  N   UNL     1       7.529   8.085  16.897  0.00  0.00    +0.000 N 
ATOM      7  N   UNL     1       6.348   6.377  15.917  0.00  0.00    +0.000 NA
ATOM      8  C   UNL     1       5.523   5.321  15.993  0.00  0.00    +0.000 A 
ATOM      9  N   UNL     1       5.302   4.547  14.856  0.00  0.00    +0.000 N 
ATOM     10  C   UNL     1       4.904   4.972  17.206  0.00  0.00    +0.000 A 
ATOM     11  C   UNL     1       4.041   3.871  17.377  0.00  0.00    +0.000 A 
ATOM     12  C   UNL     1       3.374   3.625  18.585  0.00  0.00    +0.000 A 
ATOM     13  H   UNL     1       7.104   8.824  16.354  0.00  0.00    +0.000 HD
ATOM     14  H   UNL     1       4.326   4.510  14.593  0.00  0.00    +0.000 HD
ENDROOT
BRANCH   1  16
ATOM     15  C   UNL     1       1.676   5.151  20.887  0.00  0.00    +0.000 C 
ATOM     16  O   UNL     1       2.875   4.362  20.810  0.00  0.00    +0.000 OA
ENDBRANCH   1  16
BRANCH  12  17
ATOM     17  O   UNL     1       2.577   2.524  18.487  0.00  0.00    +0.000 OA
ATOM     18  C   UNL     1       1.168   2.656  18.406  0.00  0.00    +0.000 C 
ENDBRANCH  12  17
BRANCH   6  19
ATOM     19  C   UNL     1       8.288   8.478  18.071  0.00  0.00    +0.000 C 
BRANCH  19  20
ATOM     20  C   UNL     1       8.052   9.961  18.409  0.00  0.00    +0.000 C 
BRANCH  20  21
ATOM     21  C   UNL     1       9.317  10.700  18.784  0.00  0.00    +0.000 A 
ATOM     22  C   UNL     1      10.257  11.039  17.799  0.00  0.00    +0.000 A 
ATOM     23  C   UNL     1      11.473  11.622  18.148  0.00  0.00    +0.000 A 
ATOM     24  C   UNL     1      11.761  11.884  19.485  0.00  0.00    +0.000 A 
ATOM     25  C   UNL     1      10.824  11.579  20.472  0.00  0.00    +0.000 A 
ATOM     26  C   UNL     1       9.607  10.989  20.124  0.00  0.00    +0.000 A 
ENDBRANCH  20  21
ENDBRANCH  19  20
ENDBRANCH   6  19
BRANCH   9  27
ATOM     27  C   UNL     1       6.234   4.640  13.738  0.00  0.00    +0.000 C 
BRANCH  27  28
ATOM     28  C   UNL     1       6.383   3.488  12.807  0.00  0.00    +0.000 A 
ATOM     29  C   UNL     1       5.662   2.355  12.515  0.00  0.00    +0.000 A 
ATOM     30  C   UNL     1       6.353   1.758  11.436  0.00  0.00    +0.000 A 
ATOM     31  C   UNL     1       6.020   0.521  10.696  0.00  0.00    +0.000 C 
ATOM     32  N   UNL     1       7.431   2.473  11.098  0.00  0.00    +0.000 NA
ATOM     33  O   UNL     1       7.445   3.560  11.952  0.00  0.00    +0.000 OA
ENDBRANCH  27  28
ENDBRANCH   9  27
TORSDOF 7
ENDMDL
MODEL 8
REMARK VINA RESULT:      -7.4      5.917      9.462
REMARK  Name = 
REMARK  10 active torsions:
REMARK  status: ('A' for Active; 'I' for Inactive)
REMARK    1  A    between atoms: C_1  and  O_2
REMARK    2  A    between atoms: O_2  and  C_3
REMARK    3  A    between atoms: N_8  and  C_9
REMARK    4  A    between atoms: C_9  and  C_10
REMARK    5  A    between atoms: C_10  and  C_11
REMARK    6  A    between atoms: N_19  and  C_20
REMARK    7  A    between atoms: C_20  and  C_21
REMARK    8  A    between atoms: C_23  and  C_24
REMARK    9  A    between atoms: C_29  and  O_30
REMARK   10  A    between atoms: O_30  and  C_31
REMARK                            x       y       z     vdW  Elec       q    Type
REMARK                         _______ _______ _______ _____ _____    ______ ____
ROOT
ATOM      1  C   UNL     1      -3.942  10.966  17.298  0.00  0.00    +0.000 A 
ATOM      2  C   UNL     1      -3.435  11.390  18.543  0.00  0.00    +0.000 A 
ATOM      3  C   UNL     1      -2.120  11.165  18.941  0.00  0.00    +0.000 A 
ATOM      4  N   UNL     1      -1.697  11.643  20.113  0.00  0.00    +0.000 NA
ATOM      5  C   UNL     1      -0.408  11.472  20.425  0.00  0.00    +0.000 A 
ATOM      6  N   UNL     1       0.091  11.956  21.618  0.00  0.00    +0.000 N 
ATOM      7  N   UNL     1       0.484  10.875  19.631  0.00  0.00    +0.000 NA
ATOM      8  C   UNL     1       0.055  10.335  18.480  0.00  0.00    +0.000 A 
ATOM      9  N   UNL     1       0.950   9.613  17.692  0.00  0.00    +0.000 N 
ATOM     10  C   UNL     1      -1.284  10.464  18.074  0.00  0.00    +0.000 A 
ATOM     11  C   UNL     1      -1.820   9.914  16.892  0.00  0.00    +0.000 A 
ATOM     12  C   UNL     1      -3.140  10.156  16.487  0.00  0.00    +0.000 A 
ATOM     13  H   UNL     1       0.710  12.733  21.433  0.00  0.00    +0.000 HD
ATOM     14  H   UNL     1       1.046   9.996  16.760  0.00  0.00    +0.000 HD
ENDROOT
BRANCH   1  16
ATOM     15  C   UNL     1      -6.196  11.338  17.922  0.00  0.00    +0.000 C 
ATOM     16  O   UNL     1      -5.201  11.312  16.884  0.00  0.00    +0.000 OA
ENDBRANCH   1  16
BRANCH  12  17
ATOM     17  O   UNL     1      -3.406   9.542  15.300  0.00  0.00    +0.000 OA
ATOM     18  C   UNL     1      -3.171  10.210  14.072  0.00  0.00    +0.000 C 
ENDBRANCH  12  17
BRANCH   6  19
ATOM     19  C   UNL     1      -0.840  12.100  22.723  0.00  0.00    +0.000 C 
BRANCH  19  20
ATOM     20  C   UNL     1      -1.150  13.584  22.993  0.00  0.00    +0.000 C 
BRANCH  20  21
ATOM     21  C   UNL     1      -2.608  13.845  23.302  0.00  0.00    +0.000 A 
ATOM     22  C   UNL     1      -3.578  12.876  23.004  0.00  0.00    +0.000 A 
ATOM     23  C   UNL     1      -4.933  13.149  23.183  0.00  0.00    +0.000 A 
ATOM     24  C   UNL     1      -5.334  14.389  23.674  0.00  0.00    +0.000 A 
ATOM     25  C   UNL     1      -4.378  15.350  24.001  0.00  0.00    +0.000 A 
ATOM     26  C   UNL     1      -3.021  15.081  23.816  0.00  0.00    +0.000 A 
ENDBRANCH  20  21
ENDBRANCH  19  20
ENDBRANCH   6  19
BRANCH   9  27
ATOM     27  C   UNL     1       2.191   9.126  18.285  0.00  0.00    +0.000 C 
BRANCH  27  28
ATOM     28  C   UNL     1       2.324   7.684  18.630  0.00  0.00    +0.000 A 
ATOM     29  C   UNL     1       2.752   6.550  17.984  0.00  0.00    +0.000 A 
ATOM     30  C   UNL     1       2.702   5.536  18.967  0.00  0.00    +0.000 A 
ATOM     31  C   UNL     1       3.070   4.108  18.843  0.00  0.00    +0.000 C 
ATOM     32  N   UNL     1       2.262   6.017  20.135  0.00  0.00    +0.000 NA
ATOM     33  O   UNL     1       2.033   7.364  19.925  0.00  0.00    +0.000 OA
ENDBRANCH  27  28
ENDBRANCH   9  27
TORSDOF 7
ENDMDL
MODEL 9
REMARK VINA RESULT:      -7.3      2.762      5.765
REMARK  Name = 
REMARK  10 active torsions:
REMARK  status: ('A' for Active; 'I' for Inactive)
REMARK    1  A    between atoms: C_1  and  O_2
REMARK    2  A    between atoms: O_2  and  C_3
REMARK    3  A    between atoms: N_8  and  C_9
REMARK    4  A    between atoms: C_9  and  C_10
REMARK    5  A    between atoms: C_10  and  C_11
REMARK    6  A    between atoms: N_19  and  C_20
REMARK    7  A    between atoms: C_20  and  C_21
REMARK    8  A    between atoms: C_23  and  C_24
REMARK    9  A    between atoms: C_29  and  O_30
REMARK   10  A    between atoms: O_30  and  C_31
REMARK                            x       y       z     vdW  Elec       q    Type
REMARK                         _______ _______ _______ _____ _____    ______ ____
ROOT
ATOM      1  C   UNL     1       3.126   3.156  21.194  0.00  0.00    +0.000 A 
ATOM      2  C   UNL     1       2.684   4.387  20.670  0.00  0.00    +0.000 A 
ATOM      3  C   UNL     1       3.288   5.006  19.580  0.00  0.00    +0.000 A 
ATOM      4  N   UNL     1       2.781   6.146  19.106  0.00  0.00    +0.000 NA
ATOM      5  C   UNL     1       3.343   6.670  18.011  0.00  0.00    +0.000 A 
ATOM      6  N   UNL     1       2.853   7.841  17.468  0.00  0.00    +0.000 N 
ATOM      7  N   UNL     1       4.362   6.114  17.352  0.00  0.00    +0.000 NA
ATOM      8  C   UNL     1       4.921   5.003  17.856  0.00  0.00    +0.000 A 
ATOM      9  N   UNL     1       6.054   4.473  17.242  0.00  0.00    +0.000 N 
ATOM     10  C   UNL     1       4.396   4.387  19.005  0.00  0.00    +0.000 A 
ATOM     11  C   UNL     1       4.931   3.231  19.609  0.00  0.00    +0.000 A 
ATOM     12  C   UNL     1       4.311   2.601  20.697  0.00  0.00    +0.000 A 
ATOM     13  H   UNL     1       2.402   7.639  16.585  0.00  0.00    +0.000 HD
ATOM     14  H   UNL     1       5.918   3.520  16.929  0.00  0.00    +0.000 HD
ENDROOT
BRANCH   1  16
ATOM     15  C   UNL     1       1.006   2.497  22.017  0.00  0.00    +0.000 C 
ATOM     16  O   UNL     1       2.434   2.511  22.185  0.00  0.00    +0.000 OA
ENDBRANCH   1  16
BRANCH  12  17
ATOM     17  O   UNL     1       5.002   1.491  21.077  0.00  0.00    +0.000 OA
ATOM     18  C   UNL     1       5.197   0.416  20.174  0.00  0.00    +0.000 C 
ENDBRANCH  12  17
BRANCH   6  19
ATOM     19  C   UNL     1       2.172   8.761  18.361  0.00  0.00    +0.000 C 
BRANCH  19  20
ATOM     20  C   UNL     1       0.863   9.274  17.734  0.00  0.00    +0.000 C 
BRANCH  20  21
ATOM     21  C   UNL     1       0.021  10.091  18.688  0.00  0.00    +0.000 A 
ATOM     22  C   UNL     1      -1.063  10.842  18.208  0.00  0.00    +0.000 A 
ATOM     23  C   UNL     1      -1.777  11.683  19.060  0.00  0.00    +0.000 A 
ATOM     24  C   UNL     1      -1.425  11.774  20.404  0.00  0.00    +0.000 A 
ATOM     25  C   UNL     1      -0.368  11.011  20.900  0.00  0.00    +0.000 A 
ATOM     26  C   UNL     1       0.353  10.173  20.047  0.00  0.00    +0.000 A 
ENDBRANCH  20  21
ENDBRANCH  19  20
ENDBRANCH   6  19
BRANCH   9  27
ATOM     27  C   UNL     1       6.833   5.310  16.337  0.00  0.00    +0.000 C 
BRANCH  27  28
ATOM     28  C   UNL     1       6.994   4.902  14.914  0.00  0.00    +0.000 A 
ATOM     29  C   UNL     1       6.394   3.998  14.073  0.00  0.00    +0.000 A 
ATOM     30  C   UNL     1       6.993   4.227  12.813  0.00  0.00    +0.000 A 
ATOM     31  C   UNL     1       6.721   3.554  11.524  0.00  0.00    +0.000 C 
ATOM     32  N   UNL     1       7.907   5.200  12.883  0.00  0.00    +0.000 NA
ATOM     33  O   UNL     1       7.902   5.628  14.198  0.00  0.00    +0.000 OA
ENDBRANCH  27  28
ENDBRANCH   9  27
TORSDOF 7
ENDMDL
