MODEL 1
REMARK VINA RESULT:      -6.7      0.000      0.000
REMARK  Name = 
REMARK  2 active torsions:
REMARK  status: ('A' for Active; 'I' for Inactive)
REMARK    1  A    between atoms: C_2  and  C_3
REMARK    2  A    between atoms: C_3  and  C_4
REMARK                            x       y       z     vdW  Elec       q    Type
REMARK                         _______ _______ _______ _____ _____    ______ ____
ROOT
ATOM      1  O   UNL     1       3.479   5.866  19.008  0.00  0.00    +0.000 OA
ATOM      2  C   UNL     1       3.374   6.915  18.365  0.00  0.00    +0.000 C 
ATOM      3  N   UNL     1       2.288   7.769  18.526  0.00  0.00    +0.000 N 
ATOM      4  C   UNL     1       1.268   7.417  19.522  0.00  0.00    +0.000 C 
ATOM      5  C   UNL     1       1.398   8.207  20.827  0.00  0.00    +0.000 C 
ATOM      6  C   UNL     1       1.400   9.727  20.668  0.00  0.00    +0.000 C 
ATOM      7  N   UNL     1       0.754  10.102  19.409  0.00  0.00    +0.000 N 
ATOM      8  C   UNL     1      -0.366  10.876  19.467  0.00  0.00    +0.000 A 
ATOM      9  N   UNL     1      -0.704  11.779  20.366  0.00  0.00    +0.000 NA
ATOM     10  N   UNL     1      -1.961  12.255  20.071  0.00  0.00    +0.000 NA
ATOM     11  C   UNL     1      -2.403  11.594  19.024  0.00  0.00    +0.000 A 
ATOM     12  C   UNL     1      -3.642  11.614  18.318  0.00  0.00    +0.000 A 
ATOM     13  C   UNL     1      -3.833  10.774  17.283  0.00  0.00    +0.000 A 
ATOM     14  C   UNL     1      -2.804   9.838  16.865  0.00  0.00    +0.000 A 
ATOM     15  C   UNL     1      -1.639   9.819  17.532  0.00  0.00    +0.000 A 
ATOM     16  N   UNL     1      -1.435  10.702  18.593  0.00  0.00    +0.000 N 
ATOM     17  C   UNL     1       1.671  10.233  18.269  0.00  0.00    +0.000 C 
ATOM     18  C   UNL     1       1.955   8.870  17.605  0.00  0.00    +0.000 C 
ENDROOT
BRANCH   2  19
ATOM     19  C   UNL     1       4.478   7.315  17.399  0.00  0.00    +0.000 C 
BRANCH  19  20
ATOM     20  C   UNL     1       5.360   6.156  17.031  0.00  0.00    +0.000 A 
ATOM     21  C   UNL     1       5.108   5.084  16.194  0.00  0.00    +0.000 A 
ATOM     22  C   UNL     1       6.190   4.155  16.154  0.00  0.00    +0.000 A 
ATOM     23  C   UNL     1       7.232   4.544  16.964  0.00  0.00    +0.000 A 
ATOM     24  S   UNL     1       6.910   6.022  17.757  0.00  0.00    +0.000 S 
ENDBRANCH  19  20
ENDBRANCH   2  19
TORSDOF 2
ENDMDL
MODEL 2
REMARK VINA RESULT:      -6.5      2.693      3.858
REMARK  Name = 
REMARK  2 active torsions:
REMARK  status: ('A' for Active; 'I' for Inactive)
REMARK    1  A    between atoms: C_2  and  C_3
REMARK    2  A    between atoms: C_3  and  C_4
REMARK                            x       y       z     vdW  Elec       q    Type
REMARK                         _______ _______ _______ _____ _____    ______ ____
ROOT
ATOM      1  O   UNL     1       2.761   2.311  17.038  0.00  0.00    +0.000 OA
ATOM      2  C   UNL     1       3.490   3.212  17.468  0.00  0.00    +0.000 C 
ATOM      3  N   UNL     1       2.969   4.368  18.039  0.00  0.00    +0.000 N 
ATOM      4  C   UNL     1       1.510   4.487  18.163  0.00  0.00    +0.000 C 
ATOM      5  C   UNL     1       0.997   4.200  19.576  0.00  0.00    +0.000 C 
ATOM      6  C   UNL     1       1.637   5.041  20.682  0.00  0.00    +0.000 C 
ATOM      7  N   UNL     1       2.187   6.275  20.120  0.00  0.00    +0.000 N 
ATOM      8  C   UNL     1       1.685   7.462  20.562  0.00  0.00    +0.000 A 
ATOM      9  N   UNL     1       1.178   7.760  21.741  0.00  0.00    +0.000 NA
ATOM     10  N   UNL     1       0.717   9.057  21.715  0.00  0.00    +0.000 NA
ATOM     11  C   UNL     1       0.899   9.521  20.498  0.00  0.00    +0.000 A 
ATOM     12  C   UNL     1       0.567  10.760  19.874  0.00  0.00    +0.000 A 
ATOM     13  C   UNL     1       0.841  10.944  18.569  0.00  0.00    +0.000 A 
ATOM     14  C   UNL     1       1.468   9.903  17.771  0.00  0.00    +0.000 A 
ATOM     15  C   UNL     1       1.778   8.738  18.360  0.00  0.00    +0.000 A 
ATOM     16  N   UNL     1       1.509   8.554  19.717  0.00  0.00    +0.000 N 
ATOM     17  C   UNL     1       3.597   6.185  19.718  0.00  0.00    +0.000 C 
ATOM     18  C   UNL     1       3.752   5.587  18.305  0.00  0.00    +0.000 C 
ENDROOT
BRANCH   2  19
ATOM     19  C   UNL     1       5.000   3.042  17.414  0.00  0.00    +0.000 C 
BRANCH  19  20
ATOM     20  C   UNL     1       5.609   3.740  16.232  0.00  0.00    +0.000 A 
ATOM     21  C   UNL     1       5.222   3.732  14.904  0.00  0.00    +0.000 A 
ATOM     22  C   UNL     1       6.106   4.481  14.073  0.00  0.00    +0.000 A 
ATOM     23  C   UNL     1       7.141   5.035  14.789  0.00  0.00    +0.000 A 
ATOM     24  S   UNL     1       7.042   4.660  16.452  0.00  0.00    +0.000 S 
ENDBRANCH  19  20
ENDBRANCH   2  19
TORSDOF 2
ENDMDL
MODEL 3
REMARK VINA RESULT:      -6.3      5.809      8.942
REMARK  Name = 
REMARK  2 active torsions:
REMARK  status: ('A' for Active; 'I' for Inactive)
REMARK    1  A    between atoms: C_2  and  C_3
REMARK    2  A    between atoms: C_3  and  C_4
REMARK                            x       y       z     vdW  Elec       q    Type
REMARK                         _______ _______ _______ _____ _____    ______ ____
ROOT
ATOM      1  O   UNL     1       3.105   6.611  19.384  0.00  0.00    +0.000 OA
ATOM      2  C   UNL     1       3.829   5.637  19.151  0.00  0.00    +0.000 C 
ATOM      3  N   UNL     1       4.511   5.499  17.946  0.00  0.00    +0.000 N 
ATOM      4  C   UNL     1       4.387   6.572  16.950  0.00  0.00    +0.000 C 
ATOM      5  C   UNL     1       5.598   7.506  16.913  0.00  0.00    +0.000 C 
ATOM      6  C   UNL     1       6.945   6.814  16.699  0.00  0.00    +0.000 C 
ATOM      7  N   UNL     1       6.746   5.515  16.054  0.00  0.00    +0.000 N 
ATOM      8  C   UNL     1       7.312   5.311  14.832  0.00  0.00    +0.000 A 
ATOM      9  N   UNL     1       8.414   5.833  14.331  0.00  0.00    +0.000 NA
ATOM     10  N   UNL     1       8.558   5.408  13.029  0.00  0.00    +0.000 NA
ATOM     11  C   UNL     1       7.510   4.673  12.730  0.00  0.00    +0.000 A 
ATOM     12  C   UNL     1       7.090   4.027  11.530  0.00  0.00    +0.000 A 
ATOM     13  C   UNL     1       5.919   3.364  11.504  0.00  0.00    +0.000 A 
ATOM     14  C   UNL     1       5.061   3.292  12.675  0.00  0.00    +0.000 A 
ATOM     15  C   UNL     1       5.457   3.902  13.803  0.00  0.00    +0.000 A 
ATOM     16  N   UNL     1       6.679   4.575  13.834  0.00  0.00    +0.000 N 
ATOM     17  C   UNL     1       6.598   4.389  16.986  0.00  0.00    +0.000 C 
ATOM     18  C   UNL     1       5.148   4.251  17.492  0.00  0.00    +0.000 C 
ENDROOT
BRANCH   2  19
ATOM     19  C   UNL     1       4.020   4.573  20.221  0.00  0.00    +0.000 C 
BRANCH  19  20
ATOM     20  C   UNL     1       2.764   3.790  20.476  0.00  0.00    +0.000 A 
ATOM     21  C   UNL     1       2.214   3.364  21.671  0.00  0.00    +0.000 A 
ATOM     22  C   UNL     1       1.033   2.587  21.483  0.00  0.00    +0.000 A 
ATOM     23  C   UNL     1       0.719   2.441  20.152  0.00  0.00    +0.000 A 
ATOM     24  S   UNL     1       1.836   3.242  19.138  0.00  0.00    +0.000 S 
ENDBRANCH  19  20
ENDBRANCH   2  19
TORSDOF 2
ENDMDL
MODEL 4
REMARK VINA RESULT:      -6.2      6.179      6.998
REMARK  Name = 
REMARK  2 active torsions:
REMARK  status: ('A' for Active; 'I' for Inactive)
REMARK    1  A    between atoms: C_2  and  C_3
REMARK    2  A    between atoms: C_3  and  C_4
REMARK                            x       y       z     vdW  Elec       q    Type
REMARK                         _______ _______ _______ _____ _____    ______ ____
ROOT
ATOM      1  O   UNL     1       1.621  12.605  21.394  0.00  0.00    +0.000 OA
ATOM      2  C   UNL     1       0.762  13.443  21.101  0.00  0.00    +0.000 C 
ATOM      3  N   UNL     1      -0.590  13.120  21.045  0.00  0.00    +0.000 N 
ATOM      4  C   UNL     1      -0.993  11.749  21.387  0.00  0.00    +0.000 C 
ATOM      5  C   UNL     1      -1.570  11.622  22.799  0.00  0.00    +0.000 C 
ATOM      6  C   UNL     1      -2.744  12.552  23.105  0.00  0.00    +0.000 C 
ATOM      7  N   UNL     1      -3.398  12.964  21.862  0.00  0.00    +0.000 N 
ATOM      8  C   UNL     1      -4.705  12.625  21.680  0.00  0.00    +0.000 A 
ATOM      9  N   UNL     1      -5.651  12.455  22.583  0.00  0.00    +0.000 NA
ATOM     10  N   UNL     1      -6.800  12.036  21.952  0.00  0.00    +0.000 NA
ATOM     11  C   UNL     1      -6.528  11.900  20.673  0.00  0.00    +0.000 A 
ATOM     12  C   UNL     1      -7.297  11.444  19.562  0.00  0.00    +0.000 A 
ATOM     13  C   UNL     1      -6.729  11.368  18.344  0.00  0.00    +0.000 A 
ATOM     14  C   UNL     1      -5.339  11.736  18.131  0.00  0.00    +0.000 A 
ATOM     15  C   UNL     1      -4.616  12.163  19.178  0.00  0.00    +0.000 A 
ATOM     16  N   UNL     1      -5.211  12.258  20.437  0.00  0.00    +0.000 N 
ATOM     17  C   UNL     1      -2.883  14.214  21.289  0.00  0.00    +0.000 C 
ATOM     18  C   UNL     1      -1.622  13.975  20.433  0.00  0.00    +0.000 C 
ENDROOT
BRANCH   2  19
ATOM     19  C   UNL     1       1.179  14.881  20.833  0.00  0.00    +0.000 C 
BRANCH  19  20
ATOM     20  C   UNL     1       2.265  14.975  19.800  0.00  0.00    +0.000 A 
ATOM     21  C   UNL     1       2.278  14.538  18.487  0.00  0.00    +0.000 A 
ATOM     22  C   UNL     1       3.532  14.764  17.848  0.00  0.00    +0.000 A 
ATOM     23  C   UNL     1       4.440  15.363  18.691  0.00  0.00    +0.000 A 
ATOM     24  S   UNL     1       3.779  15.657  20.239  0.00  0.00    +0.000 S 
ENDBRANCH  19  20
ENDBRANCH   2  19
TORSDOF 2
ENDMDL
MODEL 5
REMARK VINA RESULT:      -6.2      3.493      8.030
REMARK  Name = 
REMARK  2 active torsions:
REMARK  status: ('A' for Active; 'I' for Inactive)
REMARK    1  A    between atoms: C_2  and  C_3
REMARK    2  A    between atoms: C_3  and  C_4
REMARK                            x       y       z     vdW  Elec       q    Type
REMARK                         _______ _______ _______ _____ _____    ______ ____
ROOT
ATOM      1  O   UNL     1       0.707   8.785  21.840  0.00  0.00    +0.000 OA
ATOM      2  C   UNL     1       0.856   8.848  20.616  0.00  0.00    +0.000 C 
ATOM      3  N   UNL     1       1.708   7.985  19.934  0.00  0.00    +0.000 N 
ATOM      4  C   UNL     1       2.412   6.950  20.703  0.00  0.00    +0.000 C 
ATOM      5  C   UNL     1       1.776   5.564  20.574  0.00  0.00    +0.000 C 
ATOM      6  C   UNL     1       1.608   5.058  19.141  0.00  0.00    +0.000 C 
ATOM      7  N   UNL     1       2.551   5.740  18.253  0.00  0.00    +0.000 N 
ATOM      8  C   UNL     1       3.477   4.986  17.598  0.00  0.00    +0.000 A 
ATOM      9  N   UNL     1       3.391   3.735  17.192  0.00  0.00    +0.000 NA
ATOM     10  N   UNL     1       4.598   3.357  16.648  0.00  0.00    +0.000 NA
ATOM     11  C   UNL     1       5.429   4.368  16.779  0.00  0.00    +0.000 A 
ATOM     12  C   UNL     1       6.810   4.534  16.462  0.00  0.00    +0.000 A 
ATOM     13  C   UNL     1       7.426   5.694  16.756  0.00  0.00    +0.000 A 
ATOM     14  C   UNL     1       6.718   6.789  17.398  0.00  0.00    +0.000 A 
ATOM     15  C   UNL     1       5.419   6.629  17.698  0.00  0.00    +0.000 A 
ATOM     16  N   UNL     1       4.777   5.433  17.377  0.00  0.00    +0.000 N 
ATOM     17  C   UNL     1       2.020   6.954  17.620  0.00  0.00    +0.000 C 
ATOM     18  C   UNL     1       2.149   8.184  18.542  0.00  0.00    +0.000 C 
ENDROOT
BRANCH   2  19
ATOM     19  C   UNL     1       0.057   9.866  19.816  0.00  0.00    +0.000 C 
BRANCH  19  20
ATOM     20  C   UNL     1       0.636  11.248  19.917  0.00  0.00    +0.000 A 
ATOM     21  C   UNL     1       1.586  11.870  19.126  0.00  0.00    +0.000 A 
ATOM     22  C   UNL     1       1.913  13.177  19.591  0.00  0.00    +0.000 A 
ATOM     23  C   UNL     1       1.207  13.514  20.723  0.00  0.00    +0.000 A 
ATOM     24  S   UNL     1       0.151  12.264  21.214  0.00  0.00    +0.000 S 
ENDBRANCH  19  20
ENDBRANCH   2  19
TORSDOF 2
ENDMDL
MODEL 6
REMARK VINA RESULT:      -6.2      3.470      8.299
REMARK  Name = 
REMARK  2 active torsions:
REMARK  status: ('A' for Active; 'I' for Inactive)
REMARK    1  A    between atoms: C_2  and  C_3
REMARK    2  A    between atoms: C_3  and  C_4
REMARK                            x       y       z     vdW  Elec       q    Type
REMARK                         _______ _______ _______ _____ _____    ______ ____
ROOT
ATOM      1  O   UNL     1       0.764   8.589  22.017  0.00  0.00    +0.000 OA
ATOM      2  C   UNL     1       0.904   8.708  20.796  0.00  0.00    +0.000 C 
ATOM      3  N   UNL     1       1.742   7.870  20.068  0.00  0.00    +0.000 N 
ATOM      4  C   UNL     1       2.440   6.793  20.781  0.00  0.00    +0.000 C 
ATOM      5  C   UNL     1       1.788   5.420  20.593  0.00  0.00    +0.000 C 
ATOM      6  C   UNL     1       1.605   4.984  19.139  0.00  0.00    +0.000 C 
ATOM      7  N   UNL     1       2.548   5.698  18.276  0.00  0.00    +0.000 N 
ATOM      8  C   UNL     1       3.462   4.966  17.580  0.00  0.00    +0.000 A 
ATOM      9  N   UNL     1       3.359   3.736  17.116  0.00  0.00    +0.000 NA
ATOM     10  N   UNL     1       4.558   3.372  16.546  0.00  0.00    +0.000 NA
ATOM     11  C   UNL     1       5.401   4.366  16.718  0.00  0.00    +0.000 A 
ATOM     12  C   UNL     1       6.781   4.533  16.398  0.00  0.00    +0.000 A 
ATOM     13  C   UNL     1       7.412   5.671  16.742  0.00  0.00    +0.000 A 
ATOM     14  C   UNL     1       6.721   6.741  17.440  0.00  0.00    +0.000 A 
ATOM     15  C   UNL     1       5.423   6.582  17.742  0.00  0.00    +0.000 A 
ATOM     16  N   UNL     1       4.765   5.409  17.370  0.00  0.00    +0.000 N 
ATOM     17  C   UNL     1       2.026   6.946  17.705  0.00  0.00    +0.000 C 
ATOM     18  C   UNL     1       2.176   8.129  18.684  0.00  0.00    +0.000 C 
ENDROOT
BRANCH   2  19
ATOM     19  C   UNL     1       0.112   9.772  20.051  0.00  0.00    +0.000 C 
BRANCH  19  20
ATOM     20  C   UNL     1      -0.021  11.041  20.843  0.00  0.00    +0.000 A 
ATOM     21  C   UNL     1      -0.951  11.391  21.805  0.00  0.00    +0.000 A 
ATOM     22  C   UNL     1      -0.770  12.722  22.282  0.00  0.00    +0.000 A 
ATOM     23  C   UNL     1       0.289  13.350  21.668  0.00  0.00    +0.000 A 
ATOM     24  S   UNL     1       1.064  12.336  20.532  0.00  0.00    +0.000 S 
ENDBRANCH  19  20
ENDBRANCH   2  19
TORSDOF 2
ENDMDL
MODEL 7
REMARK VINA RESULT:      -6.1      2.040      3.137
REMARK  Name = 
REMARK  2 active torsions:
REMARK  status: ('A' for Active; 'I' for Inactive)
REMARK    1  A    between atoms: C_2  and  C_3
REMARK    2  A    between atoms: C_3  and  C_4
REMARK                            x       y       z     vdW  Elec       q    Type
REMARK                         _______ _______ _______ _____ _____    ______ ____
ROOT
ATOM      1  O   UNL     1       2.851   2.947  17.101  0.00  0.00    +0.000 OA
ATOM      2  C   UNL     1       3.371   4.067  17.152  0.00  0.00    +0.000 C 
ATOM      3  N   UNL     1       2.761   5.131  17.808  0.00  0.00    +0.000 N 
ATOM      4  C   UNL     1       1.481   4.888  18.487  0.00  0.00    +0.000 C 
ATOM      5  C   UNL     1       1.622   4.731  20.003  0.00  0.00    +0.000 C 
ATOM      6  C   UNL     1       2.322   5.890  20.713  0.00  0.00    +0.000 C 
ATOM      7  N   UNL     1       2.229   7.106  19.903  0.00  0.00    +0.000 N 
ATOM      8  C   UNL     1       1.579   8.181  20.431  0.00  0.00    +0.000 A 
ATOM      9  N   UNL     1       1.461   8.540  21.694  0.00  0.00    +0.000 NA
ATOM     10  N   UNL     1       0.647   9.648  21.769  0.00  0.00    +0.000 NA
ATOM     11  C   UNL     1       0.231   9.922  20.552  0.00  0.00    +0.000 A 
ATOM     12  C   UNL     1      -0.665  10.902  20.032  0.00  0.00    +0.000 A 
ATOM     13  C   UNL     1      -0.945  10.918  18.716  0.00  0.00    +0.000 A 
ATOM     14  C   UNL     1      -0.358   9.952  17.803  0.00  0.00    +0.000 A 
ATOM     15  C   UNL     1       0.484   9.028  18.295  0.00  0.00    +0.000 A 
ATOM     16  N   UNL     1       0.787   9.024  19.656  0.00  0.00    +0.000 N 
ATOM     17  C   UNL     1       3.357   7.315  18.986  0.00  0.00    +0.000 C 
ATOM     18  C   UNL     1       3.172   6.538  17.666  0.00  0.00    +0.000 C 
ENDROOT
BRANCH   2  19
ATOM     19  C   UNL     1       4.736   4.287  16.519  0.00  0.00    +0.000 C 
BRANCH  19  20
ATOM     20  C   UNL     1       5.735   4.834  17.499  0.00  0.00    +0.000 A 
ATOM     21  C   UNL     1       5.865   4.597  18.855  0.00  0.00    +0.000 A 
ATOM     22  C   UNL     1       6.915   5.361  19.445  0.00  0.00    +0.000 A 
ATOM     23  C   UNL     1       7.551   6.160  18.524  0.00  0.00    +0.000 A 
ATOM     24  S   UNL     1       6.893   5.982  16.958  0.00  0.00    +0.000 S 
ENDBRANCH  19  20
ENDBRANCH   2  19
TORSDOF 2
ENDMDL
MODEL 8
REMARK VINA RESULT:      -6.1      5.986      7.731
REMARK  Name = 
REMARK  2 active torsions:
REMARK  status: ('A' for Active; 'I' for Inactive)
REMARK    1  A    between atoms: C_2  and  C_3
REMARK    2  A    between atoms: C_3  and  C_4
REMARK                            x       y       z     vdW  Elec       q    Type
REMARK                         _______ _______ _______ _____ _____    ______ ____
ROOT
ATOM      1  O   UNL     1       7.109   8.901  16.762  0.00  0.00    +0.000 OA
ATOM      2  C   UNL     1       7.269   8.082  17.673  0.00  0.00    +0.000 C 
ATOM      3  N   UNL     1       6.367   7.047  17.897  0.00  0.00    +0.000 N 
ATOM      4  C   UNL     1       5.219   6.916  16.989  0.00  0.00    +0.000 C 
ATOM      5  C   UNL     1       5.400   5.815  15.941  0.00  0.00    +0.000 C 
ATOM      6  C   UNL     1       5.720   4.430  16.504  0.00  0.00    +0.000 C 
ATOM      7  N   UNL     1       5.265   4.333  17.892  0.00  0.00    +0.000 N 
ATOM      8  C   UNL     1       4.323   3.398  18.196  0.00  0.00    +0.000 A 
ATOM      9  N   UNL     1       4.101   2.229  17.629  0.00  0.00    +0.000 NA
ATOM     10  N   UNL     1       2.992   1.654  18.207  0.00  0.00    +0.000 NA
ATOM     11  C   UNL     1       2.513   2.506  19.086  0.00  0.00    +0.000 A 
ATOM     12  C   UNL     1       1.364   2.483  19.931  0.00  0.00    +0.000 A 
ATOM     13  C   UNL     1       1.093   3.542  20.716  0.00  0.00    +0.000 A 
ATOM     14  C   UNL     1       1.943   4.720  20.723  0.00  0.00    +0.000 A 
ATOM     15  C   UNL     1       3.023   4.741  19.926  0.00  0.00    +0.000 A 
ATOM     16  N   UNL     1       3.313   3.636  19.125  0.00  0.00    +0.000 N 
ATOM     17  C   UNL     1       6.279   4.698  18.891  0.00  0.00    +0.000 C 
ATOM     18  C   UNL     1       6.336   6.223  19.117  0.00  0.00    +0.000 C 
ENDROOT
BRANCH   2  19
ATOM     19  C   UNL     1       8.505   8.174  18.555  0.00  0.00    +0.000 C 
BRANCH  19  20
ATOM     20  C   UNL     1       8.979   9.589  18.724  0.00  0.00    +0.000 A 
ATOM     21  C   UNL     1       9.431  10.490  17.777  0.00  0.00    +0.000 A 
ATOM     22  C   UNL     1       9.850  11.725  18.353  0.00  0.00    +0.000 A 
ATOM     23  C   UNL     1       9.708  11.729  19.722  0.00  0.00    +0.000 A 
ATOM     24  S   UNL     1       9.066  10.258  20.304  0.00  0.00    +0.000 S 
ENDBRANCH  19  20
ENDBRANCH   2  19
TORSDOF 2
ENDMDL
MODEL 9
REMARK VINA RESULT:      -6.0      2.581      3.931
REMARK  Name = 
REMARK  2 active torsions:
REMARK  status: ('A' for Active; 'I' for Inactive)
REMARK    1  A    between atoms: C_2  and  C_3
REMARK    2  A    between atoms: C_3  and  C_4
REMARK                            x       y       z     vdW  Elec       q    Type
REMARK                         _______ _______ _______ _____ _____    ______ ____
ROOT
ATOM      1  O   UNL     1       2.526   7.656  17.812  0.00  0.00    +0.000 OA
ATOM      2  C   UNL     1       2.099   7.853  18.954  0.00  0.00    +0.000 C 
ATOM      3  N   UNL     1       1.417   9.017  19.293  0.00  0.00    +0.000 N 
ATOM      4  C   UNL     1       1.172  10.011  18.241  0.00  0.00    +0.000 C 
ATOM      5  C   UNL     1      -0.256   9.973  17.692  0.00  0.00    +0.000 C 
ATOM      6  C   UNL     1      -1.358  10.113  18.743  0.00  0.00    +0.000 C 
ATOM      7  N   UNL     1      -0.833  10.777  19.937  0.00  0.00    +0.000 N 
ATOM      8  C   UNL     1      -1.386  11.965  20.307  0.00  0.00    +0.000 A 
ATOM      9  N   UNL     1      -2.618  12.399  20.128  0.00  0.00    +0.000 NA
ATOM     10  N   UNL     1      -2.709  13.692  20.589  0.00  0.00    +0.000 NA
ATOM     11  C   UNL     1      -1.513  14.056  20.997  0.00  0.00    +0.000 A 
ATOM     12  C   UNL     1      -0.995  15.283  21.508  0.00  0.00    +0.000 A 
ATOM     13  C   UNL     1       0.313  15.380  21.809  0.00  0.00    +0.000 A 
ATOM     14  C   UNL     1       1.221  14.262  21.621  0.00  0.00    +0.000 A 
ATOM     15  C   UNL     1       0.732  13.109  21.137  0.00  0.00    +0.000 A 
ATOM     16  N   UNL     1      -0.627  13.003  20.842  0.00  0.00    +0.000 N 
ATOM     17  C   UNL     1      -0.317   9.862  20.964  0.00  0.00    +0.000 C 
ATOM     18  C   UNL     1       1.139   9.442  20.676  0.00  0.00    +0.000 C 
ENDROOT
BRANCH   2  19
ATOM     19  C   UNL     1       2.282   6.780  20.017  0.00  0.00    +0.000 C 
BRANCH  19  20
ATOM     20  C   UNL     1       2.635   5.446  19.423  0.00  0.00    +0.000 A 
ATOM     21  C   UNL     1       1.809   4.435  18.964  0.00  0.00    +0.000 A 
ATOM     22  C   UNL     1       2.539   3.291  18.527  0.00  0.00    +0.000 A 
ATOM     23  C   UNL     1       3.896   3.460  18.667  0.00  0.00    +0.000 A 
ATOM     24  S   UNL     1       4.288   4.991  19.314  0.00  0.00    +0.000 S 
ENDBRANCH  19  20
ENDBRANCH   2  19
TORSDOF 2
ENDMDL
