MODEL 1
REMARK VINA RESULT:      -7.1      0.000      0.000
REMARK  Name = 
REMARK  12 active torsions:
REMARK  status: ('A' for Active; 'I' for Inactive)
REMARK    1  A    between atoms: C_1  and  C_2
REMARK    2  A    between atoms: C_2  and  C_3
REMARK    3  A    between atoms: C_6  and  C_7
REMARK    4  A    between atoms: C_7  and  N_8
REMARK    5  A    between atoms: N_8  and  C_9
REMARK    6  A    between atoms: C_9  and  C_10
REMARK    7  A    between atoms: C_14  and  C_15
REMARK    8  A    between atoms: C_15  and  N_16
REMARK    9  A    between atoms: N_16  and  C_17
REMARK   10  A    between atoms: C_17  and  C_18
REMARK   11  A    between atoms: C_21  and  C_22
REMARK   12  A    between atoms: C_22  and  C_23
REMARK                            x       y       z     vdW  Elec       q    Type
REMARK                         _______ _______ _______ _____ _____    ______ ____
ROOT
ATOM      1  C   UNL     1       1.394   4.102  18.762  0.00  0.00    +0.000 C 
ATOM      2  C   UNL     1       0.969   4.454  20.197  0.00  0.00    +0.000 C 
ATOM      3  C   UNL     1       2.038   5.243  20.943  0.00  0.00    +0.000 C 
ATOM      4  C   UNL     1       2.346   6.548  20.227  0.00  0.00    +0.000 C 
ATOM      5  C   UNL     1       2.780   6.336  18.766  0.00  0.00    +0.000 C 
ATOM      6  C   UNL     1       1.808   5.396  18.014  0.00  0.00    +0.000 C 
ENDROOT
BRANCH   1   7
ATOM      7  C   UNL     1       2.445   2.956  18.695  0.00  0.00    +0.000 C 
BRANCH   7   8
ATOM      8  N   UNL     1       3.004   2.843  17.333  0.00  0.00    +0.000 NA
ATOM      9  H   UNL     1       2.596   2.045  16.850  0.00  0.00    +0.000 HD
BRANCH   8  10
ATOM     10  C   UNL     1       4.458   2.672  17.304  0.00  0.00    +0.000 C 
BRANCH  10  14
ATOM     11  C   UNL     1       6.487   6.532  17.314  0.00  0.00    +0.000 A 
ATOM     12  C   UNL     1       6.590   5.659  18.404  0.00  0.00    +0.000 A 
ATOM     13  C   UNL     1       5.939   4.421  18.396  0.00  0.00    +0.000 A 
ATOM     14  C   UNL     1       5.165   4.019  17.299  0.00  0.00    +0.000 A 
ATOM     15  C   UNL     1       5.069   4.889  16.203  0.00  0.00    +0.000 A 
ATOM     16  C   UNL     1       5.726   6.128  16.210  0.00  0.00    +0.000 A 
BRANCH  11  18
ATOM     17  C   UNL     1       8.273   7.969  18.377  0.00  0.00    +0.000 C 
ATOM     18  C   UNL     1       7.177   7.874  17.325  0.00  0.00    +0.000 C 
ENDBRANCH  11  18
ENDBRANCH  10  14
ENDBRANCH   8  10
ENDBRANCH   7   8
ENDBRANCH   1   7
BRANCH   5  19
ATOM     19  C   UNL     1       2.881   7.708  18.045  0.00  0.00    +0.000 C 
BRANCH  19  20
ATOM     20  N   UNL     1       1.558   8.311  17.863  0.00  0.00    +0.000 NA
ATOM     21  H   UNL     1       0.851   7.750  18.334  0.00  0.00    +0.000 HD
BRANCH  20  22
ATOM     22  C   UNL     1       1.497   9.681  18.374  0.00  0.00    +0.000 C 
BRANCH  22  23
ATOM     23  C   UNL     1       0.075  10.202  18.404  0.00  0.00    +0.000 A 
ATOM     24  C   UNL     1      -0.878   9.738  17.489  0.00  0.00    +0.000 A 
ATOM     25  C   UNL     1      -2.195  10.205  17.528  0.00  0.00    +0.000 A 
ATOM     26  C   UNL     1      -2.589  11.156  18.481  0.00  0.00    +0.000 A 
ATOM     27  C   UNL     1      -1.643  11.610  19.408  0.00  0.00    +0.000 A 
ATOM     28  C   UNL     1      -0.325  11.139  19.367  0.00  0.00    +0.000 A 
BRANCH  26  29
ATOM     29  C   UNL     1      -4.008  11.670  18.504  0.00  0.00    +0.000 C 
ATOM     30  C   UNL     1      -4.809  11.234  17.286  0.00  0.00    +0.000 C 
ENDBRANCH  26  29
ENDBRANCH  22  23
ENDBRANCH  20  22
ENDBRANCH  19  20
ENDBRANCH   5  19
TORSDOF 10
ENDMDL
MODEL 2
REMARK VINA RESULT:      -7.1      2.054      7.997
REMARK  Name = 
REMARK  12 active torsions:
REMARK  status: ('A' for Active; 'I' for Inactive)
REMARK    1  A    between atoms: C_1  and  C_2
REMARK    2  A    between atoms: C_2  and  C_3
REMARK    3  A    between atoms: C_6  and  C_7
REMARK    4  A    between atoms: C_7  and  N_8
REMARK    5  A    between atoms: N_8  and  C_9
REMARK    6  A    between atoms: C_9  and  C_10
REMARK    7  A    between atoms: C_14  and  C_15
REMARK    8  A    between atoms: C_15  and  N_16
REMARK    9  A    between atoms: N_16  and  C_17
REMARK   10  A    between atoms: C_17  and  C_18
REMARK   11  A    between atoms: C_21  and  C_22
REMARK   12  A    between atoms: C_22  and  C_23
REMARK                            x       y       z     vdW  Elec       q    Type
REMARK                         _______ _______ _______ _____ _____    ______ ____
ROOT
ATOM      1  C   UNL     1       1.355   4.014  20.794  0.00  0.00    +0.000 C 
ATOM      2  C   UNL     1       0.588   2.980  19.952  0.00  0.00    +0.000 C 
ATOM      3  C   UNL     1       1.096   2.909  18.517  0.00  0.00    +0.000 C 
ATOM      4  C   UNL     1       2.566   2.524  18.481  0.00  0.00    +0.000 C 
ATOM      5  C   UNL     1       3.450   3.481  19.299  0.00  0.00    +0.000 C 
ATOM      6  C   UNL     1       2.875   3.718  20.716  0.00  0.00    +0.000 C 
ENDROOT
BRANCH   1   7
ATOM      7  C   UNL     1       0.968   5.485  20.467  0.00  0.00    +0.000 C 
BRANCH   7   8
ATOM      8  N   UNL     1       2.096   6.394  20.749  0.00  0.00    +0.000 NA
ATOM      9  H   UNL     1       1.864   7.013  21.524  0.00  0.00    +0.000 HD
BRANCH   8  10
ATOM     10  C   UNL     1       2.473   7.240  19.615  0.00  0.00    +0.000 C 
BRANCH  10  14
ATOM     11  C   UNL     1      -0.192  10.672  19.252  0.00  0.00    +0.000 A 
ATOM     12  C   UNL     1       0.413  10.106  18.123  0.00  0.00    +0.000 A 
ATOM     13  C   UNL     1       1.266   9.004  18.244  0.00  0.00    +0.000 A 
ATOM     14  C   UNL     1       1.540   8.437  19.496  0.00  0.00    +0.000 A 
ATOM     15  C   UNL     1       0.926   8.997  20.625  0.00  0.00    +0.000 A 
ATOM     16  C   UNL     1       0.068  10.100  20.503  0.00  0.00    +0.000 A 
BRANCH  11  18
ATOM     17  C   UNL     1      -0.448  13.040  18.404  0.00  0.00    +0.000 C 
ATOM     18  C   UNL     1      -1.102  11.871  19.126  0.00  0.00    +0.000 C 
ENDBRANCH  11  18
ENDBRANCH  10  14
ENDBRANCH   8  10
ENDBRANCH   7   8
ENDBRANCH   1   7
BRANCH   5  19
ATOM     19  C   UNL     1       4.896   2.916  19.382  0.00  0.00    +0.000 C 
BRANCH  19  20
ATOM     20  N   UNL     1       5.889   3.964  19.135  0.00  0.00    +0.000 NA
ATOM     21  H   UNL     1       6.718   3.565  18.699  0.00  0.00    +0.000 HD
BRANCH  20  22
ATOM     22  C   UNL     1       5.369   5.031  18.279  0.00  0.00    +0.000 C 
BRANCH  22  23
ATOM     23  C   UNL     1       5.717   4.797  16.823  0.00  0.00    +0.000 A 
ATOM     24  C   UNL     1       7.010   5.048  16.346  0.00  0.00    +0.000 A 
ATOM     25  C   UNL     1       7.336   4.815  15.007  0.00  0.00    +0.000 A 
ATOM     26  C   UNL     1       6.373   4.332  14.109  0.00  0.00    +0.000 A 
ATOM     27  C   UNL     1       5.084   4.066  14.586  0.00  0.00    +0.000 A 
ATOM     28  C   UNL     1       4.760   4.298  15.929  0.00  0.00    +0.000 A 
BRANCH  26  29
ATOM     29  C   UNL     1       6.727   4.102  12.660  0.00  0.00    +0.000 C 
ATOM     30  C   UNL     1       5.885   3.010  12.017  0.00  0.00    +0.000 C 
ENDBRANCH  26  29
ENDBRANCH  22  23
ENDBRANCH  20  22
ENDBRANCH  19  20
ENDBRANCH   5  19
TORSDOF 10
ENDMDL
MODEL 3
REMARK VINA RESULT:      -7.0      1.105      1.505
REMARK  Name = 
REMARK  12 active torsions:
REMARK  status: ('A' for Active; 'I' for Inactive)
REMARK    1  A    between atoms: C_1  and  C_2
REMARK    2  A    between atoms: C_2  and  C_3
REMARK    3  A    between atoms: C_6  and  C_7
REMARK    4  A    between atoms: C_7  and  N_8
REMARK    5  A    between atoms: N_8  and  C_9
REMARK    6  A    between atoms: C_9  and  C_10
REMARK    7  A    between atoms: C_14  and  C_15
REMARK    8  A    between atoms: C_15  and  N_16
REMARK    9  A    between atoms: N_16  and  C_17
REMARK   10  A    between atoms: C_17  and  C_18
REMARK   11  A    between atoms: C_21  and  C_22
REMARK   12  A    between atoms: C_22  and  C_23
REMARK                            x       y       z     vdW  Elec       q    Type
REMARK                         _______ _______ _______ _____ _____    ______ ____
ROOT
ATOM      1  C   UNL     1       2.776   4.553  18.467  0.00  0.00    +0.000 C 
ATOM      2  C   UNL     1       1.713   4.124  19.491  0.00  0.00    +0.000 C 
ATOM      3  C   UNL     1       1.756   4.965  20.761  0.00  0.00    +0.000 C 
ATOM      4  C   UNL     1       1.517   6.433  20.447  0.00  0.00    +0.000 C 
ATOM      5  C   UNL     1       2.517   6.990  19.419  0.00  0.00    +0.000 C 
ATOM      6  C   UNL     1       2.633   6.070  18.180  0.00  0.00    +0.000 C 
ENDROOT
BRANCH   1   7
ATOM      7  C   UNL     1       4.217   4.104  18.848  0.00  0.00    +0.000 C 
BRANCH   7   8
ATOM      8  N   UNL     1       4.817   3.307  17.762  0.00  0.00    +0.000 NA
ATOM      9  H   UNL     1       5.573   2.729  18.125  0.00  0.00    +0.000 HD
BRANCH   8  10
ATOM     10  C   UNL     1       5.373   4.114  16.673  0.00  0.00    +0.000 C 
BRANCH  10  14
ATOM     11  C   UNL     1       7.861   7.327  18.253  0.00  0.00    +0.000 A 
ATOM     12  C   UNL     1       7.940   6.030  18.775  0.00  0.00    +0.000 A 
ATOM     13  C   UNL     1       7.142   5.002  18.264  0.00  0.00    +0.000 A 
ATOM     14  C   UNL     1       6.239   5.240  17.218  0.00  0.00    +0.000 A 
ATOM     15  C   UNL     1       6.167   6.536  16.689  0.00  0.00    +0.000 A 
ATOM     16  C   UNL     1       6.971   7.566  17.198  0.00  0.00    +0.000 A 
BRANCH  11  18
ATOM     17  C   UNL     1       8.536   9.755  18.062  0.00  0.00    +0.000 C 
ATOM     18  C   UNL     1       8.712   8.443  18.812  0.00  0.00    +0.000 C 
ENDBRANCH  11  18
ENDBRANCH  10  14
ENDBRANCH   8  10
ENDBRANCH   7   8
ENDBRANCH   1   7
BRANCH   5  19
ATOM     19  C   UNL     1       2.092   8.424  18.998  0.00  0.00    +0.000 C 
BRANCH  19  20
ATOM     20  N   UNL     1       1.061   8.956  19.893  0.00  0.00    +0.000 NA
ATOM     21  H   UNL     1       1.345   8.835  20.864  0.00  0.00    +0.000 HD
BRANCH  20  22
ATOM     22  C   UNL     1       0.792  10.373  19.650  0.00  0.00    +0.000 C 
BRANCH  22  23
ATOM     23  C   UNL     1      -0.518  10.574  18.915  0.00  0.00    +0.000 A 
ATOM     24  C   UNL     1      -0.785   9.886  17.724  0.00  0.00    +0.000 A 
ATOM     25  C   UNL     1      -2.001  10.057  17.056  0.00  0.00    +0.000 A 
ATOM     26  C   UNL     1      -2.978  10.928  17.559  0.00  0.00    +0.000 A 
ATOM     27  C   UNL     1      -2.721  11.606  18.757  0.00  0.00    +0.000 A 
ATOM     28  C   UNL     1      -1.503  11.431  19.426  0.00  0.00    +0.000 A 
BRANCH  26  29
ATOM     29  C   UNL     1      -4.280  11.123  16.821  0.00  0.00    +0.000 C 
ATOM     30  C   UNL     1      -5.386  11.662  17.717  0.00  0.00    +0.000 C 
ENDBRANCH  26  29
ENDBRANCH  22  23
ENDBRANCH  20  22
ENDBRANCH  19  20
ENDBRANCH   5  19
TORSDOF 10
ENDMDL
MODEL 4
REMARK VINA RESULT:      -6.9      2.185      8.292
REMARK  Name = 
REMARK  12 active torsions:
REMARK  status: ('A' for Active; 'I' for Inactive)
REMARK    1  A    between atoms: C_1  and  C_2
REMARK    2  A    between atoms: C_2  and  C_3
REMARK    3  A    between atoms: C_6  and  C_7
REMARK    4  A    between atoms: C_7  and  N_8
REMARK    5  A    between atoms: N_8  and  C_9
REMARK    6  A    between atoms: C_9  and  C_10
REMARK    7  A    between atoms: C_14  and  C_15
REMARK    8  A    between atoms: C_15  and  N_16
REMARK    9  A    between atoms: N_16  and  C_17
REMARK   10  A    between atoms: C_17  and  C_18
REMARK   11  A    between atoms: C_21  and  C_22
REMARK   12  A    between atoms: C_22  and  C_23
REMARK                            x       y       z     vdW  Elec       q    Type
REMARK                         _______ _______ _______ _____ _____    ______ ____
ROOT
ATOM      1  C   UNL     1       2.893   4.830  20.600  0.00  0.00    +0.000 C 
ATOM      2  C   UNL     1       1.497   4.316  20.989  0.00  0.00    +0.000 C 
ATOM      3  C   UNL     1       0.636   3.996  19.774  0.00  0.00    +0.000 C 
ATOM      4  C   UNL     1       1.289   2.927  18.913  0.00  0.00    +0.000 C 
ATOM      5  C   UNL     1       2.707   3.315  18.459  0.00  0.00    +0.000 C 
ATOM      6  C   UNL     1       3.569   3.812  19.644  0.00  0.00    +0.000 C 
ENDROOT
BRANCH   1   7
ATOM      7  C   UNL     1       2.888   6.296  20.079  0.00  0.00    +0.000 C 
BRANCH   7   8
ATOM      8  N   UNL     1       1.819   7.076  20.733  0.00  0.00    +0.000 NA
ATOM      9  H   UNL     1       0.957   6.536  20.762  0.00  0.00    +0.000 HD
BRANCH   8  10
ATOM     10  C   UNL     1       1.516   8.342  20.063  0.00  0.00    +0.000 C 
BRANCH  10  14
ATOM     11  C   UNL     1      -0.993  10.891  22.557  0.00  0.00    +0.000 A 
ATOM     12  C   UNL     1      -0.827  11.155  21.191  0.00  0.00    +0.000 A 
ATOM     13  C   UNL     1      -0.023  10.334  20.395  0.00  0.00    +0.000 A 
ATOM     14  C   UNL     1       0.641   9.226  20.939  0.00  0.00    +0.000 A 
ATOM     15  C   UNL     1       0.467   8.955  22.303  0.00  0.00    +0.000 A 
ATOM     16  C   UNL     1      -0.343   9.777  23.102  0.00  0.00    +0.000 A 
BRANCH  11  18
ATOM     17  C   UNL     1      -2.103  13.149  22.799  0.00  0.00    +0.000 C 
ATOM     18  C   UNL     1      -1.849  11.784  23.422  0.00  0.00    +0.000 C 
ENDBRANCH  11  18
ENDBRANCH  10  14
ENDBRANCH   8  10
ENDBRANCH   7   8
ENDBRANCH   1   7
BRANCH   5  19
ATOM     19  C   UNL     1       3.384   2.103  17.761  0.00  0.00    +0.000 C 
BRANCH  19  20
ATOM     20  N   UNL     1       4.650   2.492  17.133  0.00  0.00    +0.000 NA
ATOM     21  H   UNL     1       4.965   1.761  16.499  0.00  0.00    +0.000 HD
BRANCH  20  22
ATOM     22  C   UNL     1       4.538   3.749  16.391  0.00  0.00    +0.000 C 
BRANCH  22  23
ATOM     23  C   UNL     1       5.522   4.784  16.896  0.00  0.00    +0.000 A 
ATOM     24  C   UNL     1       5.289   6.151  16.697  0.00  0.00    +0.000 A 
ATOM     25  C   UNL     1       6.187   7.108  17.179  0.00  0.00    +0.000 A 
ATOM     26  C   UNL     1       7.347   6.719  17.865  0.00  0.00    +0.000 A 
ATOM     27  C   UNL     1       7.575   5.355  18.079  0.00  0.00    +0.000 A 
ATOM     28  C   UNL     1       6.672   4.398  17.597  0.00  0.00    +0.000 A 
BRANCH  26  29
ATOM     29  C   UNL     1       8.322   7.757  18.364  0.00  0.00    +0.000 C 
ATOM     30  C   UNL     1       8.024   9.149  17.824  0.00  0.00    +0.000 C 
ENDBRANCH  26  29
ENDBRANCH  22  23
ENDBRANCH  20  22
ENDBRANCH  19  20
ENDBRANCH   5  19
TORSDOF 10
ENDMDL
MODEL 5
REMARK VINA RESULT:      -6.9      1.683      2.448
REMARK  Name = 
REMARK  12 active torsions:
REMARK  status: ('A' for Active; 'I' for Inactive)
REMARK    1  A    between atoms: C_1  and  C_2
REMARK    2  A    between atoms: C_2  and  C_3
REMARK    3  A    between atoms: C_6  and  C_7
REMARK    4  A    between atoms: C_7  and  N_8
REMARK    5  A    between atoms: N_8  and  C_9
REMARK    6  A    between atoms: C_9  and  C_10
REMARK    7  A    between atoms: C_14  and  C_15
REMARK    8  A    between atoms: C_15  and  N_16
REMARK    9  A    between atoms: N_16  and  C_17
REMARK   10  A    between atoms: C_17  and  C_18
REMARK   11  A    between atoms: C_21  and  C_22
REMARK   12  A    between atoms: C_22  and  C_23
REMARK                            x       y       z     vdW  Elec       q    Type
REMARK                         _______ _______ _______ _____ _____    ______ ____
ROOT
ATOM      1  C   UNL     1       1.617   3.494  17.942  0.00  0.00    +0.000 C 
ATOM      2  C   UNL     1       0.800   3.054  19.169  0.00  0.00    +0.000 C 
ATOM      3  C   UNL     1       1.603   3.135  20.461  0.00  0.00    +0.000 C 
ATOM      4  C   UNL     1       2.075   4.557  20.717  0.00  0.00    +0.000 C 
ATOM      5  C   UNL     1       2.904   5.125  19.553  0.00  0.00    +0.000 C 
ATOM      6  C   UNL     1       2.200   4.910  18.192  0.00  0.00    +0.000 C 
ENDROOT
BRANCH   1   7
ATOM      7  C   UNL     1       2.666   2.438  17.488  0.00  0.00    +0.000 C 
BRANCH   7   8
ATOM      8  N   UNL     1       4.035   2.906  17.781  0.00  0.00    +0.000 NA
ATOM      9  H   UNL     1       4.018   3.594  18.531  0.00  0.00    +0.000 HD
BRANCH   8  10
ATOM     10  C   UNL     1       4.705   3.526  16.636  0.00  0.00    +0.000 C 
BRANCH  10  14
ATOM     11  C   UNL     1       7.369   6.730  17.920  0.00  0.00    +0.000 A 
ATOM     12  C   UNL     1       6.254   6.997  17.116  0.00  0.00    +0.000 A 
ATOM     13  C   UNL     1       5.402   5.967  16.708  0.00  0.00    +0.000 A 
ATOM     14  C   UNL     1       5.638   4.639  17.090  0.00  0.00    +0.000 A 
ATOM     15  C   UNL     1       6.748   4.373  17.904  0.00  0.00    +0.000 A 
ATOM     16  C   UNL     1       7.601   5.408  18.317  0.00  0.00    +0.000 A 
BRANCH  11  18
ATOM     17  C   UNL     1       7.937   9.187  17.746  0.00  0.00    +0.000 C 
ATOM     18  C   UNL     1       8.299   7.839  18.351  0.00  0.00    +0.000 C 
ENDBRANCH  11  18
ENDBRANCH  10  14
ENDBRANCH   8  10
ENDBRANCH   7   8
ENDBRANCH   1   7
BRANCH   5  19
ATOM     19  C   UNL     1       3.179   6.636  19.793  0.00  0.00    +0.000 C 
BRANCH  19  20
ATOM     20  N   UNL     1       1.950   7.347  20.156  0.00  0.00    +0.000 NA
ATOM     21  H   UNL     1       2.011   7.682  21.116  0.00  0.00    +0.000 HD
BRANCH  20  22
ATOM     22  C   UNL     1       1.684   8.482  19.272  0.00  0.00    +0.000 C 
BRANCH  22  23
ATOM     23  C   UNL     1       0.758   9.490  19.922  0.00  0.00    +0.000 A 
ATOM     24  C   UNL     1       0.014  10.386  19.144  0.00  0.00    +0.000 A 
ATOM     25  C   UNL     1      -0.855  11.303  19.742  0.00  0.00    +0.000 A 
ATOM     26  C   UNL     1      -0.995  11.352  21.136  0.00  0.00    +0.000 A 
ATOM     27  C   UNL     1      -0.265  10.448  21.917  0.00  0.00    +0.000 A 
ATOM     28  C   UNL     1       0.603   9.528  21.315  0.00  0.00    +0.000 A 
BRANCH  26  29
ATOM     29  C   UNL     1      -1.919  12.359  21.776  0.00  0.00    +0.000 C 
ATOM     30  C   UNL     1      -1.520  12.696  23.205  0.00  0.00    +0.000 C 
ENDBRANCH  26  29
ENDBRANCH  22  23
ENDBRANCH  20  22
ENDBRANCH  19  20
ENDBRANCH   5  19
TORSDOF 10
ENDMDL
MODEL 6
REMARK VINA RESULT:      -6.9      1.527      7.956
REMARK  Name = 
REMARK  12 active torsions:
REMARK  status: ('A' for Active; 'I' for Inactive)
REMARK    1  A    between atoms: C_1  and  C_2
REMARK    2  A    between atoms: C_2  and  C_3
REMARK    3  A    between atoms: C_6  and  C_7
REMARK    4  A    between atoms: C_7  and  N_8
REMARK    5  A    between atoms: N_8  and  C_9
REMARK    6  A    between atoms: C_9  and  C_10
REMARK    7  A    between atoms: C_14  and  C_15
REMARK    8  A    between atoms: C_15  and  N_16
REMARK    9  A    between atoms: N_16  and  C_17
REMARK   10  A    between atoms: C_17  and  C_18
REMARK   11  A    between atoms: C_21  and  C_22
REMARK   12  A    between atoms: C_22  and  C_23
REMARK                            x       y       z     vdW  Elec       q    Type
REMARK                         _______ _______ _______ _____ _____    ______ ____
ROOT
ATOM      1  C   UNL     1       2.598   4.204  20.514  0.00  0.00    +0.000 C 
ATOM      2  C   UNL     1       1.873   2.860  20.332  0.00  0.00    +0.000 C 
ATOM      3  C   UNL     1       1.090   2.794  19.027  0.00  0.00    +0.000 C 
ATOM      4  C   UNL     1       2.013   2.978  17.832  0.00  0.00    +0.000 C 
ATOM      5  C   UNL     1       2.811   4.292  17.895  0.00  0.00    +0.000 C 
ATOM      6  C   UNL     1       3.487   4.482  19.274  0.00  0.00    +0.000 C 
ENDROOT
BRANCH   1   7
ATOM      7  C   UNL     1       1.645   5.372  20.898  0.00  0.00    +0.000 C 
BRANCH   7   8
ATOM      8  N   UNL     1       2.169   6.657  20.396  0.00  0.00    +0.000 NA
ATOM      9  H   UNL     1       3.187   6.641  20.383  0.00  0.00    +0.000 HD
BRANCH   8  10
ATOM     10  C   UNL     1       1.764   7.814  21.196  0.00  0.00    +0.000 C 
BRANCH  10  14
ATOM     11  C   UNL     1      -0.599  10.612  18.829  0.00  0.00    +0.000 A 
ATOM     12  C   UNL     1      -0.952  10.306  20.150  0.00  0.00    +0.000 A 
ATOM     13  C   UNL     1      -0.190   9.410  20.905  0.00  0.00    +0.000 A 
ATOM     14  C   UNL     1       0.946   8.791  20.365  0.00  0.00    +0.000 A 
ATOM     15  C   UNL     1       1.305   9.106  19.046  0.00  0.00    +0.000 A 
ATOM     16  C   UNL     1       0.544  10.008  18.289  0.00  0.00    +0.000 A 
BRANCH  11  18
ATOM     17  C   UNL     1      -2.739  11.948  18.677  0.00  0.00    +0.000 C 
ATOM     18  C   UNL     1      -1.427  11.569  18.006  0.00  0.00    +0.000 C 
ENDBRANCH  11  18
ENDBRANCH  10  14
ENDBRANCH   8  10
ENDBRANCH   7   8
ENDBRANCH   1   7
BRANCH   5  19
ATOM     19  C   UNL     1       3.870   4.317  16.758  0.00  0.00    +0.000 C 
BRANCH  19  20
ATOM     20  N   UNL     1       4.983   3.410  17.051  0.00  0.00    +0.000 NA
ATOM     21  H   UNL     1       4.744   2.461  16.770  0.00  0.00    +0.000 HD
BRANCH  20  22
ATOM     22  C   UNL     1       6.218   3.810  16.374  0.00  0.00    +0.000 C 
BRANCH  22  23
ATOM     23  C   UNL     1       6.846   5.022  17.029  0.00  0.00    +0.000 A 
ATOM     24  C   UNL     1       6.785   6.281  16.416  0.00  0.00    +0.000 A 
ATOM     25  C   UNL     1       7.349   7.403  17.030  0.00  0.00    +0.000 A 
ATOM     26  C   UNL     1       7.995   7.293  18.270  0.00  0.00    +0.000 A 
ATOM     27  C   UNL     1       8.043   6.040  18.893  0.00  0.00    +0.000 A 
ATOM     28  C   UNL     1       7.476   4.917  18.277  0.00  0.00    +0.000 A 
BRANCH  26  29
ATOM     29  C   UNL     1       8.618   8.506  18.916  0.00  0.00    +0.000 C 
ATOM     30  C   UNL     1       8.507   9.753  18.050  0.00  0.00    +0.000 C 
ENDBRANCH  26  29
ENDBRANCH  22  23
ENDBRANCH  20  22
ENDBRANCH  19  20
ENDBRANCH   5  19
TORSDOF 10
ENDMDL
MODEL 7
REMARK VINA RESULT:      -6.8      1.368      2.523
REMARK  Name = 
REMARK  12 active torsions:
REMARK  status: ('A' for Active; 'I' for Inactive)
REMARK    1  A    between atoms: C_1  and  C_2
REMARK    2  A    between atoms: C_2  and  C_3
REMARK    3  A    between atoms: C_6  and  C_7
REMARK    4  A    between atoms: C_7  and  N_8
REMARK    5  A    between atoms: N_8  and  C_9
REMARK    6  A    between atoms: C_9  and  C_10
REMARK    7  A    between atoms: C_14  and  C_15
REMARK    8  A    between atoms: C_15  and  N_16
REMARK    9  A    between atoms: N_16  and  C_17
REMARK   10  A    between atoms: C_17  and  C_18
REMARK   11  A    between atoms: C_21  and  C_22
REMARK   12  A    between atoms: C_22  and  C_23
REMARK                            x       y       z     vdW  Elec       q    Type
REMARK                         _______ _______ _______ _____ _____    ______ ____
ROOT
ATOM      1  C   UNL     1       3.027   3.194  18.489  0.00  0.00    +0.000 C 
ATOM      2  C   UNL     1       1.783   2.329  18.754  0.00  0.00    +0.000 C 
ATOM      3  C   UNL     1       1.254   2.491  20.173  0.00  0.00    +0.000 C 
ATOM      4  C   UNL     1       0.868   3.936  20.446  0.00  0.00    +0.000 C 
ATOM      5  C   UNL     1       2.031   4.915  20.208  0.00  0.00    +0.000 C 
ATOM      6  C   UNL     1       2.711   4.671  18.840  0.00  0.00    +0.000 C 
ENDROOT
BRANCH   1   7
ATOM      7  C   UNL     1       4.319   2.637  19.153  0.00  0.00    +0.000 C 
BRANCH   7   8
ATOM      8  N   UNL     1       5.358   3.682  19.226  0.00  0.00    +0.000 NA
ATOM      9  H   UNL     1       4.955   4.557  19.555  0.00  0.00    +0.000 HD
BRANCH   8  10
ATOM     10  C   UNL     1       6.008   3.959  17.944  0.00  0.00    +0.000 C 
BRANCH  10  14
ATOM     11  C   UNL     1       7.638   8.003  17.851  0.00  0.00    +0.000 A 
ATOM     12  C   UNL     1       6.511   7.661  17.092  0.00  0.00    +0.000 A 
ATOM     13  C   UNL     1       5.991   6.364  17.126  0.00  0.00    +0.000 A 
ATOM     14  C   UNL     1       6.581   5.369  17.918  0.00  0.00    +0.000 A 
ATOM     15  C   UNL     1       7.703   5.714  18.686  0.00  0.00    +0.000 A 
ATOM     16  C   UNL     1       8.222   7.017  18.654  0.00  0.00    +0.000 A 
BRANCH  11  18
ATOM     17  C   UNL     1       9.088   9.720  19.007  0.00  0.00    +0.000 C 
ATOM     18  C   UNL     1       8.210   9.399  17.806  0.00  0.00    +0.000 C 
ENDBRANCH  11  18
ENDBRANCH  10  14
ENDBRANCH   8  10
ENDBRANCH   7   8
ENDBRANCH   1   7
BRANCH   5  19
ATOM     19  C   UNL     1       1.513   6.377  20.309  0.00  0.00    +0.000 C 
BRANCH  19  20
ATOM     20  N   UNL     1       2.578   7.338  20.007  0.00  0.00    +0.000 NA
ATOM     21  H   UNL     1       3.458   6.849  19.856  0.00  0.00    +0.000 HD
BRANCH  20  22
ATOM     22  C   UNL     1       2.276   8.149  18.827  0.00  0.00    +0.000 C 
BRANCH  22  23
ATOM     23  C   UNL     1       1.157   9.133  19.098  0.00  0.00    +0.000 A 
ATOM     24  C   UNL     1       1.004   9.715  20.363  0.00  0.00    +0.000 A 
ATOM     25  C   UNL     1      -0.017  10.638  20.609  0.00  0.00    +0.000 A 
ATOM     26  C   UNL     1      -0.918  10.995  19.595  0.00  0.00    +0.000 A 
ATOM     27  C   UNL     1      -0.759  10.428  18.325  0.00  0.00    +0.000 A 
ATOM     28  C   UNL     1       0.267   9.505  18.081  0.00  0.00    +0.000 A 
BRANCH  26  29
ATOM     29  C   UNL     1      -2.030  11.976  19.873  0.00  0.00    +0.000 C 
ATOM     30  C   UNL     1      -3.116  11.949  18.807  0.00  0.00    +0.000 C 
ENDBRANCH  26  29
ENDBRANCH  22  23
ENDBRANCH  20  22
ENDBRANCH  19  20
ENDBRANCH   5  19
TORSDOF 10
ENDMDL
MODEL 8
REMARK VINA RESULT:      -6.8      0.934      1.566
REMARK  Name = 
REMARK  12 active torsions:
REMARK  status: ('A' for Active; 'I' for Inactive)
REMARK    1  A    between atoms: C_1  and  C_2
REMARK    2  A    between atoms: C_2  and  C_3
REMARK    3  A    between atoms: C_6  and  C_7
REMARK    4  A    between atoms: C_7  and  N_8
REMARK    5  A    between atoms: N_8  and  C_9
REMARK    6  A    between atoms: C_9  and  C_10
REMARK    7  A    between atoms: C_14  and  C_15
REMARK    8  A    between atoms: C_15  and  N_16
REMARK    9  A    between atoms: N_16  and  C_17
REMARK   10  A    between atoms: C_17  and  C_18
REMARK   11  A    between atoms: C_21  and  C_22
REMARK   12  A    between atoms: C_22  and  C_23
REMARK                            x       y       z     vdW  Elec       q    Type
REMARK                         _______ _______ _______ _____ _____    ______ ____
ROOT
ATOM      1  C   UNL     1       0.925   3.275  19.209  0.00  0.00    +0.000 C 
ATOM      2  C   UNL     1       0.965   2.995  20.721  0.00  0.00    +0.000 C 
ATOM      3  C   UNL     1       2.252   3.489  21.369  0.00  0.00    +0.000 C 
ATOM      4  C   UNL     1       2.413   4.989  21.180  0.00  0.00    +0.000 C 
ATOM      5  C   UNL     1       2.381   5.408  19.700  0.00  0.00    +0.000 C 
ATOM      6  C   UNL     1       1.175   4.784  18.957  0.00  0.00    +0.000 C 
ENDROOT
BRANCH   1   7
ATOM      7  C   UNL     1       1.838   2.324  18.381  0.00  0.00    +0.000 C 
BRANCH   7   8
ATOM      8  N   UNL     1       2.618   3.088  17.388  0.00  0.00    +0.000 NA
ATOM      9  H   UNL     1       2.176   3.028  16.472  0.00  0.00    +0.000 HD
BRANCH   8  10
ATOM     10  C   UNL     1       3.998   2.623  17.235  0.00  0.00    +0.000 C 
BRANCH  10  14
ATOM     11  C   UNL     1       6.821   5.829  18.107  0.00  0.00    +0.000 A 
ATOM     12  C   UNL     1       6.243   5.076  19.137  0.00  0.00    +0.000 A 
ATOM     13  C   UNL     1       5.340   4.048  18.853  0.00  0.00    +0.000 A 
ATOM     14  C   UNL     1       4.985   3.742  17.532  0.00  0.00    +0.000 A 
ATOM     15  C   UNL     1       5.571   4.489  16.500  0.00  0.00    +0.000 A 
ATOM     16  C   UNL     1       6.481   5.518  16.785  0.00  0.00    +0.000 A 
BRANCH  11  18
ATOM     17  C   UNL     1       7.650   8.126  17.456  0.00  0.00    +0.000 C 
ATOM     18  C   UNL     1       7.786   6.950  18.412  0.00  0.00    +0.000 C 
ENDBRANCH  11  18
ENDBRANCH  10  14
ENDBRANCH   8  10
ENDBRANCH   7   8
ENDBRANCH   1   7
BRANCH   5  19
ATOM     19  C   UNL     1       2.347   6.958  19.594  0.00  0.00    +0.000 C 
BRANCH  19  20
ATOM     20  N   UNL     1       2.073   7.389  18.221  0.00  0.00    +0.000 NA
ATOM     21  H   UNL     1       1.107   7.181  17.975  0.00  0.00    +0.000 HD
BRANCH  20  22
ATOM     22  C   UNL     1       2.314   8.820  18.030  0.00  0.00    +0.000 C 
BRANCH  22  23
ATOM     23  C   UNL     1       1.088   9.642  18.369  0.00  0.00    +0.000 A 
ATOM     24  C   UNL     1       1.117  10.576  19.414  0.00  0.00    +0.000 A 
ATOM     25  C   UNL     1      -0.009  11.348  19.715  0.00  0.00    +0.000 A 
ATOM     26  C   UNL     1      -1.196  11.199  18.982  0.00  0.00    +0.000 A 
ATOM     27  C   UNL     1      -1.224  10.279  17.928  0.00  0.00    +0.000 A 
ATOM     28  C   UNL     1      -0.093   9.508  17.627  0.00  0.00    +0.000 A 
BRANCH  26  29
ATOM     29  C   UNL     1      -2.413  12.022  19.327  0.00  0.00    +0.000 C 
ATOM     30  C   UNL     1      -3.644  11.606  18.535  0.00  0.00    +0.000 C 
ENDBRANCH  26  29
ENDBRANCH  22  23
ENDBRANCH  20  22
ENDBRANCH  19  20
ENDBRANCH   5  19
TORSDOF 10
ENDMDL
MODEL 9
REMARK VINA RESULT:      -6.7      1.446      2.362
REMARK  Name = 
REMARK  12 active torsions:
REMARK  status: ('A' for Active; 'I' for Inactive)
REMARK    1  A    between atoms: C_1  and  C_2
REMARK    2  A    between atoms: C_2  and  C_3
REMARK    3  A    between atoms: C_6  and  C_7
REMARK    4  A    between atoms: C_7  and  N_8
REMARK    5  A    between atoms: N_8  and  C_9
REMARK    6  A    between atoms: C_9  and  C_10
REMARK    7  A    between atoms: C_14  and  C_15
REMARK    8  A    between atoms: C_15  and  N_16
REMARK    9  A    between atoms: N_16  and  C_17
REMARK   10  A    between atoms: C_17  and  C_18
REMARK   11  A    between atoms: C_21  and  C_22
REMARK   12  A    between atoms: C_22  and  C_23
REMARK                            x       y       z     vdW  Elec       q    Type
REMARK                         _______ _______ _______ _____ _____    ______ ____
ROOT
ATOM      1  C   UNL     1       1.407   3.435  18.457  0.00  0.00    +0.000 C 
ATOM      2  C   UNL     1       0.792   3.522  19.864  0.00  0.00    +0.000 C 
ATOM      3  C   UNL     1       1.672   4.300  20.835  0.00  0.00    +0.000 C 
ATOM      4  C   UNL     1       1.891   5.723  20.346  0.00  0.00    +0.000 C 
ATOM      5  C   UNL     1       2.499   5.778  18.934  0.00  0.00    +0.000 C 
ATOM      6  C   UNL     1       1.735   4.863  17.948  0.00  0.00    +0.000 C 
ENDROOT
BRANCH   1   7
ATOM      7  C   UNL     1       2.592   2.431  18.362  0.00  0.00    +0.000 C 
BRANCH   7   8
ATOM      8  N   UNL     1       3.874   3.114  18.622  0.00  0.00    +0.000 NA
ATOM      9  H   UNL     1       3.713   3.988  19.119  0.00  0.00    +0.000 HD
BRANCH   8  10
ATOM     10  C   UNL     1       4.628   3.438  17.409  0.00  0.00    +0.000 C 
BRANCH  10  14
ATOM     11  C   UNL     1       7.399   6.732  18.105  0.00  0.00    +0.000 A 
ATOM     12  C   UNL     1       6.620   6.677  16.942  0.00  0.00    +0.000 A 
ATOM     13  C   UNL     1       5.731   5.620  16.724  0.00  0.00    +0.000 A 
ATOM     14  C   UNL     1       5.595   4.585  17.660  0.00  0.00    +0.000 A 
ATOM     15  C   UNL     1       6.367   4.645  18.829  0.00  0.00    +0.000 A 
ATOM     16  C   UNL     1       7.256   5.708  19.050  0.00  0.00    +0.000 A 
BRANCH  11  18
ATOM     17  C   UNL     1       7.884   9.189  17.764  0.00  0.00    +0.000 C 
ATOM     18  C   UNL     1       8.369   7.865  18.338  0.00  0.00    +0.000 C 
ENDBRANCH  11  18
ENDBRANCH  10  14
ENDBRANCH   8  10
ENDBRANCH   7   8
ENDBRANCH   1   7
BRANCH   5  19
ATOM     19  C   UNL     1       2.508   7.246  18.424  0.00  0.00    +0.000 C 
BRANCH  19  20
ATOM     20  N   UNL     1       1.788   8.131  19.344  0.00  0.00    +0.000 NA
ATOM     21  H   UNL     1       2.366   8.333  20.158  0.00  0.00    +0.000 HD
BRANCH  20  22
ATOM     22  C   UNL     1       1.400   9.392  18.712  0.00  0.00    +0.000 C 
BRANCH  22  23
ATOM     23  C   UNL     1       0.508  10.218  19.615  0.00  0.00    +0.000 A 
ATOM     24  C   UNL     1       0.790  10.343  20.982  0.00  0.00    +0.000 A 
ATOM     25  C   UNL     1      -0.022  11.120  21.812  0.00  0.00    +0.000 A 
ATOM     26  C   UNL     1      -1.144  11.786  21.297  0.00  0.00    +0.000 A 
ATOM     27  C   UNL     1      -1.421  11.676  19.929  0.00  0.00    +0.000 A 
ATOM     28  C   UNL     1      -0.603  10.899  19.099  0.00  0.00    +0.000 A 
BRANCH  26  29
ATOM     29  C   UNL     1      -2.028  12.606  22.204  0.00  0.00    +0.000 C 
ATOM     30  C   UNL     1      -2.610  11.790  23.350  0.00  0.00    +0.000 C 
ENDBRANCH  26  29
ENDBRANCH  22  23
ENDBRANCH  20  22
ENDBRANCH  19  20
ENDBRANCH   5  19
TORSDOF 10
ENDMDL
