MODEL 1
REMARK VINA RESULT:      -7.4      0.000      0.000
REMARK  Name = 
REMARK  6 active torsions:
REMARK  status: ('A' for Active; 'I' for Inactive)
REMARK    1  A    between atoms: O_1  and  C_2
REMARK    2  A    between atoms: C_2  and  C_3
REMARK    3  A    between atoms: C_3  and  C_4
REMARK    4  A    between atoms: C_4  and  C_5
REMARK    5  A    between atoms: N_13  and  C_14
REMARK    6  A    between atoms: N_17  and  C_18
REMARK                            x       y       z     vdW  Elec       q    Type
REMARK                         _______ _______ _______ _____ _____    ______ ____
ROOT
ATOM      1  C   UNL     1       2.685   5.230  18.702  0.00  0.00    +0.000 C 
ATOM      2  C   UNL     1       2.263   5.476  20.178  0.00  0.00    +0.000 C 
ATOM      3  C   UNL     1       1.495   6.804  20.379  0.00  0.00    +0.000 C 
ATOM      4  N   UNL     1       2.206   7.963  19.838  0.00  0.00    +0.000 NA
ATOM      5  C   UNL     1       2.613   7.772  18.444  0.00  0.00    +0.000 C 
ATOM      6  C   UNL     1       3.416   6.504  18.244  0.00  0.00    +0.000 C 
ENDROOT
BRANCH   4   7
ATOM      7  C   UNL     1       1.600   9.308  20.016  0.00  0.00    +0.000 C 
ATOM      8  C   UNL     1       0.245   9.339  20.747  0.00  0.00    +0.000 C 
ATOM      9  C   UNL     1      -0.963   9.195  19.827  0.00  0.00    +0.000 C 
ATOM     10  N   UNL     1      -0.865  10.170  18.735  0.00  0.00    +0.000 N 
ATOM     11  C   UNL     1       0.335  10.027  17.903  0.00  0.00    +0.000 C 
ATOM     12  C   UNL     1       1.558  10.236  18.783  0.00  0.00    +0.000 C 
BRANCH  10  13
ATOM     13  C   UNL     1      -2.035  10.463  18.018  0.00  0.00    +0.000 A 
ATOM     14  C   UNL     1      -2.200   9.877  16.750  0.00  0.00    +0.000 A 
ATOM     15  C   UNL     1      -3.304  10.167  15.944  0.00  0.00    +0.000 A 
ATOM     16  C   UNL     1      -4.278  11.053  16.391  0.00  0.00    +0.000 A 
ATOM     17  C   UNL     1      -4.147  11.644  17.645  0.00  0.00    +0.000 A 
ATOM     18  C   UNL     1      -3.043  11.348  18.443  0.00  0.00    +0.000 A 
ATOM     19  F   UNL     1      -2.987  11.929  19.652  0.00  0.00    +0.000 F 
ENDBRANCH  10  13
ENDBRANCH   4   7
BRANCH   1  20
ATOM     20  C   UNL     1       1.423   4.948  17.851  0.00  0.00    +0.000 C 
BRANCH  20  21
ATOM     21  O   UNL     1       1.362   3.567  17.495  0.00  0.00    +0.000 OA
ATOM     22  H   UNL     1       0.522   3.216  17.840  0.00  0.00    +0.000 HD
ENDBRANCH  20  21
ENDBRANCH   1  20
BRANCH   1  23
ATOM     23  C   UNL     1       3.672   4.021  18.623  0.00  0.00    +0.000 C 
BRANCH  23  24
ATOM     24  C   UNL     1       4.856   4.189  17.680  0.00  0.00    +0.000 A 
ATOM     25  C   UNL     1       4.716   3.995  16.295  0.00  0.00    +0.000 A 
ATOM     26  C   UNL     1       5.809   4.143  15.434  0.00  0.00    +0.000 A 
ATOM     27  C   UNL     1       7.048   4.523  15.939  0.00  0.00    +0.000 A 
ATOM     28  C   UNL     1       7.202   4.715  17.309  0.00  0.00    +0.000 A 
ATOM     29  C   UNL     1       6.115   4.546  18.176  0.00  0.00    +0.000 A 
ENDBRANCH  23  24
ENDBRANCH   1  23
TORSDOF 6
ENDMDL
MODEL 2
REMARK VINA RESULT:      -7.2      1.954      2.825
REMARK  Name = 
REMARK  6 active torsions:
REMARK  status: ('A' for Active; 'I' for Inactive)
REMARK    1  A    between atoms: O_1  and  C_2
REMARK    2  A    between atoms: C_2  and  C_3
REMARK    3  A    between atoms: C_3  and  C_4
REMARK    4  A    between atoms: C_4  and  C_5
REMARK    5  A    between atoms: N_13  and  C_14
REMARK    6  A    between atoms: N_17  and  C_18
REMARK                            x       y       z     vdW  Elec       q    Type
REMARK                         _______ _______ _______ _____ _____    ______ ____
ROOT
ATOM      1  C   UNL     1       2.920   6.032  18.788  0.00  0.00    +0.000 C 
ATOM      2  C   UNL     1       2.428   6.802  20.046  0.00  0.00    +0.000 C 
ATOM      3  C   UNL     1       1.510   8.000  19.706  0.00  0.00    +0.000 C 
ATOM      4  N   UNL     1       2.103   8.916  18.730  0.00  0.00    +0.000 NA
ATOM      5  C   UNL     1       2.571   8.227  17.525  0.00  0.00    +0.000 C 
ATOM      6  C   UNL     1       3.517   7.088  17.841  0.00  0.00    +0.000 C 
ENDROOT
BRANCH   4   7
ATOM      7  C   UNL     1       1.343  10.139  18.360  0.00  0.00    +0.000 C 
ATOM      8  C   UNL     1       1.657  11.398  19.189  0.00  0.00    +0.000 C 
ATOM      9  C   UNL     1       0.797  11.549  20.441  0.00  0.00    +0.000 C 
ATOM     10  N   UNL     1      -0.619  11.425  20.078  0.00  0.00    +0.000 N 
ATOM     11  C   UNL     1      -0.974  10.143  19.459  0.00  0.00    +0.000 C 
ATOM     12  C   UNL     1      -0.182   9.996  18.170  0.00  0.00    +0.000 C 
BRANCH  10  13
ATOM     13  C   UNL     1      -1.569  11.910  20.991  0.00  0.00    +0.000 A 
ATOM     14  C   UNL     1      -1.293  11.782  22.364  0.00  0.00    +0.000 A 
ATOM     15  C   UNL     1      -2.213  12.180  23.338  0.00  0.00    +0.000 A 
ATOM     16  C   UNL     1      -3.436  12.723  22.959  0.00  0.00    +0.000 A 
ATOM     17  C   UNL     1      -3.734  12.871  21.607  0.00  0.00    +0.000 A 
ATOM     18  C   UNL     1      -2.811  12.471  20.642  0.00  0.00    +0.000 A 
ATOM     19  F   UNL     1      -3.145  12.663  19.357  0.00  0.00    +0.000 F 
ENDBRANCH  10  13
ENDBRANCH   4   7
BRANCH   1  20
ATOM     20  C   UNL     1       1.724   5.287  18.146  0.00  0.00    +0.000 C 
BRANCH  20  21
ATOM     21  O   UNL     1       1.684   3.932  18.592  0.00  0.00    +0.000 OA
ATOM     22  H   UNL     1       1.779   3.365  17.807  0.00  0.00    +0.000 HD
ENDBRANCH  20  21
ENDBRANCH   1  20
BRANCH   1  23
ATOM     23  C   UNL     1       4.038   5.016  19.187  0.00  0.00    +0.000 C 
BRANCH  23  24
ATOM     24  C   UNL     1       5.127   4.783  18.148  0.00  0.00    +0.000 A 
ATOM     25  C   UNL     1       4.827   4.227  16.893  0.00  0.00    +0.000 A 
ATOM     26  C   UNL     1       5.832   4.007  15.945  0.00  0.00    +0.000 A 
ATOM     27  C   UNL     1       7.145   4.374  16.222  0.00  0.00    +0.000 A 
ATOM     28  C   UNL     1       7.457   4.923  17.463  0.00  0.00    +0.000 A 
ATOM     29  C   UNL     1       6.457   5.123  18.422  0.00  0.00    +0.000 A 
ENDBRANCH  23  24
ENDBRANCH   1  23
TORSDOF 6
ENDMDL
MODEL 3
REMARK VINA RESULT:      -7.1      2.170      3.096
REMARK  Name = 
REMARK  6 active torsions:
REMARK  status: ('A' for Active; 'I' for Inactive)
REMARK    1  A    between atoms: O_1  and  C_2
REMARK    2  A    between atoms: C_2  and  C_3
REMARK    3  A    between atoms: C_3  and  C_4
REMARK    4  A    between atoms: C_4  and  C_5
REMARK    5  A    between atoms: N_13  and  C_14
REMARK    6  A    between atoms: N_17  and  C_18
REMARK                            x       y       z     vdW  Elec       q    Type
REMARK                         _______ _______ _______ _____ _____    ______ ____
ROOT
ATOM      1  C   UNL     1       2.925   6.102  18.806  0.00  0.00    +0.000 C 
ATOM      2  C   UNL     1       2.429   6.874  20.061  0.00  0.00    +0.000 C 
ATOM      3  C   UNL     1       1.491   8.055  19.718  0.00  0.00    +0.000 C 
ATOM      4  N   UNL     1       2.063   8.973  18.730  0.00  0.00    +0.000 NA
ATOM      5  C   UNL     1       2.534   8.281  17.529  0.00  0.00    +0.000 C 
ATOM      6  C   UNL     1       3.500   7.159  17.847  0.00  0.00    +0.000 C 
ENDROOT
BRANCH   4   7
ATOM      7  C   UNL     1       1.283  10.181  18.356  0.00  0.00    +0.000 C 
ATOM      8  C   UNL     1       1.625  11.465  19.133  0.00  0.00    +0.000 C 
ATOM      9  C   UNL     1       0.817  11.652  20.414  0.00  0.00    +0.000 C 
ATOM     10  N   UNL     1      -0.612  11.511  20.115  0.00  0.00    +0.000 N 
ATOM     11  C   UNL     1      -0.987  10.209  19.551  0.00  0.00    +0.000 C 
ATOM     12  C   UNL     1      -0.249  10.026  18.234  0.00  0.00    +0.000 C 
BRANCH  10  13
ATOM     13  C   UNL     1      -1.525  12.020  21.052  0.00  0.00    +0.000 A 
ATOM     14  C   UNL     1      -2.427  13.013  20.626  0.00  0.00    +0.000 A 
ATOM     15  C   UNL     1      -3.324  13.618  21.509  0.00  0.00    +0.000 A 
ATOM     16  C   UNL     1      -3.344  13.241  22.848  0.00  0.00    +0.000 A 
ATOM     17  C   UNL     1      -2.470  12.255  23.298  0.00  0.00    +0.000 A 
ATOM     18  C   UNL     1      -1.578  11.656  22.409  0.00  0.00    +0.000 A 
ATOM     19  F   UNL     1      -0.779  10.694  22.898  0.00  0.00    +0.000 F 
ENDBRANCH  10  13
ENDBRANCH   4   7
BRANCH   1  20
ATOM     20  C   UNL     1       1.737   5.334  18.177  0.00  0.00    +0.000 C 
BRANCH  20  21
ATOM     21  O   UNL     1       1.634   4.027  18.743  0.00  0.00    +0.000 OA
ATOM     22  H   UNL     1       0.742   3.694  18.543  0.00  0.00    +0.000 HD
ENDBRANCH  20  21
ENDBRANCH   1  20
BRANCH   1  23
ATOM     23  C   UNL     1       4.061   5.106  19.205  0.00  0.00    +0.000 C 
BRANCH  23  24
ATOM     24  C   UNL     1       5.122   4.847  18.145  0.00  0.00    +0.000 A 
ATOM     25  C   UNL     1       6.466   5.199  18.358  0.00  0.00    +0.000 A 
ATOM     26  C   UNL     1       7.435   4.966  17.377  0.00  0.00    +0.000 A 
ATOM     27  C   UNL     1       7.084   4.345  16.183  0.00  0.00    +0.000 A 
ATOM     28  C   UNL     1       5.756   3.994  15.956  0.00  0.00    +0.000 A 
ATOM     29  C   UNL     1       4.780   4.247  16.927  0.00  0.00    +0.000 A 
ENDBRANCH  23  24
ENDBRANCH   1  23
TORSDOF 6
ENDMDL
MODEL 4
REMARK VINA RESULT:      -6.9      2.100      2.912
REMARK  Name = 
REMARK  6 active torsions:
REMARK  status: ('A' for Active; 'I' for Inactive)
REMARK    1  A    between atoms: O_1  and  C_2
REMARK    2  A    between atoms: C_2  and  C_3
REMARK    3  A    between atoms: C_3  and  C_4
REMARK    4  A    between atoms: C_4  and  C_5
REMARK    5  A    between atoms: N_13  and  C_14
REMARK    6  A    between atoms: N_17  and  C_18
REMARK                            x       y       z     vdW  Elec       q    Type
REMARK                         _______ _______ _______ _____ _____    ______ ____
ROOT
ATOM      1  C   UNL     1       2.774   5.801  18.954  0.00  0.00    +0.000 C 
ATOM      2  C   UNL     1       2.438   6.707  20.171  0.00  0.00    +0.000 C 
ATOM      3  C   UNL     1       1.560   7.925  19.799  0.00  0.00    +0.000 C 
ATOM      4  N   UNL     1       2.113   8.714  18.696  0.00  0.00    +0.000 NA
ATOM      5  C   UNL     1       2.434   7.894  17.526  0.00  0.00    +0.000 C 
ATOM      6  C   UNL     1       3.342   6.730  17.866  0.00  0.00    +0.000 C 
ENDROOT
BRANCH   4   7
ATOM      7  C   UNL     1       1.391   9.944  18.279  0.00  0.00    +0.000 C 
ATOM      8  C   UNL     1       1.786  11.235  19.021  0.00  0.00    +0.000 C 
ATOM      9  C   UNL     1       0.979  11.496  20.289  0.00  0.00    +0.000 C 
ATOM     10  N   UNL     1      -0.454  11.412  19.982  0.00  0.00    +0.000 N 
ATOM     11  C   UNL     1      -0.883  10.112  19.454  0.00  0.00    +0.000 C 
ATOM     12  C   UNL     1      -0.145   9.856  18.149  0.00  0.00    +0.000 C 
BRANCH  10  13
ATOM     13  C   UNL     1      -1.349  11.990  20.895  0.00  0.00    +0.000 A 
ATOM     14  C   UNL     1      -2.195  13.016  20.435  0.00  0.00    +0.000 A 
ATOM     15  C   UNL     1      -3.069  13.688  21.293  0.00  0.00    +0.000 A 
ATOM     16  C   UNL     1      -3.122  13.345  22.640  0.00  0.00    +0.000 A 
ATOM     17  C   UNL     1      -2.304  12.329  23.124  0.00  0.00    +0.000 A 
ATOM     18  C   UNL     1      -1.435  11.663  22.261  0.00  0.00    +0.000 A 
ATOM     19  F   UNL     1      -0.691  10.675  22.782  0.00  0.00    +0.000 F 
ENDBRANCH  10  13
ENDBRANCH   4   7
BRANCH   1  20
ATOM     20  C   UNL     1       1.487   5.078  18.485  0.00  0.00    +0.000 C 
BRANCH  20  21
ATOM     21  O   UNL     1       1.772   4.226  17.375  0.00  0.00    +0.000 OA
ATOM     22  H   UNL     1       2.513   4.625  16.887  0.00  0.00    +0.000 HD
ENDBRANCH  20  21
ENDBRANCH   1  20
BRANCH   1  23
ATOM     23  C   UNL     1       3.867   4.756  19.350  0.00  0.00    +0.000 C 
BRANCH  23  24
ATOM     24  C   UNL     1       5.133   4.765  18.505  0.00  0.00    +0.000 A 
ATOM     25  C   UNL     1       5.152   4.205  17.216  0.00  0.00    +0.000 A 
ATOM     26  C   UNL     1       6.321   4.208  16.447  0.00  0.00    +0.000 A 
ATOM     27  C   UNL     1       7.478   4.803  16.939  0.00  0.00    +0.000 A 
ATOM     28  C   UNL     1       7.475   5.359  18.215  0.00  0.00    +0.000 A 
ATOM     29  C   UNL     1       6.313   5.337  18.996  0.00  0.00    +0.000 A 
ENDBRANCH  23  24
ENDBRANCH   1  23
TORSDOF 6
ENDMDL
MODEL 5
REMARK VINA RESULT:      -6.8      4.844      9.313
REMARK  Name = 
REMARK  6 active torsions:
REMARK  status: ('A' for Active; 'I' for Inactive)
REMARK    1  A    between atoms: O_1  and  C_2
REMARK    2  A    between atoms: C_2  and  C_3
REMARK    3  A    between atoms: C_3  and  C_4
REMARK    4  A    between atoms: C_4  and  C_5
REMARK    5  A    between atoms: N_13  and  C_14
REMARK    6  A    between atoms: N_17  and  C_18
REMARK                            x       y       z     vdW  Elec       q    Type
REMARK                         _______ _______ _______ _____ _____    ______ ____
ROOT
ATOM      1  C   UNL     1       1.686  14.630  20.368  0.00  0.00    +0.000 C 
ATOM      2  C   UNL     1       0.458  14.277  21.254  0.00  0.00    +0.000 C 
ATOM      3  C   UNL     1       0.069  12.782  21.187  0.00  0.00    +0.000 C 
ATOM      4  N   UNL     1      -0.119  12.300  19.817  0.00  0.00    +0.000 NA
ATOM      5  C   UNL     1       1.023  12.607  18.953  0.00  0.00    +0.000 C 
ATOM      6  C   UNL     1       1.378  14.079  18.964  0.00  0.00    +0.000 C 
ENDROOT
BRANCH   4   7
ATOM      7  C   UNL     1      -0.550  10.892  19.619  0.00  0.00    +0.000 C 
ATOM      8  C   UNL     1      -0.151   9.907  20.733  0.00  0.00    +0.000 C 
ATOM      9  C   UNL     1       1.212   9.253  20.526  0.00  0.00    +0.000 C 
ATOM     10  N   UNL     1       1.276   8.672  19.181  0.00  0.00    +0.000 N 
ATOM     11  C   UNL     1       1.091   9.641  18.095  0.00  0.00    +0.000 C 
ATOM     12  C   UNL     1      -0.291  10.260  18.234  0.00  0.00    +0.000 C 
BRANCH  10  13
ATOM     13  C   UNL     1       2.268   7.709  18.934  0.00  0.00    +0.000 A 
ATOM     14  C   UNL     1       3.103   7.890  17.817  0.00  0.00    +0.000 A 
ATOM     15  C   UNL     1       4.072   6.946  17.464  0.00  0.00    +0.000 A 
ATOM     16  C   UNL     1       4.232   5.794  18.227  0.00  0.00    +0.000 A 
ATOM     17  C   UNL     1       3.426   5.592  19.344  0.00  0.00    +0.000 A 
ATOM     18  C   UNL     1       2.463   6.538  19.689  0.00  0.00    +0.000 A 
ATOM     19  F   UNL     1       1.735   6.298  20.791  0.00  0.00    +0.000 F 
ENDBRANCH  10  13
ENDBRANCH   4   7
BRANCH   1  20
ATOM     20  C   UNL     1       2.956  13.989  20.977  0.00  0.00    +0.000 C 
BRANCH  20  21
ATOM     21  O   UNL     1       3.178  14.483  22.298  0.00  0.00    +0.000 OA
ATOM     22  H   UNL     1       2.684  13.908  22.909  0.00  0.00    +0.000 HD
ENDBRANCH  20  21
ENDBRANCH   1  20
BRANCH   1  23
ATOM     23  C   UNL     1       1.853  16.181  20.279  0.00  0.00    +0.000 C 
BRANCH  23  24
ATOM     24  C   UNL     1       1.130  16.864  19.126  0.00  0.00    +0.000 A 
ATOM     25  C   UNL     1      -0.265  17.030  19.138  0.00  0.00    +0.000 A 
ATOM     26  C   UNL     1      -0.925  17.651  18.072  0.00  0.00    +0.000 A 
ATOM     27  C   UNL     1      -0.198  18.147  16.995  0.00  0.00    +0.000 A 
ATOM     28  C   UNL     1       1.184  17.986  16.968  0.00  0.00    +0.000 A 
ATOM     29  C   UNL     1       1.845  17.345  18.023  0.00  0.00    +0.000 A 
ENDBRANCH  23  24
ENDBRANCH   1  23
TORSDOF 6
ENDMDL
MODEL 6
REMARK VINA RESULT:      -6.8      6.574     10.105
REMARK  Name = 
REMARK  6 active torsions:
REMARK  status: ('A' for Active; 'I' for Inactive)
REMARK    1  A    between atoms: O_1  and  C_2
REMARK    2  A    between atoms: C_2  and  C_3
REMARK    3  A    between atoms: C_3  and  C_4
REMARK    4  A    between atoms: C_4  and  C_5
REMARK    5  A    between atoms: N_13  and  C_14
REMARK    6  A    between atoms: N_17  and  C_18
REMARK                            x       y       z     vdW  Elec       q    Type
REMARK                         _______ _______ _______ _____ _____    ______ ____
ROOT
ATOM      1  C   UNL     1       0.827  12.568  19.129  0.00  0.00    +0.000 C 
ATOM      2  C   UNL     1       1.326  13.076  20.511  0.00  0.00    +0.000 C 
ATOM      3  C   UNL     1       2.218  14.335  20.411  0.00  0.00    +0.000 C 
ATOM      4  N   UNL     1       3.336  14.173  19.479  0.00  0.00    +0.000 NA
ATOM      5  C   UNL     1       2.903  13.704  18.161  0.00  0.00    +0.000 C 
ATOM      6  C   UNL     1       2.076  12.437  18.240  0.00  0.00    +0.000 C 
ENDROOT
BRANCH   4   7
ATOM      7  C   UNL     1       4.301  15.294  19.334  0.00  0.00    +0.000 C 
ATOM      8  C   UNL     1       5.065  15.350  17.998  0.00  0.00    +0.000 C 
ATOM      9  C   UNL     1       6.371  14.560  17.995  0.00  0.00    +0.000 C 
ATOM     10  N   UNL     1       7.183  14.953  19.151  0.00  0.00    +0.000 N 
ATOM     11  C   UNL     1       6.539  14.722  20.449  0.00  0.00    +0.000 C 
ATOM     12  C   UNL     1       5.267  15.553  20.509  0.00  0.00    +0.000 C 
BRANCH  10  13
ATOM     13  C   UNL     1       8.552  14.642  19.120  0.00  0.00    +0.000 A 
ATOM     14  C   UNL     1       9.019  13.625  19.972  0.00  0.00    +0.000 A 
ATOM     15  C   UNL     1      10.375  13.297  20.050  0.00  0.00    +0.000 A 
ATOM     16  C   UNL     1      11.302  13.983  19.271  0.00  0.00    +0.000 A 
ATOM     17  C   UNL     1      10.869  14.989  18.413  0.00  0.00    +0.000 A 
ATOM     18  C   UNL     1       9.514  15.309  18.341  0.00  0.00    +0.000 A 
ATOM     19  F   UNL     1       9.156  16.270  17.475  0.00  0.00    +0.000 F 
ENDBRANCH  10  13
ENDBRANCH   4   7
BRANCH   1  20
ATOM     20  C   UNL     1      -0.192  13.581  18.551  0.00  0.00    +0.000 C 
BRANCH  20  21
ATOM     21  O   UNL     1      -0.930  12.988  17.482  0.00  0.00    +0.000 OA
ATOM     22  H   UNL     1      -1.028  13.664  16.789  0.00  0.00    +0.000 HD
ENDBRANCH  20  21
ENDBRANCH   1  20
BRANCH   1  23
ATOM     23  C   UNL     1       0.164  11.162  19.283  0.00  0.00    +0.000 C 
BRANCH  23  24
ATOM     24  C   UNL     1       0.092  10.611  20.700  0.00  0.00    +0.000 A 
ATOM     25  C   UNL     1       0.968   9.602  21.134  0.00  0.00    +0.000 A 
ATOM     26  C   UNL     1       0.893   9.094  22.435  0.00  0.00    +0.000 A 
ATOM     27  C   UNL     1      -0.035   9.612  23.334  0.00  0.00    +0.000 A 
ATOM     28  C   UNL     1      -0.911  10.609  22.917  0.00  0.00    +0.000 A 
ATOM     29  C   UNL     1      -0.853  11.104  21.608  0.00  0.00    +0.000 A 
ENDBRANCH  23  24
ENDBRANCH   1  23
TORSDOF 6
ENDMDL
MODEL 7
REMARK VINA RESULT:      -6.8      2.614      3.603
REMARK  Name = 
REMARK  6 active torsions:
REMARK  status: ('A' for Active; 'I' for Inactive)
REMARK    1  A    between atoms: O_1  and  C_2
REMARK    2  A    between atoms: C_2  and  C_3
REMARK    3  A    between atoms: C_3  and  C_4
REMARK    4  A    between atoms: C_4  and  C_5
REMARK    5  A    between atoms: N_13  and  C_14
REMARK    6  A    between atoms: N_17  and  C_18
REMARK                            x       y       z     vdW  Elec       q    Type
REMARK                         _______ _______ _______ _____ _____    ______ ____
ROOT
ATOM      1  C   UNL     1       2.975   6.028  18.782  0.00  0.00    +0.000 C 
ATOM      2  C   UNL     1       2.465   6.751  20.060  0.00  0.00    +0.000 C 
ATOM      3  C   UNL     1       1.457   7.884  19.758  0.00  0.00    +0.000 C 
ATOM      4  N   UNL     1       1.958   8.849  18.777  0.00  0.00    +0.000 NA
ATOM      5  C   UNL     1       2.440   8.205  17.553  0.00  0.00    +0.000 C 
ATOM      6  C   UNL     1       3.471   7.132  17.831  0.00  0.00    +0.000 C 
ENDROOT
BRANCH   4   7
ATOM      7  C   UNL     1       1.105  10.019  18.441  0.00  0.00    +0.000 C 
ATOM      8  C   UNL     1       1.727  11.400  18.716  0.00  0.00    +0.000 C 
ATOM      9  C   UNL     1       1.464  11.933  20.121  0.00  0.00    +0.000 C 
ATOM     10  N   UNL     1       0.026  11.871  20.406  0.00  0.00    +0.000 N 
ATOM     11  C   UNL     1      -0.546  10.522  20.339  0.00  0.00    +0.000 C 
ATOM     12  C   UNL     1      -0.360   9.991  18.926  0.00  0.00    +0.000 C 
BRANCH  10  13
ATOM     13  C   UNL     1      -0.462  12.655  21.464  0.00  0.00    +0.000 A 
ATOM     14  C   UNL     1      -1.299  12.040  22.412  0.00  0.00    +0.000 A 
ATOM     15  C   UNL     1      -1.878  12.762  23.459  0.00  0.00    +0.000 A 
ATOM     16  C   UNL     1      -1.630  14.125  23.584  0.00  0.00    +0.000 A 
ATOM     17  C   UNL     1      -0.799  14.760  22.666  0.00  0.00    +0.000 A 
ATOM     18  C   UNL     1      -0.225  14.032  21.625  0.00  0.00    +0.000 A 
ATOM     19  F   UNL     1       0.588  14.696  20.788  0.00  0.00    +0.000 F 
ENDBRANCH  10  13
ENDBRANCH   4   7
BRANCH   1  20
ATOM     20  C   UNL     1       1.817   5.208  18.162  0.00  0.00    +0.000 C 
BRANCH  20  21
ATOM     21  O   UNL     1       1.603   4.009  18.908  0.00  0.00    +0.000 OA
ATOM     22  H   UNL     1       2.478   3.668  19.164  0.00  0.00    +0.000 HD
ENDBRANCH  20  21
ENDBRANCH   1  20
BRANCH   1  23
ATOM     23  C   UNL     1       4.172   5.090  19.139  0.00  0.00    +0.000 C 
BRANCH  23  24
ATOM     24  C   UNL     1       5.190   4.859  18.031  0.00  0.00    +0.000 A 
ATOM     25  C   UNL     1       6.528   5.263  18.177  0.00  0.00    +0.000 A 
ATOM     26  C   UNL     1       7.458   5.056  17.153  0.00  0.00    +0.000 A 
ATOM     27  C   UNL     1       7.075   4.409  15.983  0.00  0.00    +0.000 A 
ATOM     28  C   UNL     1       5.752   4.005  15.823  0.00  0.00    +0.000 A 
ATOM     29  C   UNL     1       4.814   4.232  16.837  0.00  0.00    +0.000 A 
ENDBRANCH  23  24
ENDBRANCH   1  23
TORSDOF 6
ENDMDL
MODEL 8
REMARK VINA RESULT:      -6.8      0.901      1.275
REMARK  Name = 
REMARK  6 active torsions:
REMARK  status: ('A' for Active; 'I' for Inactive)
REMARK    1  A    between atoms: O_1  and  C_2
REMARK    2  A    between atoms: C_2  and  C_3
REMARK    3  A    between atoms: C_3  and  C_4
REMARK    4  A    between atoms: C_4  and  C_5
REMARK    5  A    between atoms: N_13  and  C_14
REMARK    6  A    between atoms: N_17  and  C_18
REMARK                            x       y       z     vdW  Elec       q    Type
REMARK                         _______ _______ _______ _____ _____    ______ ____
ROOT
ATOM      1  C   UNL     1       2.643   5.206  18.701  0.00  0.00    +0.000 C 
ATOM      2  C   UNL     1       2.220   5.379  20.187  0.00  0.00    +0.000 C 
ATOM      3  C   UNL     1       1.460   6.700  20.453  0.00  0.00    +0.000 C 
ATOM      4  N   UNL     1       2.180   7.881  19.973  0.00  0.00    +0.000 NA
ATOM      5  C   UNL     1       2.588   7.758  18.572  0.00  0.00    +0.000 C 
ATOM      6  C   UNL     1       3.383   6.496  18.309  0.00  0.00    +0.000 C 
ENDROOT
BRANCH   4   7
ATOM      7  C   UNL     1       1.581   9.219  20.219  0.00  0.00    +0.000 C 
ATOM      8  C   UNL     1       0.211   9.220  20.922  0.00  0.00    +0.000 C 
ATOM      9  C   UNL     1      -0.978   9.143  19.968  0.00  0.00    +0.000 C 
ATOM     10  N   UNL     1      -0.847  10.181  18.940  0.00  0.00    +0.000 N 
ATOM     11  C   UNL     1       0.370  10.076  18.126  0.00  0.00    +0.000 C 
ATOM     12  C   UNL     1       1.575  10.220  19.043  0.00  0.00    +0.000 C 
BRANCH  10  13
ATOM     13  C   UNL     1      -1.998  10.529  18.216  0.00  0.00    +0.000 A 
ATOM     14  C   UNL     1      -2.875  11.473  18.781  0.00  0.00    +0.000 A 
ATOM     15  C   UNL     1      -4.075  11.827  18.157  0.00  0.00    +0.000 A 
ATOM     16  C   UNL     1      -4.426  11.243  16.945  0.00  0.00    +0.000 A 
ATOM     17  C   UNL     1      -3.576  10.312  16.357  0.00  0.00    +0.000 A 
ATOM     18  C   UNL     1      -2.381   9.965  16.985  0.00  0.00    +0.000 A 
ATOM     19  F   UNL     1      -1.590   9.081  16.356  0.00  0.00    +0.000 F 
ENDBRANCH  10  13
ENDBRANCH   4   7
BRANCH   1  20
ATOM     20  C   UNL     1       1.380   4.976  17.834  0.00  0.00    +0.000 C 
BRANCH  20  21
ATOM     21  O   UNL     1       1.086   3.581  17.744  0.00  0.00    +0.000 OA
ATOM     22  H   UNL     1       0.176   3.499  17.411  0.00  0.00    +0.000 HD
ENDBRANCH  20  21
ENDBRANCH   1  20
BRANCH   1  23
ATOM     23  C   UNL     1       3.622   3.996  18.561  0.00  0.00    +0.000 C 
BRANCH  23  24
ATOM     24  C   UNL     1       4.826   4.216  17.656  0.00  0.00    +0.000 A 
ATOM     25  C   UNL     1       4.719   4.094  16.260  0.00  0.00    +0.000 A 
ATOM     26  C   UNL     1       5.831   4.289  15.433  0.00  0.00    +0.000 A 
ATOM     27  C   UNL     1       7.057   4.644  15.985  0.00  0.00    +0.000 A 
ATOM     28  C   UNL     1       7.179   4.765  17.366  0.00  0.00    +0.000 A 
ATOM     29  C   UNL     1       6.073   4.548  18.198  0.00  0.00    +0.000 A 
ENDBRANCH  23  24
ENDBRANCH   1  23
TORSDOF 6
ENDMDL
MODEL 9
REMARK VINA RESULT:      -6.7      2.913      9.253
REMARK  Name = 
REMARK  6 active torsions:
REMARK  status: ('A' for Active; 'I' for Inactive)
REMARK    1  A    between atoms: O_1  and  C_2
REMARK    2  A    between atoms: C_2  and  C_3
REMARK    3  A    between atoms: C_3  and  C_4
REMARK    4  A    between atoms: C_4  and  C_5
REMARK    5  A    between atoms: N_13  and  C_14
REMARK    6  A    between atoms: N_17  and  C_18
REMARK                            x       y       z     vdW  Elec       q    Type
REMARK                         _______ _______ _______ _____ _____    ______ ____
ROOT
ATOM      1  C   UNL     1      -3.308  11.002  17.188  0.00  0.00    +0.000 C 
ATOM      2  C   UNL     1      -2.836  12.154  18.121  0.00  0.00    +0.000 C 
ATOM      3  C   UNL     1      -1.324  12.097  18.441  0.00  0.00    +0.000 C 
ATOM      4  N   UNL     1      -0.896  10.796  18.958  0.00  0.00    +0.000 NA
ATOM      5  C   UNL     1      -1.315   9.686  18.100  0.00  0.00    +0.000 C 
ATOM      6  C   UNL     1      -2.805   9.696  17.826  0.00  0.00    +0.000 C 
ENDROOT
BRANCH   4   7
ATOM      7  C   UNL     1       0.525  10.629  19.357  0.00  0.00    +0.000 C 
ATOM      8  C   UNL     1       1.473  10.120  18.256  0.00  0.00    +0.000 C 
ATOM      9  C   UNL     1       1.580   8.599  18.181  0.00  0.00    +0.000 C 
ATOM     10  N   UNL     1       1.888   8.065  19.512  0.00  0.00    +0.000 N 
ATOM     11  C   UNL     1       0.886   8.380  20.537  0.00  0.00    +0.000 C 
ATOM     12  C   UNL     1       0.808   9.892  20.684  0.00  0.00    +0.000 C 
BRANCH  10  13
ATOM     13  C   UNL     1       2.401   6.760  19.587  0.00  0.00    +0.000 A 
ATOM     14  C   UNL     1       1.841   5.881  20.532  0.00  0.00    +0.000 A 
ATOM     15  C   UNL     1       2.336   4.587  20.715  0.00  0.00    +0.000 A 
ATOM     16  C   UNL     1       3.408   4.138  19.950  0.00  0.00    +0.000 A 
ATOM     17  C   UNL     1       3.978   4.982  19.001  0.00  0.00    +0.000 A 
ATOM     18  C   UNL     1       3.478   6.271  18.825  0.00  0.00    +0.000 A 
ATOM     19  F   UNL     1       4.052   7.027  17.876  0.00  0.00    +0.000 F 
ENDBRANCH  10  13
ENDBRANCH   4   7
BRANCH   1  20
ATOM     20  C   UNL     1      -2.720  11.219  15.772  0.00  0.00    +0.000 C 
BRANCH  20  21
ATOM     21  O   UNL     1      -2.865  10.036  14.987  0.00  0.00    +0.000 OA
ATOM     22  H   UNL     1      -3.741  10.073  14.566  0.00  0.00    +0.000 HD
ENDBRANCH  20  21
ENDBRANCH   1  20
BRANCH   1  23
ATOM     23  C   UNL     1      -4.869  10.969  17.126  0.00  0.00    +0.000 C 
BRANCH  23  24
ATOM     24  C   UNL     1      -5.592  11.163  18.452  0.00  0.00    +0.000 A 
ATOM     25  C   UNL     1      -5.380  12.310  19.235  0.00  0.00    +0.000 A 
ATOM     26  C   UNL     1      -6.041  12.480  20.456  0.00  0.00    +0.000 A 
ATOM     27  C   UNL     1      -6.951  11.524  20.895  0.00  0.00    +0.000 A 
ATOM     28  C   UNL     1      -7.169  10.381  20.131  0.00  0.00    +0.000 A 
ATOM     29  C   UNL     1      -6.492  10.198  18.919  0.00  0.00    +0.000 A 
ENDBRANCH  23  24
ENDBRANCH   1  23
TORSDOF 6
ENDMDL
