MODEL 1
REMARK VINA RESULT:      -7.0      0.000      0.000
REMARK  Name = 
REMARK  10 active torsions:
REMARK  status: ('A' for Active; 'I' for Inactive)
REMARK    1  A    between atoms: C_1  and  C_2
REMARK    2  A    between atoms: C_2  and  C_3
REMARK    3  A    between atoms: C_6  and  S_7
REMARK    4  A    between atoms: S_7  and  C_8
REMARK    5  A    between atoms: C_8  and  C_9
REMARK    6  A    between atoms: C_12  and  O_13
REMARK    7  A    between atoms: O_13  and  C_14
REMARK    8  A    between atoms: C_14  and  C_15
REMARK    9  A    between atoms: C_15  and  C_16
REMARK   10  A    between atoms: C_15  and  C_17
REMARK                            x       y       z     vdW  Elec       q    Type
REMARK                         _______ _______ _______ _____ _____    ______ ____
ROOT
ATOM      1  C   UNL     1       3.897   5.366  18.210  0.00  0.00    +0.000 A 
ATOM      2  C   UNL     1       3.776   6.592  17.565  0.00  0.00    +0.000 A 
ATOM      3  C   UNL     1       3.027   7.610  18.122  0.00  0.00    +0.000 A 
ATOM      4  C   UNL     1       2.306   7.422  19.303  0.00  0.00    +0.000 A 
ATOM      5  C   UNL     1       2.355   6.168  19.939  0.00  0.00    +0.000 A 
ATOM      6  C   UNL     1       3.147   5.154  19.387  0.00  0.00    +0.000 A 
ENDROOT
BRANCH   1   7
ATOM      7  C   UNL     1       4.778   4.273  17.657  0.00  0.00    +0.000 C 
BRANCH   7   8
ATOM      8  S   UNL     1       6.542   4.701  17.468  0.00  0.00    +0.000 S 
BRANCH   8  12
ATOM      9  C   UNL     1       6.721   4.193  13.709  0.00  0.00    +0.000 A 
ATOM     10  N   UNL     1       7.375   5.363  13.761  0.00  0.00    +0.000 NA
ATOM     11  N   UNL     1       7.382   5.597  15.084  0.00  0.00    +0.000 N 
ATOM     12  C   UNL     1       6.758   4.599  15.763  0.00  0.00    +0.000 A 
ATOM     13  N   UNL     1       6.338   3.683  14.928  0.00  0.00    +0.000 NA
ATOM     14  H   UNL     1       7.796   6.447  15.447  0.00  0.00    +0.000 HD
BRANCH   9  16
ATOM     15  C   UNL     1       4.922   3.583  12.097  0.00  0.00    +0.000 C 
ATOM     16  C   UNL     1       6.402   3.517  12.427  0.00  0.00    +0.000 C 
ENDBRANCH   9  16
ENDBRANCH   8  12
ENDBRANCH   7   8
ENDBRANCH   1   7
BRANCH   4  17
ATOM     17  O   UNL     1       1.542   8.429  19.857  0.00  0.00    +0.000 OA
BRANCH  17  18
ATOM     18  C   UNL     1       1.181   8.181  21.229  0.00  0.00    +0.000 C 
BRANCH  18  19
ATOM     19  C   UNL     1      -0.092   8.915  21.642  0.00  0.00    +0.000 C 
ATOM     20  C   UNL     1       0.064   9.503  23.037  0.00  0.00    +0.000 C 
ATOM     21  C   UNL     1      -0.406  10.019  20.625  0.00  0.00    +0.000 C 
ENDBRANCH  18  19
ENDBRANCH  17  18
ENDBRANCH   4  17
TORSDOF 7
ENDMDL
MODEL 2
REMARK VINA RESULT:      -7.0      2.447      3.382
REMARK  Name = 
REMARK  10 active torsions:
REMARK  status: ('A' for Active; 'I' for Inactive)
REMARK    1  A    between atoms: C_1  and  C_2
REMARK    2  A    between atoms: C_2  and  C_3
REMARK    3  A    between atoms: C_6  and  S_7
REMARK    4  A    between atoms: S_7  and  C_8
REMARK    5  A    between atoms: C_8  and  C_9
REMARK    6  A    between atoms: C_12  and  O_13
REMARK    7  A    between atoms: O_13  and  C_14
REMARK    8  A    between atoms: C_14  and  C_15
REMARK    9  A    between atoms: C_15  and  C_16
REMARK   10  A    between atoms: C_15  and  C_17
REMARK                            x       y       z     vdW  Elec       q    Type
REMARK                         _______ _______ _______ _____ _____    ______ ____
ROOT
ATOM      1  C   UNL     1       4.883   6.086  17.838  0.00  0.00    +0.000 A 
ATOM      2  C   UNL     1       3.608   6.637  17.765  0.00  0.00    +0.000 A 
ATOM      3  C   UNL     1       2.670   6.374  18.744  0.00  0.00    +0.000 A 
ATOM      4  C   UNL     1       2.937   5.491  19.791  0.00  0.00    +0.000 A 
ATOM      5  C   UNL     1       4.196   4.865  19.850  0.00  0.00    +0.000 A 
ATOM      6  C   UNL     1       5.155   5.166  18.875  0.00  0.00    +0.000 A 
ENDROOT
BRANCH   1   7
ATOM      7  C   UNL     1       5.945   6.429  16.823  0.00  0.00    +0.000 C 
BRANCH   7   8
ATOM      8  S   UNL     1       7.249   5.174  16.588  0.00  0.00    +0.000 S 
BRANCH   8  12
ATOM      9  C   UNL     1       6.340   3.945  13.112  0.00  0.00    +0.000 A 
ATOM     10  N   UNL     1       7.274   4.834  12.746  0.00  0.00    +0.000 NA
ATOM     11  N   UNL     1       7.674   5.297  13.943  0.00  0.00    +0.000 N 
ATOM     12  C   UNL     1       6.996   4.693  14.955  0.00  0.00    +0.000 A 
ATOM     13  N   UNL     1       6.152   3.818  14.469  0.00  0.00    +0.000 NA
ATOM     14  H   UNL     1       8.377   6.023  13.998  0.00  0.00    +0.000 HD
BRANCH   9  16
ATOM     15  C   UNL     1       6.330   2.029  11.519  0.00  0.00    +0.000 C 
ATOM     16  C   UNL     1       5.543   3.178  12.123  0.00  0.00    +0.000 C 
ENDBRANCH   9  16
ENDBRANCH   8  12
ENDBRANCH   7   8
ENDBRANCH   1   7
BRANCH   4  17
ATOM     17  O   UNL     1       1.999   5.209  20.763  0.00  0.00    +0.000 OA
BRANCH  17  18
ATOM     18  C   UNL     1       0.878   4.450  20.271  0.00  0.00    +0.000 C 
BRANCH  18  19
ATOM     19  C   UNL     1       1.021   2.954  20.536  0.00  0.00    +0.000 C 
ATOM     20  C   UNL     1       1.594   2.250  19.314  0.00  0.00    +0.000 C 
ATOM     21  C   UNL     1       1.922   2.729  21.757  0.00  0.00    +0.000 C 
ENDBRANCH  18  19
ENDBRANCH  17  18
ENDBRANCH   4  17
TORSDOF 7
ENDMDL
MODEL 3
REMARK VINA RESULT:      -6.8      2.350      3.351
REMARK  Name = 
REMARK  10 active torsions:
REMARK  status: ('A' for Active; 'I' for Inactive)
REMARK    1  A    between atoms: C_1  and  C_2
REMARK    2  A    between atoms: C_2  and  C_3
REMARK    3  A    between atoms: C_6  and  S_7
REMARK    4  A    between atoms: S_7  and  C_8
REMARK    5  A    between atoms: C_8  and  C_9
REMARK    6  A    between atoms: C_12  and  O_13
REMARK    7  A    between atoms: O_13  and  C_14
REMARK    8  A    between atoms: C_14  and  C_15
REMARK    9  A    between atoms: C_15  and  C_16
REMARK   10  A    between atoms: C_15  and  C_17
REMARK                            x       y       z     vdW  Elec       q    Type
REMARK                         _______ _______ _______ _____ _____    ______ ____
ROOT
ATOM      1  C   UNL     1       4.590   6.354  17.270  0.00  0.00    +0.000 A 
ATOM      2  C   UNL     1       4.861   5.356  18.201  0.00  0.00    +0.000 A 
ATOM      3  C   UNL     1       4.000   5.123  19.255  0.00  0.00    +0.000 A 
ATOM      4  C   UNL     1       2.877   5.924  19.469  0.00  0.00    +0.000 A 
ATOM      5  C   UNL     1       2.618   6.986  18.583  0.00  0.00    +0.000 A 
ATOM      6  C   UNL     1       3.475   7.192  17.495  0.00  0.00    +0.000 A 
ENDROOT
BRANCH   1   7
ATOM      7  C   UNL     1       5.475   6.566  16.067  0.00  0.00    +0.000 C 
BRANCH   7   8
ATOM      8  S   UNL     1       7.000   5.564  16.023  0.00  0.00    +0.000 S 
BRANCH   8  12
ATOM      9  C   UNL     1       6.421   3.738  12.745  0.00  0.00    +0.000 A 
ATOM     10  N   UNL     1       7.311   4.633  12.293  0.00  0.00    +0.000 NA
ATOM     11  N   UNL     1       7.595   5.308  13.421  0.00  0.00    +0.000 N 
ATOM     12  C   UNL     1       6.895   4.816  14.477  0.00  0.00    +0.000 A 
ATOM     13  N   UNL     1       6.151   3.810  14.091  0.00  0.00    +0.000 NA
ATOM     14  H   UNL     1       8.238   6.089  13.397  0.00  0.00    +0.000 HD
BRANCH   9  16
ATOM     15  C   UNL     1       4.357   3.218  11.450  0.00  0.00    +0.000 C 
ATOM     16  C   UNL     1       5.750   2.765  11.848  0.00  0.00    +0.000 C 
ENDBRANCH   9  16
ENDBRANCH   8  12
ENDBRANCH   7   8
ENDBRANCH   1   7
BRANCH   4  17
ATOM     17  O   UNL     1       2.022   5.709  20.530  0.00  0.00    +0.000 OA
BRANCH  17  18
ATOM     18  C   UNL     1       2.258   4.460  21.209  0.00  0.00    +0.000 C 
BRANCH  18  19
ATOM     19  C   UNL     1       1.116   3.465  21.019  0.00  0.00    +0.000 C 
ATOM     20  C   UNL     1       1.094   2.948  19.588  0.00  0.00    +0.000 C 
ATOM     21  C   UNL     1       1.274   2.303  22.008  0.00  0.00    +0.000 C 
ENDBRANCH  18  19
ENDBRANCH  17  18
ENDBRANCH   4  17
TORSDOF 7
ENDMDL
MODEL 4
REMARK VINA RESULT:      -6.8      3.014      3.776
REMARK  Name = 
REMARK  10 active torsions:
REMARK  status: ('A' for Active; 'I' for Inactive)
REMARK    1  A    between atoms: C_1  and  C_2
REMARK    2  A    between atoms: C_2  and  C_3
REMARK    3  A    between atoms: C_6  and  S_7
REMARK    4  A    between atoms: S_7  and  C_8
REMARK    5  A    between atoms: C_8  and  C_9
REMARK    6  A    between atoms: C_12  and  O_13
REMARK    7  A    between atoms: O_13  and  C_14
REMARK    8  A    between atoms: C_14  and  C_15
REMARK    9  A    between atoms: C_15  and  C_16
REMARK   10  A    between atoms: C_15  and  C_17
REMARK                            x       y       z     vdW  Elec       q    Type
REMARK                         _______ _______ _______ _____ _____    ______ ____
ROOT
ATOM      1  C   UNL     1       4.883   4.892  17.143  0.00  0.00    +0.000 A 
ATOM      2  C   UNL     1       3.803   4.112  16.742  0.00  0.00    +0.000 A 
ATOM      3  C   UNL     1       3.207   3.229  17.621  0.00  0.00    +0.000 A 
ATOM      4  C   UNL     1       3.710   3.031  18.908  0.00  0.00    +0.000 A 
ATOM      5  C   UNL     1       4.845   3.756  19.316  0.00  0.00    +0.000 A 
ATOM      6  C   UNL     1       5.420   4.677  18.432  0.00  0.00    +0.000 A 
ENDROOT
BRANCH   1   7
ATOM      7  C   UNL     1       5.492   5.920  16.223  0.00  0.00    +0.000 C 
BRANCH   7   8
ATOM      8  S   UNL     1       7.213   5.599  15.708  0.00  0.00    +0.000 S 
BRANCH   8  12
ATOM      9  C   UNL     1       6.386   3.670  12.544  0.00  0.00    +0.000 A 
ATOM     10  N   UNL     1       7.289   4.505  12.010  0.00  0.00    +0.000 NA
ATOM     11  N   UNL     1       7.660   5.211  13.092  0.00  0.00    +0.000 N 
ATOM     12  C   UNL     1       6.995   4.794  14.202  0.00  0.00    +0.000 A 
ATOM     13  N   UNL     1       6.189   3.808  13.898  0.00  0.00    +0.000 NA
ATOM     14  H   UNL     1       8.334   5.960  13.003  0.00  0.00    +0.000 HD
BRANCH   9  16
ATOM     15  C   UNL     1       4.256   3.213  11.335  0.00  0.00    +0.000 C 
ATOM     16  C   UNL     1       5.628   2.692  11.725  0.00  0.00    +0.000 C 
ENDBRANCH   9  16
ENDBRANCH   8  12
ENDBRANCH   7   8
ENDBRANCH   1   7
BRANCH   4  17
ATOM     17  O   UNL     1       3.131   2.138  19.786  0.00  0.00    +0.000 OA
BRANCH  17  18
ATOM     18  C   UNL     1       2.700   2.748  21.018  0.00  0.00    +0.000 C 
BRANCH  18  19
ATOM     19  C   UNL     1       1.320   3.390  20.903  0.00  0.00    +0.000 C 
ATOM     20  C   UNL     1       1.450   4.889  20.673  0.00  0.00    +0.000 C 
ATOM     21  C   UNL     1       0.539   2.737  19.756  0.00  0.00    +0.000 C 
ENDBRANCH  18  19
ENDBRANCH  17  18
ENDBRANCH   4  17
TORSDOF 7
ENDMDL
MODEL 5
REMARK VINA RESULT:      -6.7      4.733      7.057
REMARK  Name = 
REMARK  10 active torsions:
REMARK  status: ('A' for Active; 'I' for Inactive)
REMARK    1  A    between atoms: C_1  and  C_2
REMARK    2  A    between atoms: C_2  and  C_3
REMARK    3  A    between atoms: C_6  and  S_7
REMARK    4  A    between atoms: S_7  and  C_8
REMARK    5  A    between atoms: C_8  and  C_9
REMARK    6  A    between atoms: C_12  and  O_13
REMARK    7  A    between atoms: O_13  and  C_14
REMARK    8  A    between atoms: C_14  and  C_15
REMARK    9  A    between atoms: C_15  and  C_16
REMARK   10  A    between atoms: C_15  and  C_17
REMARK                            x       y       z     vdW  Elec       q    Type
REMARK                         _______ _______ _______ _____ _____    ______ ____
ROOT
ATOM      1  C   UNL     1       6.953   5.374  17.335  0.00  0.00    +0.000 A 
ATOM      2  C   UNL     1       7.677   5.313  18.522  0.00  0.00    +0.000 A 
ATOM      3  C   UNL     1       8.240   6.452  19.063  0.00  0.00    +0.000 A 
ATOM      4  C   UNL     1       8.173   7.681  18.404  0.00  0.00    +0.000 A 
ATOM      5  C   UNL     1       7.508   7.756  17.167  0.00  0.00    +0.000 A 
ATOM      6  C   UNL     1       6.907   6.605  16.644  0.00  0.00    +0.000 A 
ENDROOT
BRANCH   1   7
ATOM      7  C   UNL     1       6.262   4.156  16.776  0.00  0.00    +0.000 C 
BRANCH   7   8
ATOM      8  S   UNL     1       4.441   4.155  16.899  0.00  0.00    +0.000 S 
BRANCH   8  12
ATOM      9  C   UNL     1       3.479   2.796  20.312  0.00  0.00    +0.000 A 
ATOM     10  N   UNL     1       4.764   2.414  20.325  0.00  0.00    +0.000 NA
ATOM     11  N   UNL     1       5.189   2.895  19.144  0.00  0.00    +0.000 N 
ATOM     12  C   UNL     1       4.187   3.530  18.482  0.00  0.00    +0.000 A 
ATOM     13  N   UNL     1       3.090   3.502  19.197  0.00  0.00    +0.000 NA
ATOM     14  H   UNL     1       6.144   2.738  18.846  0.00  0.00    +0.000 HD
BRANCH   9  16
ATOM     15  C   UNL     1       1.232   3.222  21.300  0.00  0.00    +0.000 C 
ATOM     16  C   UNL     1       2.537   2.452  21.405  0.00  0.00    +0.000 C 
ENDBRANCH   9  16
ENDBRANCH   8  12
ENDBRANCH   7   8
ENDBRANCH   1   7
BRANCH   4  17
ATOM     17  O   UNL     1       8.749   8.820  18.930  0.00  0.00    +0.000 OA
BRANCH  17  18
ATOM     18  C   UNL     1       8.578   9.982  18.095  0.00  0.00    +0.000 C 
BRANCH  18  19
ATOM     19  C   UNL     1       9.588  11.083  18.408  0.00  0.00    +0.000 C 
ATOM     20  C   UNL     1       9.103  12.418  17.863  0.00  0.00    +0.000 C 
ATOM     21  C   UNL     1       9.805  11.168  19.924  0.00  0.00    +0.000 C 
ENDBRANCH  18  19
ENDBRANCH  17  18
ENDBRANCH   4  17
TORSDOF 7
ENDMDL
MODEL 6
REMARK VINA RESULT:      -6.6      3.988      7.843
REMARK  Name = 
REMARK  10 active torsions:
REMARK  status: ('A' for Active; 'I' for Inactive)
REMARK    1  A    between atoms: C_1  and  C_2
REMARK    2  A    between atoms: C_2  and  C_3
REMARK    3  A    between atoms: C_6  and  S_7
REMARK    4  A    between atoms: S_7  and  C_8
REMARK    5  A    between atoms: C_8  and  C_9
REMARK    6  A    between atoms: C_12  and  O_13
REMARK    7  A    between atoms: O_13  and  C_14
REMARK    8  A    between atoms: C_14  and  C_15
REMARK    9  A    between atoms: C_15  and  C_16
REMARK   10  A    between atoms: C_15  and  C_17
REMARK                            x       y       z     vdW  Elec       q    Type
REMARK                         _______ _______ _______ _____ _____    ______ ____
ROOT
ATOM      1  C   UNL     1       6.858   5.922  16.848  0.00  0.00    +0.000 A 
ATOM      2  C   UNL     1       7.447   4.800  16.273  0.00  0.00    +0.000 A 
ATOM      3  C   UNL     1       6.941   4.258  15.109  0.00  0.00    +0.000 A 
ATOM      4  C   UNL     1       5.784   4.762  14.513  0.00  0.00    +0.000 A 
ATOM      5  C   UNL     1       5.128   5.853  15.112  0.00  0.00    +0.000 A 
ATOM      6  C   UNL     1       5.669   6.421  16.272  0.00  0.00    +0.000 A 
ENDROOT
BRANCH   1   7
ATOM      7  C   UNL     1       7.448   6.576  18.073  0.00  0.00    +0.000 C 
BRANCH   7   8
ATOM      8  S   UNL     1       7.279   5.637  19.629  0.00  0.00    +0.000 S 
BRANCH   8  12
ATOM      9  C   UNL     1       3.681   4.503  19.196  0.00  0.00    +0.000 A 
ATOM     10  N   UNL     1       4.262   3.302  19.062  0.00  0.00    +0.000 NA
ATOM     11  N   UNL     1       5.556   3.620  19.237  0.00  0.00    +0.000 N 
ATOM     12  C   UNL     1       5.709   4.951  19.466  0.00  0.00    +0.000 A 
ATOM     13  N   UNL     1       4.541   5.543  19.463  0.00  0.00    +0.000 NA
ATOM     14  H   UNL     1       6.268   2.904  19.166  0.00  0.00    +0.000 HD
BRANCH   9  16
ATOM     15  C   UNL     1       1.429   4.104  20.185  0.00  0.00    +0.000 C 
ATOM     16  C   UNL     1       2.219   4.701  19.034  0.00  0.00    +0.000 C 
ENDBRANCH   9  16
ENDBRANCH   8  12
ENDBRANCH   7   8
ENDBRANCH   1   7
BRANCH   4  17
ATOM     17  O   UNL     1       5.262   4.215  13.358  0.00  0.00    +0.000 OA
BRANCH  17  18
ATOM     18  C   UNL     1       6.169   3.313  12.695  0.00  0.00    +0.000 C 
BRANCH  18  19
ATOM     19  C   UNL     1       5.610   2.784  11.377  0.00  0.00    +0.000 C 
ATOM     20  C   UNL     1       5.906   1.298  11.233  0.00  0.00    +0.000 C 
ATOM     21  C   UNL     1       4.099   3.040  11.316  0.00  0.00    +0.000 C 
ENDBRANCH  18  19
ENDBRANCH  17  18
ENDBRANCH   4  17
TORSDOF 7
ENDMDL
MODEL 7
REMARK VINA RESULT:      -6.6      0.793      1.345
REMARK  Name = 
REMARK  10 active torsions:
REMARK  status: ('A' for Active; 'I' for Inactive)
REMARK    1  A    between atoms: C_1  and  C_2
REMARK    2  A    between atoms: C_2  and  C_3
REMARK    3  A    between atoms: C_6  and  S_7
REMARK    4  A    between atoms: S_7  and  C_8
REMARK    5  A    between atoms: C_8  and  C_9
REMARK    6  A    between atoms: C_12  and  O_13
REMARK    7  A    between atoms: O_13  and  C_14
REMARK    8  A    between atoms: C_14  and  C_15
REMARK    9  A    between atoms: C_15  and  C_16
REMARK   10  A    between atoms: C_15  and  C_17
REMARK                            x       y       z     vdW  Elec       q    Type
REMARK                         _______ _______ _______ _____ _____    ______ ____
ROOT
ATOM      1  C   UNL     1       3.287   5.700  18.210  0.00  0.00    +0.000 A 
ATOM      2  C   UNL     1       2.978   4.982  19.361  0.00  0.00    +0.000 A 
ATOM      3  C   UNL     1       2.248   5.562  20.379  0.00  0.00    +0.000 A 
ATOM      4  C   UNL     1       1.863   6.903  20.327  0.00  0.00    +0.000 A 
ATOM      5  C   UNL     1       2.224   7.673  19.205  0.00  0.00    +0.000 A 
ATOM      6  C   UNL     1       2.932   7.066  18.160  0.00  0.00    +0.000 A 
ENDROOT
BRANCH   1   7
ATOM      7  C   UNL     1       4.012   5.055  17.055  0.00  0.00    +0.000 C 
BRANCH   7   8
ATOM      8  S   UNL     1       5.751   4.599  17.369  0.00  0.00    +0.000 S 
BRANCH   8  12
ATOM      9  C   UNL     1       6.877   4.433  13.746  0.00  0.00    +0.000 A 
ATOM     10  N   UNL     1       7.752   5.360  14.160  0.00  0.00    +0.000 NA
ATOM     11  N   UNL     1       7.434   5.453  15.463  0.00  0.00    +0.000 N 
ATOM     12  C   UNL     1       6.418   4.609  15.781  0.00  0.00    +0.000 A 
ATOM     13  N   UNL     1       6.047   3.933  14.723  0.00  0.00    +0.000 NA
ATOM     14  H   UNL     1       7.919   6.112  16.059  0.00  0.00    +0.000 HD
BRANCH   9  16
ATOM     15  C   UNL     1       5.563   3.145  12.066  0.00  0.00    +0.000 C 
ATOM     16  C   UNL     1       6.788   4.003  12.329  0.00  0.00    +0.000 C 
ENDBRANCH   9  16
ENDBRANCH   8  12
ENDBRANCH   7   8
ENDBRANCH   1   7
BRANCH   4  17
ATOM     17  O   UNL     1       1.149   7.496  21.347  0.00  0.00    +0.000 OA
BRANCH  17  18
ATOM     18  C   UNL     1       1.146   8.935  21.281  0.00  0.00    +0.000 C 
BRANCH  18  19
ATOM     19  C   UNL     1      -0.260   9.523  21.360  0.00  0.00    +0.000 C 
ATOM     20  C   UNL     1      -0.439  10.298  22.658  0.00  0.00    +0.000 C 
ATOM     21  C   UNL     1      -0.508  10.435  20.152  0.00  0.00    +0.000 C 
ENDBRANCH  18  19
ENDBRANCH  17  18
ENDBRANCH   4  17
TORSDOF 7
ENDMDL
MODEL 8
REMARK VINA RESULT:      -6.6      1.541      2.037
REMARK  Name = 
REMARK  10 active torsions:
REMARK  status: ('A' for Active; 'I' for Inactive)
REMARK    1  A    between atoms: C_1  and  C_2
REMARK    2  A    between atoms: C_2  and  C_3
REMARK    3  A    between atoms: C_6  and  S_7
REMARK    4  A    between atoms: S_7  and  C_8
REMARK    5  A    between atoms: C_8  and  C_9
REMARK    6  A    between atoms: C_12  and  O_13
REMARK    7  A    between atoms: O_13  and  C_14
REMARK    8  A    between atoms: C_14  and  C_15
REMARK    9  A    between atoms: C_15  and  C_16
REMARK   10  A    between atoms: C_15  and  C_17
REMARK                            x       y       z     vdW  Elec       q    Type
REMARK                         _______ _______ _______ _____ _____    ______ ____
ROOT
ATOM      1  C   UNL     1       3.797   5.639  17.861  0.00  0.00    +0.000 A 
ATOM      2  C   UNL     1       2.861   5.536  18.885  0.00  0.00    +0.000 A 
ATOM      3  C   UNL     1       2.120   6.634  19.274  0.00  0.00    +0.000 A 
ATOM      4  C   UNL     1       2.336   7.895  18.715  0.00  0.00    +0.000 A 
ATOM      5  C   UNL     1       3.327   8.041  17.727  0.00  0.00    +0.000 A 
ATOM      6  C   UNL     1       4.047   6.915  17.311  0.00  0.00    +0.000 A 
ENDROOT
BRANCH   1   7
ATOM      7  C   UNL     1       4.554   4.431  17.367  0.00  0.00    +0.000 C 
BRANCH   7   8
ATOM      8  S   UNL     1       6.374   4.568  17.408  0.00  0.00    +0.000 S 
BRANCH   8  12
ATOM      9  C   UNL     1       6.923   4.393  13.655  0.00  0.00    +0.000 A 
ATOM     10  N   UNL     1       7.704   5.456  13.898  0.00  0.00    +0.000 NA
ATOM     11  N   UNL     1       7.586   5.563  15.233  0.00  0.00    +0.000 N 
ATOM     12  C   UNL     1       6.771   4.597  15.734  0.00  0.00    +0.000 A 
ATOM     13  N   UNL     1       6.343   3.826  14.767  0.00  0.00    +0.000 NA
ATOM     14  H   UNL     1       8.055   6.313  15.725  0.00  0.00    +0.000 HD
BRANCH   9  16
ATOM     15  C   UNL     1       5.333   3.189  12.162  0.00  0.00    +0.000 C 
ATOM     16  C   UNL     1       6.676   3.887  12.283  0.00  0.00    +0.000 C 
ENDBRANCH   9  16
ENDBRANCH   8  12
ENDBRANCH   7   8
ENDBRANCH   1   7
BRANCH   4  17
ATOM     17  O   UNL     1       1.612   9.001  19.112  0.00  0.00    +0.000 OA
BRANCH  17  18
ATOM     18  C   UNL     1       0.792   9.551  18.063  0.00  0.00    +0.000 C 
BRANCH  18  19
ATOM     19  C   UNL     1      -0.471  10.220  18.597  0.00  0.00    +0.000 C 
ATOM     20  C   UNL     1      -0.204  11.686  18.907  0.00  0.00    +0.000 C 
ATOM     21  C   UNL     1      -1.603  10.086  17.570  0.00  0.00    +0.000 C 
ENDBRANCH  18  19
ENDBRANCH  17  18
ENDBRANCH   4  17
TORSDOF 7
ENDMDL
MODEL 9
REMARK VINA RESULT:      -6.5      3.081      3.737
REMARK  Name = 
REMARK  10 active torsions:
REMARK  status: ('A' for Active; 'I' for Inactive)
REMARK    1  A    between atoms: C_1  and  C_2
REMARK    2  A    between atoms: C_2  and  C_3
REMARK    3  A    between atoms: C_6  and  S_7
REMARK    4  A    between atoms: S_7  and  C_8
REMARK    5  A    between atoms: C_8  and  C_9
REMARK    6  A    between atoms: C_12  and  O_13
REMARK    7  A    between atoms: O_13  and  C_14
REMARK    8  A    between atoms: C_14  and  C_15
REMARK    9  A    between atoms: C_15  and  C_16
REMARK   10  A    between atoms: C_15  and  C_17
REMARK                            x       y       z     vdW  Elec       q    Type
REMARK                         _______ _______ _______ _____ _____    ______ ____
ROOT
ATOM      1  C   UNL     1       2.348   5.243  19.075  0.00  0.00    +0.000 A 
ATOM      2  C   UNL     1       1.949   5.760  20.303  0.00  0.00    +0.000 A 
ATOM      3  C   UNL     1       1.695   7.110  20.451  0.00  0.00    +0.000 A 
ATOM      4  C   UNL     1       1.905   8.009  19.404  0.00  0.00    +0.000 A 
ATOM      5  C   UNL     1       2.376   7.522  18.170  0.00  0.00    +0.000 A 
ATOM      6  C   UNL     1       2.594   6.147  18.018  0.00  0.00    +0.000 A 
ENDROOT
BRANCH   1   7
ATOM      7  C   UNL     1       2.548   3.761  18.876  0.00  0.00    +0.000 C 
BRANCH   7   8
ATOM      8  S   UNL     1       4.081   3.069  19.584  0.00  0.00    +0.000 S 
BRANCH   8  12
ATOM      9  C   UNL     1       6.842   5.404  18.426  0.00  0.00    +0.000 A 
ATOM     10  N   UNL     1       6.708   4.710  17.286  0.00  0.00    +0.000 NA
ATOM     11  N   UNL     1       5.710   3.871  17.610  0.00  0.00    +0.000 N 
ATOM     12  C   UNL     1       5.288   4.078  18.885  0.00  0.00    +0.000 A 
ATOM     13  N   UNL     1       5.971   5.052  19.431  0.00  0.00    +0.000 NA
ATOM     14  H   UNL     1       5.389   3.182  16.942  0.00  0.00    +0.000 HD
BRANCH   9  16
ATOM     15  C   UNL     1       7.695   7.607  17.636  0.00  0.00    +0.000 C 
ATOM     16  C   UNL     1       7.880   6.450  18.601  0.00  0.00    +0.000 C 
ENDBRANCH   9  16
ENDBRANCH   8  12
ENDBRANCH   7   8
ENDBRANCH   1   7
BRANCH   4  17
ATOM     17  O   UNL     1       1.671   9.361  19.548  0.00  0.00    +0.000 OA
BRANCH  17  18
ATOM     18  C   UNL     1       0.801   9.901  18.534  0.00  0.00    +0.000 C 
BRANCH  18  19
ATOM     19  C   UNL     1      -0.651   9.990  18.994  0.00  0.00    +0.000 C 
ATOM     20  C   UNL     1      -0.811  11.084  20.040  0.00  0.00    +0.000 C 
ATOM     21  C   UNL     1      -1.560  10.263  17.789  0.00  0.00    +0.000 C 
ENDBRANCH  18  19
ENDBRANCH  17  18
ENDBRANCH   4  17
TORSDOF 7
ENDMDL
