MODEL 1
REMARK VINA RESULT:      -6.0      0.000      0.000
REMARK  Name = 
REMARK  1 active torsions:
REMARK  status: ('A' for Active; 'I' for Inactive)
REMARK    1  A    between atoms: C_5  and  N_6
REMARK                            x       y       z     vdW  Elec       q    Type
REMARK                         _______ _______ _______ _____ _____    ______ ____
ROOT
ATOM      1 CL   UNL     1       0.650   3.066  19.906  0.00  0.00    +0.000 Cl
ATOM      2  C   UNL     1       2.164   3.391  19.158  0.00  0.00    +0.000 A 
ATOM      3  C   UNL     1       3.329   3.390  19.923  0.00  0.00    +0.000 A 
ATOM      4  C   UNL     1       4.563   3.660  19.324  0.00  0.00    +0.000 A 
ATOM      5  C   UNL     1       4.628   3.937  17.950  0.00  0.00    +0.000 A 
ATOM      6  C   UNL     1       3.449   3.931  17.185  0.00  0.00    +0.000 A 
ATOM      7  C   UNL     1       2.220   3.656  17.791  0.00  0.00    +0.000 A 
ENDROOT
BRANCH   5   8
ATOM      8  N   UNL     1       5.865   4.232  17.327  0.00  0.00    +0.000 N 
ATOM      9  C   UNL     1       6.149   4.433  16.000  0.00  0.00    +0.000 A 
ATOM     10  N   UNL     1       7.435   4.657  15.857  0.00  0.00    +0.000 NA
ATOM     11  N   UNL     1       7.963   4.602  17.119  0.00  0.00    +0.000 NA
ATOM     12  N   UNL     1       7.021   4.353  18.019  0.00  0.00    +0.000 NA
ENDBRANCH   5   8
TORSDOF 1
ENDMDL
MODEL 2
REMARK VINA RESULT:      -6.0      0.279      1.421
REMARK  Name = 
REMARK  1 active torsions:
REMARK  status: ('A' for Active; 'I' for Inactive)
REMARK    1  A    between atoms: C_5  and  N_6
REMARK                            x       y       z     vdW  Elec       q    Type
REMARK                         _______ _______ _______ _____ _____    ______ ____
ROOT
ATOM      1 CL   UNL     1       0.525   2.734  19.624  0.00  0.00    +0.000 Cl
ATOM      2  C   UNL     1       2.068   3.179  19.010  0.00  0.00    +0.000 A 
ATOM      3  C   UNL     1       2.188   3.620  17.693  0.00  0.00    +0.000 A 
ATOM      4  C   UNL     1       3.440   3.977  17.184  0.00  0.00    +0.000 A 
ATOM      5  C   UNL     1       4.579   3.887  17.998  0.00  0.00    +0.000 A 
ATOM      6  C   UNL     1       4.447   3.446  19.326  0.00  0.00    +0.000 A 
ATOM      7  C   UNL     1       3.191   3.094  19.829  0.00  0.00    +0.000 A 
ENDROOT
BRANCH   5   8
ATOM      8  N   UNL     1       5.859   4.225  17.496  0.00  0.00    +0.000 N 
ATOM      9  C   UNL     1       6.274   4.388  16.199  0.00  0.00    +0.000 A 
ATOM     10  N   UNL     1       7.556   4.677  16.183  0.00  0.00    +0.000 NA
ATOM     11  N   UNL     1       7.946   4.699  17.496  0.00  0.00    +0.000 NA
ATOM     12  N   UNL     1       6.926   4.435  18.301  0.00  0.00    +0.000 NA
ENDBRANCH   5   8
TORSDOF 1
ENDMDL
MODEL 3
REMARK VINA RESULT:      -5.9      1.577      1.853
REMARK  Name = 
REMARK  1 active torsions:
REMARK  status: ('A' for Active; 'I' for Inactive)
REMARK    1  A    between atoms: C_5  and  N_6
REMARK                            x       y       z     vdW  Elec       q    Type
REMARK                         _______ _______ _______ _____ _____    ______ ____
ROOT
ATOM      1 CL   UNL     1       0.655   2.488  18.677  0.00  0.00    +0.000 Cl
ATOM      2  C   UNL     1       2.046   3.358  18.161  0.00  0.00    +0.000 A 
ATOM      3  C   UNL     1       3.170   2.666  17.714  0.00  0.00    +0.000 A 
ATOM      4  C   UNL     1       4.307   3.367  17.300  0.00  0.00    +0.000 A 
ATOM      5  C   UNL     1       4.318   4.769  17.338  0.00  0.00    +0.000 A 
ATOM      6  C   UNL     1       3.178   5.458  17.786  0.00  0.00    +0.000 A 
ATOM      7  C   UNL     1       2.044   4.751  18.195  0.00  0.00    +0.000 A 
ENDROOT
BRANCH   5   8
ATOM      8  N   UNL     1       5.466   5.497  16.941  0.00  0.00    +0.000 N 
ATOM      9  C   UNL     1       5.813   6.796  17.213  0.00  0.00    +0.000 A 
ATOM     10  N   UNL     1       6.954   7.076  16.626  0.00  0.00    +0.000 NA
ATOM     11  N   UNL     1       7.329   5.927  15.981  0.00  0.00    +0.000 NA
ATOM     12  N   UNL     1       6.440   4.962  16.171  0.00  0.00    +0.000 NA
ENDBRANCH   5   8
TORSDOF 1
ENDMDL
MODEL 4
REMARK VINA RESULT:      -5.8      0.940      1.004
REMARK  Name = 
REMARK  1 active torsions:
REMARK  status: ('A' for Active; 'I' for Inactive)
REMARK    1  A    between atoms: C_5  and  N_6
REMARK                            x       y       z     vdW  Elec       q    Type
REMARK                         _______ _______ _______ _____ _____    ______ ____
ROOT
ATOM      1 CL   UNL     1       0.707   3.981  20.356  0.00  0.00    +0.000 Cl
ATOM      2  C   UNL     1       2.227   4.086  19.559  0.00  0.00    +0.000 A 
ATOM      3  C   UNL     1       3.025   2.950  19.437  0.00  0.00    +0.000 A 
ATOM      4  C   UNL     1       4.265   3.029  18.795  0.00  0.00    +0.000 A 
ATOM      5  C   UNL     1       4.709   4.255  18.278  0.00  0.00    +0.000 A 
ATOM      6  C   UNL     1       3.896   5.394  18.402  0.00  0.00    +0.000 A 
ATOM      7  C   UNL     1       2.656   5.306  19.041  0.00  0.00    +0.000 A 
ENDROOT
BRANCH   5   8
ATOM      8  N   UNL     1       5.970   4.361  17.642  0.00  0.00    +0.000 N 
ATOM      9  C   UNL     1       6.274   4.398  16.305  0.00  0.00    +0.000 A 
ATOM     10  N   UNL     1       7.577   4.478  16.155  0.00  0.00    +0.000 NA
ATOM     11  N   UNL     1       8.095   4.497  17.423  0.00  0.00    +0.000 NA
ATOM     12  N   UNL     1       7.132   4.435  18.332  0.00  0.00    +0.000 NA
ENDBRANCH   5   8
TORSDOF 1
ENDMDL
MODEL 5
REMARK VINA RESULT:      -5.8      1.149      1.233
REMARK  Name = 
REMARK  1 active torsions:
REMARK  status: ('A' for Active; 'I' for Inactive)
REMARK    1  A    between atoms: C_5  and  N_6
REMARK                            x       y       z     vdW  Elec       q    Type
REMARK                         _______ _______ _______ _____ _____    ______ ____
ROOT
ATOM      1 CL   UNL     1       1.001   3.588  20.398  0.00  0.00    +0.000 Cl
ATOM      2  C   UNL     1       2.378   3.992  19.452  0.00  0.00    +0.000 A 
ATOM      3  C   UNL     1       3.599   3.370  19.705  0.00  0.00    +0.000 A 
ATOM      4  C   UNL     1       4.726   3.698  18.944  0.00  0.00    +0.000 A 
ATOM      5  C   UNL     1       4.628   4.658  17.927  0.00  0.00    +0.000 A 
ATOM      6  C   UNL     1       3.391   5.278  17.675  0.00  0.00    +0.000 A 
ATOM      7  C   UNL     1       2.269   4.941  18.438  0.00  0.00    +0.000 A 
ENDROOT
BRANCH   5   8
ATOM      8  N   UNL     1       5.760   5.020  17.157  0.00  0.00    +0.000 N 
ATOM      9  C   UNL     1       6.341   6.250  16.982  0.00  0.00    +0.000 A 
ATOM     10  N   UNL     1       7.362   6.139  16.163  0.00  0.00    +0.000 NA
ATOM     11  N   UNL     1       7.424   4.813  15.826  0.00  0.00    +0.000 NA
ATOM     12  N   UNL     1       6.464   4.124  16.427  0.00  0.00    +0.000 NA
ENDBRANCH   5   8
TORSDOF 1
ENDMDL
MODEL 6
REMARK VINA RESULT:      -5.7      0.970      1.716
REMARK  Name = 
REMARK  1 active torsions:
REMARK  status: ('A' for Active; 'I' for Inactive)
REMARK    1  A    between atoms: C_5  and  N_6
REMARK                            x       y       z     vdW  Elec       q    Type
REMARK                         _______ _______ _______ _____ _____    ______ ____
ROOT
ATOM      1 CL   UNL     1       1.505   2.404  19.976  0.00  0.00    +0.000 Cl
ATOM      2  C   UNL     1       2.771   3.125  19.062  0.00  0.00    +0.000 A 
ATOM      3  C   UNL     1       2.552   3.474  17.731  0.00  0.00    +0.000 A 
ATOM      4  C   UNL     1       3.579   4.055  16.979  0.00  0.00    +0.000 A 
ATOM      5  C   UNL     1       4.832   4.282  17.565  0.00  0.00    +0.000 A 
ATOM      6  C   UNL     1       5.043   3.931  18.910  0.00  0.00    +0.000 A 
ATOM      7  C   UNL     1       4.010   3.355  19.655  0.00  0.00    +0.000 A 
ENDROOT
BRANCH   5   8
ATOM      8  N   UNL     1       5.892   4.851  16.817  0.00  0.00    +0.000 N 
ATOM      9  C   UNL     1       6.531   4.370  15.702  0.00  0.00    +0.000 A 
ATOM     10  N   UNL     1       7.476   5.208  15.344  0.00  0.00    +0.000 NA
ATOM     11  N   UNL     1       7.423   6.235  16.249  0.00  0.00    +0.000 NA
ATOM     12  N   UNL     1       6.462   6.034  17.141  0.00  0.00    +0.000 NA
ENDBRANCH   5   8
TORSDOF 1
ENDMDL
MODEL 7
REMARK VINA RESULT:      -5.7      1.297      1.331
REMARK  Name = 
REMARK  1 active torsions:
REMARK  status: ('A' for Active; 'I' for Inactive)
REMARK    1  A    between atoms: C_5  and  N_6
REMARK                            x       y       z     vdW  Elec       q    Type
REMARK                         _______ _______ _______ _____ _____    ______ ____
ROOT
ATOM      1 CL   UNL     1       1.025   3.442  20.089  0.00  0.00    +0.000 Cl
ATOM      2  C   UNL     1       2.405   3.967  19.208  0.00  0.00    +0.000 A 
ATOM      3  C   UNL     1       3.081   5.121  19.602  0.00  0.00    +0.000 A 
ATOM      4  C   UNL     1       4.200   5.558  18.887  0.00  0.00    +0.000 A 
ATOM      5  C   UNL     1       4.641   4.837  17.768  0.00  0.00    +0.000 A 
ATOM      6  C   UNL     1       3.957   3.672  17.380  0.00  0.00    +0.000 A 
ATOM      7  C   UNL     1       2.841   3.240  18.103  0.00  0.00    +0.000 A 
ENDROOT
BRANCH   5   8
ATOM      8  N   UNL     1       5.761   5.272  17.018  0.00  0.00    +0.000 N 
ATOM      9  C   UNL     1       6.392   4.669  15.959  0.00  0.00    +0.000 A 
ATOM     10  N   UNL     1       7.407   5.409  15.577  0.00  0.00    +0.000 NA
ATOM     11  N   UNL     1       7.406   6.497  16.408  0.00  0.00    +0.000 NA
ATOM     12  N   UNL     1       6.410   6.430  17.279  0.00  0.00    +0.000 NA
ENDBRANCH   5   8
TORSDOF 1
ENDMDL
MODEL 8
REMARK VINA RESULT:      -5.7      1.752      2.253
REMARK  Name = 
REMARK  1 active torsions:
REMARK  status: ('A' for Active; 'I' for Inactive)
REMARK    1  A    between atoms: C_5  and  N_6
REMARK                            x       y       z     vdW  Elec       q    Type
REMARK                         _______ _______ _______ _____ _____    ______ ____
ROOT
ATOM      1 CL   UNL     1       1.962   4.920  20.050  0.00  0.00    +0.000 Cl
ATOM      2  C   UNL     1       3.091   4.935  18.753  0.00  0.00    +0.000 A 
ATOM      3  C   UNL     1       3.374   3.755  18.068  0.00  0.00    +0.000 A 
ATOM      4  C   UNL     1       4.296   3.758  17.016  0.00  0.00    +0.000 A 
ATOM      5  C   UNL     1       4.941   4.950  16.654  0.00  0.00    +0.000 A 
ATOM      6  C   UNL     1       4.646   6.136  17.348  0.00  0.00    +0.000 A 
ATOM      7  C   UNL     1       3.720   6.125  18.395  0.00  0.00    +0.000 A 
ENDROOT
BRANCH   5   8
ATOM      8  N   UNL     1       5.892   4.971  15.605  0.00  0.00    +0.000 N 
ATOM      9  C   UNL     1       5.868   4.336  14.390  0.00  0.00    +0.000 A 
ATOM     10  N   UNL     1       6.970   4.611  13.730  0.00  0.00    +0.000 NA
ATOM     11  N   UNL     1       7.693   5.440  14.547  0.00  0.00    +0.000 NA
ATOM     12  N   UNL     1       7.047   5.671  15.681  0.00  0.00    +0.000 NA
ENDBRANCH   5   8
TORSDOF 1
ENDMDL
MODEL 9
REMARK VINA RESULT:      -5.7      1.389      2.040
REMARK  Name = 
REMARK  1 active torsions:
REMARK  status: ('A' for Active; 'I' for Inactive)
REMARK    1  A    between atoms: C_5  and  N_6
REMARK                            x       y       z     vdW  Elec       q    Type
REMARK                         _______ _______ _______ _____ _____    ______ ____
ROOT
ATOM      1 CL   UNL     1       1.101   4.426  20.420  0.00  0.00    +0.000 Cl
ATOM      2  C   UNL     1       2.381   4.581  19.282  0.00  0.00    +0.000 A 
ATOM      3  C   UNL     1       2.409   3.760  18.156  0.00  0.00    +0.000 A 
ATOM      4  C   UNL     1       3.450   3.875  17.229  0.00  0.00    +0.000 A 
ATOM      5  C   UNL     1       4.470   4.815  17.435  0.00  0.00    +0.000 A 
ATOM      6  C   UNL     1       4.431   5.642  18.571  0.00  0.00    +0.000 A 
ATOM      7  C   UNL     1       3.385   5.523  19.491  0.00  0.00    +0.000 A 
ENDROOT
BRANCH   5   8
ATOM      8  N   UNL     1       5.544   4.935  16.520  0.00  0.00    +0.000 N 
ATOM      9  C   UNL     1       6.841   4.504  16.632  0.00  0.00    +0.000 A 
ATOM     10  N   UNL     1       7.511   4.847  15.556  0.00  0.00    +0.000 NA
ATOM     11  N   UNL     1       6.614   5.499  14.754  0.00  0.00    +0.000 NA
ATOM     12  N   UNL     1       5.417   5.553  15.322  0.00  0.00    +0.000 NA
ENDBRANCH   5   8
TORSDOF 1
ENDMDL
