MODEL 1
REMARK VINA RESULT:      -8.1      0.000      0.000
REMARK  Name = 
REMARK  7 active torsions:
REMARK  status: ('A' for Active; 'I' for Inactive)
REMARK    1  A    between atoms: C_2  and  C_12
REMARK    2  A    between atoms: N_3  and  C_4
REMARK    3  A    between atoms: C_4  and  C_5
REMARK    4  A    between atoms: C_15  and  C_16
REMARK    5  A    between atoms: N_18  and  C_19
REMARK    6  A    between atoms: C_19  and  C_20
REMARK    7  A    between atoms: C_20  and  C_21
REMARK                            x       y       z     vdW  Elec       q    Type
REMARK                         _______ _______ _______ _____ _____    ______ ____
ROOT
ATOM      1  C   UNL     1       4.307   5.785  18.593  0.00  0.00    +0.000 A 
ATOM      2  C   UNL     1       3.563   5.298  19.642  0.00  0.00    +0.000 A 
ATOM      3  O   UNL     1       2.471   6.091  19.796  0.00  0.00    +0.000 OA
ATOM      4  C   UNL     1       2.586   7.029  18.803  0.00  0.00    +0.000 A 
ATOM      5  N   UNL     1       3.665   6.887  18.053  0.00  0.00    +0.000 NA
ENDROOT
BRANCH   1   7
ATOM      6  O   UNL     1       6.222   4.432  18.790  0.00  0.00    +0.000 OA
ATOM      7  C   UNL     1       5.571   5.233  18.132  0.00  0.00    +0.000 C 
ATOM      8  N   UNL     1       5.977   5.692  16.903  0.00  0.00    +0.000 N 
ATOM      9  H   UNL     1       5.401   6.359  16.396  0.00  0.00    +0.000 HD
BRANCH   8  10
ATOM     10  C   UNL     1       7.223   5.259  16.318  0.00  0.00    +0.000 C 
BRANCH  10  11
ATOM     11  C   UNL     1       7.108   4.872  14.865  0.00  0.00    +0.000 A 
ATOM     12  N   UNL     1       7.877   5.524  13.945  0.00  0.00    +0.000 NA
ATOM     13  C   UNL     1       7.730   5.154  12.652  0.00  0.00    +0.000 A 
ATOM     14  C   UNL     1       6.857   4.164  12.222  0.00  0.00    +0.000 A 
ATOM     15  C   UNL     1       6.085   3.507  13.174  0.00  0.00    +0.000 A 
ATOM     16  C   UNL     1       6.216   3.866  14.508  0.00  0.00    +0.000 A 
ATOM     17  F   UNL     1       5.476   3.241  15.436  0.00  0.00    +0.000 F 
ENDBRANCH  10  11
ENDBRANCH   8  10
ENDBRANCH   1   7
BRANCH   4  18
ATOM     18  C   UNL     1       1.555   8.110  18.554  0.00  0.00    +0.000 C 
ATOM     19  C   UNL     1       1.334   9.067  19.747  0.00  0.00    +0.000 C 
ATOM     20  N   UNL     1       1.330  10.227  18.819  0.00  0.00    +0.000 NA
ATOM     21  C   UNL     1       2.106   9.384  17.863  0.00  0.00    +0.000 C 
BRANCH  20  22
ATOM     22  C   UNL     1      -0.018  10.507  18.281  0.00  0.00    +0.000 C 
BRANCH  22  23
ATOM     23  C   UNL     1      -0.626  11.782  18.883  0.00  0.00    +0.000 C 
BRANCH  23  24
ATOM     24  C   UNL     1      -2.109  11.784  18.775  0.00  0.00    +0.000 A 
ATOM     25  N   UNL     1      -2.839  11.057  17.951  0.00  0.00    +0.000 NA
ATOM     26  C   UNL     1      -4.144  11.359  18.253  0.00  0.00    +0.000 A 
ATOM     27  C   UNL     1      -5.332  10.875  17.688  0.00  0.00    +0.000 A 
ATOM     28  C   UNL     1      -6.552  11.350  18.186  0.00  0.00    +0.000 A 
ATOM     29  C   UNL     1      -6.587  12.281  19.228  0.00  0.00    +0.000 A 
ATOM     30  C   UNL     1      -5.411  12.771  19.807  0.00  0.00    +0.000 A 
ATOM     31  C   UNL     1      -4.211  12.287  19.286  0.00  0.00    +0.000 A 
ATOM     32  N   UNL     1      -2.902  12.543  19.596  0.00  0.00    +0.000 N 
ATOM     33  H   UNL     1      -2.576  13.172  20.315  0.00  0.00    +0.000 HD
ENDBRANCH  23  24
ENDBRANCH  22  23
ENDBRANCH  20  22
ENDBRANCH   4  18
TORSDOF 7
ENDMDL
MODEL 2
REMARK VINA RESULT:      -8.0      3.062     11.023
REMARK  Name = 
REMARK  7 active torsions:
REMARK  status: ('A' for Active; 'I' for Inactive)
REMARK    1  A    between atoms: C_2  and  C_12
REMARK    2  A    between atoms: N_3  and  C_4
REMARK    3  A    between atoms: C_4  and  C_5
REMARK    4  A    between atoms: C_15  and  C_16
REMARK    5  A    between atoms: N_18  and  C_19
REMARK    6  A    between atoms: C_19  and  C_20
REMARK    7  A    between atoms: C_20  and  C_21
REMARK                            x       y       z     vdW  Elec       q    Type
REMARK                         _______ _______ _______ _____ _____    ______ ____
ROOT
ATOM      1  C   UNL     1       1.050   9.177  19.766  0.00  0.00    +0.000 A 
ATOM      2  C   UNL     1       0.891   8.592  21.001  0.00  0.00    +0.000 A 
ATOM      3  O   UNL     1       1.595   7.431  21.017  0.00  0.00    +0.000 OA
ATOM      4  C   UNL     1       2.184   7.369  19.780  0.00  0.00    +0.000 A 
ATOM      5  N   UNL     1       1.891   8.392  18.995  0.00  0.00    +0.000 NA
ENDROOT
BRANCH   1   7
ATOM      6  O   UNL     1       1.023  11.272  18.695  0.00  0.00    +0.000 OA
ATOM      7  C   UNL     1       0.425  10.419  19.337  0.00  0.00    +0.000 C 
ATOM      8  N   UNL     1      -0.886  10.557  19.720  0.00  0.00    +0.000 N 
ATOM      9  H   UNL     1      -1.337   9.820  20.256  0.00  0.00    +0.000 HD
BRANCH   8  10
ATOM     10  C   UNL     1      -1.638  11.745  19.395  0.00  0.00    +0.000 C 
BRANCH  10  11
ATOM     11  C   UNL     1      -2.622  11.549  18.268  0.00  0.00    +0.000 A 
ATOM     12  N   UNL     1      -2.154  11.183  17.040  0.00  0.00    +0.000 NA
ATOM     13  C   UNL     1      -3.071  11.033  16.056  0.00  0.00    +0.000 A 
ATOM     14  C   UNL     1      -4.435  11.227  16.229  0.00  0.00    +0.000 A 
ATOM     15  C   UNL     1      -4.893  11.596  17.490  0.00  0.00    +0.000 A 
ATOM     16  C   UNL     1      -3.975  11.756  18.517  0.00  0.00    +0.000 A 
ATOM     17  F   UNL     1      -4.403  12.113  19.737  0.00  0.00    +0.000 F 
ENDBRANCH  10  11
ENDBRANCH   8  10
ENDBRANCH   1   7
BRANCH   4  18
ATOM     18  C   UNL     1       3.116   6.254  19.355  0.00  0.00    +0.000 C 
ATOM     19  C   UNL     1       2.639   5.461  18.118  0.00  0.00    +0.000 C 
ATOM     20  N   UNL     1       4.019   5.489  17.566  0.00  0.00    +0.000 NA
ATOM     21  C   UNL     1       4.264   6.695  18.411  0.00  0.00    +0.000 C 
BRANCH  20  22
ATOM     22  C   UNL     1       4.834   4.352  18.042  0.00  0.00    +0.000 C 
BRANCH  22  23
ATOM     23  C   UNL     1       6.313   4.502  17.658  0.00  0.00    +0.000 C 
BRANCH  23  24
ATOM     24  C   UNL     1       6.508   4.407  16.187  0.00  0.00    +0.000 A 
ATOM     25  N   UNL     1       5.885   3.588  15.362  0.00  0.00    +0.000 NA
ATOM     26  C   UNL     1       6.352   3.903  14.110  0.00  0.00    +0.000 A 
ATOM     27  C   UNL     1       6.029   3.347  12.864  0.00  0.00    +0.000 A 
ATOM     28  C   UNL     1       6.655   3.857  11.721  0.00  0.00    +0.000 A 
ATOM     29  C   UNL     1       7.578   4.902  11.816  0.00  0.00    +0.000 A 
ATOM     30  C   UNL     1       7.910   5.472  13.050  0.00  0.00    +0.000 A 
ATOM     31  C   UNL     1       7.277   4.939  14.173  0.00  0.00    +0.000 A 
ATOM     32  N   UNL     1       7.360   5.238  15.506  0.00  0.00    +0.000 N 
ATOM     33  H   UNL     1       7.938   5.956  15.917  0.00  0.00    +0.000 HD
ENDBRANCH  23  24
ENDBRANCH  22  23
ENDBRANCH  20  22
ENDBRANCH   4  18
TORSDOF 7
ENDMDL
MODEL 3
REMARK VINA RESULT:      -8.0      3.284      4.439
REMARK  Name = 
REMARK  7 active torsions:
REMARK  status: ('A' for Active; 'I' for Inactive)
REMARK    1  A    between atoms: C_2  and  C_12
REMARK    2  A    between atoms: N_3  and  C_4
REMARK    3  A    between atoms: C_4  and  C_5
REMARK    4  A    between atoms: C_15  and  C_16
REMARK    5  A    between atoms: N_18  and  C_19
REMARK    6  A    between atoms: C_19  and  C_20
REMARK    7  A    between atoms: C_20  and  C_21
REMARK                            x       y       z     vdW  Elec       q    Type
REMARK                         _______ _______ _______ _____ _____    ______ ____
ROOT
ATOM      1  C   UNL     1       1.999   7.272  19.992  0.00  0.00    +0.000 A 
ATOM      2  C   UNL     1       2.212   8.248  19.047  0.00  0.00    +0.000 A 
ATOM      3  O   UNL     1       1.396   9.298  19.326  0.00  0.00    +0.000 OA
ATOM      4  C   UNL     1       0.728   8.921  20.463  0.00  0.00    +0.000 A 
ATOM      5  N   UNL     1       1.056   7.718  20.903  0.00  0.00    +0.000 NA
ENDROOT
BRANCH   1   7
ATOM      6  O   UNL     1       2.282   5.063  20.749  0.00  0.00    +0.000 OA
ATOM      7  C   UNL     1       2.656   5.975  20.023  0.00  0.00    +0.000 C 
ATOM      8  N   UNL     1       3.732   5.862  19.178  0.00  0.00    +0.000 N 
ATOM      9  H   UNL     1       4.003   6.651  18.597  0.00  0.00    +0.000 HD
BRANCH   8  10
ATOM     10  C   UNL     1       4.505   4.646  19.111  0.00  0.00    +0.000 C 
BRANCH  10  11
ATOM     11  C   UNL     1       5.343   4.529  17.863  0.00  0.00    +0.000 A 
ATOM     12  N   UNL     1       6.664   4.867  17.920  0.00  0.00    +0.000 NA
ATOM     13  C   UNL     1       7.373   4.759  16.773  0.00  0.00    +0.000 A 
ATOM     14  C   UNL     1       6.837   4.330  15.566  0.00  0.00    +0.000 A 
ATOM     15  C   UNL     1       5.490   3.985  15.528  0.00  0.00    +0.000 A 
ATOM     16  C   UNL     1       4.740   4.086  16.690  0.00  0.00    +0.000 A 
ATOM     17  F   UNL     1       3.439   3.758  16.667  0.00  0.00    +0.000 F 
ENDBRANCH  10  11
ENDBRANCH   8  10
ENDBRANCH   1   7
BRANCH   4  18
ATOM     18  C   UNL     1      -0.268   9.809  21.177  0.00  0.00    +0.000 C 
ATOM     19  C   UNL     1      -0.103   9.845  22.713  0.00  0.00    +0.000 C 
ATOM     20  N   UNL     1      -0.291  11.319  22.701  0.00  0.00    +0.000 NA
ATOM     21  C   UNL     1       0.148  11.300  21.275  0.00  0.00    +0.000 C 
BRANCH  20  22
ATOM     22  C   UNL     1      -1.716  11.701  22.796  0.00  0.00    +0.000 C 
BRANCH  22  23
ATOM     23  C   UNL     1      -1.908  13.036  23.530  0.00  0.00    +0.000 C 
BRANCH  23  24
ATOM     24  C   UNL     1      -3.347  13.385  23.663  0.00  0.00    +0.000 A 
ATOM     25  N   UNL     1      -3.880  14.585  23.542  0.00  0.00    +0.000 NA
ATOM     26  C   UNL     1      -5.233  14.403  23.692  0.00  0.00    +0.000 A 
ATOM     27  C   UNL     1      -6.276  15.339  23.655  0.00  0.00    +0.000 A 
ATOM     28  C   UNL     1      -7.588  14.887  23.838  0.00  0.00    +0.000 A 
ATOM     29  C   UNL     1      -7.856  13.532  24.048  0.00  0.00    +0.000 A 
ATOM     30  C   UNL     1      -6.829  12.582  24.084  0.00  0.00    +0.000 A 
ATOM     31  C   UNL     1      -5.531  13.062  23.906  0.00  0.00    +0.000 A 
ATOM     32  N   UNL     1      -4.313  12.438  23.887  0.00  0.00    +0.000 N 
ATOM     33  H   UNL     1      -4.152  11.447  24.003  0.00  0.00    +0.000 HD
ENDBRANCH  23  24
ENDBRANCH  22  23
ENDBRANCH  20  22
ENDBRANCH   4  18
TORSDOF 7
ENDMDL
MODEL 4
REMARK VINA RESULT:      -8.0      6.725      9.985
REMARK  Name = 
REMARK  7 active torsions:
REMARK  status: ('A' for Active; 'I' for Inactive)
REMARK    1  A    between atoms: C_2  and  C_12
REMARK    2  A    between atoms: N_3  and  C_4
REMARK    3  A    between atoms: C_4  and  C_5
REMARK    4  A    between atoms: C_15  and  C_16
REMARK    5  A    between atoms: N_18  and  C_19
REMARK    6  A    between atoms: C_19  and  C_20
REMARK    7  A    between atoms: C_20  and  C_21
REMARK                            x       y       z     vdW  Elec       q    Type
REMARK                         _______ _______ _______ _____ _____    ______ ____
ROOT
ATOM      1  C   UNL     1       8.793  10.752  18.230  0.00  0.00    +0.000 A 
ATOM      2  C   UNL     1       9.251  10.068  19.332  0.00  0.00    +0.000 A 
ATOM      3  O   UNL     1       8.903   8.762  19.200  0.00  0.00    +0.000 OA
ATOM      4  C   UNL     1       8.259   8.699  17.991  0.00  0.00    +0.000 A 
ATOM      5  N   UNL     1       8.170   9.863  17.370  0.00  0.00    +0.000 NA
ENDROOT
BRANCH   1   7
ATOM      6  O   UNL     1      10.009  12.761  18.100  0.00  0.00    +0.000 OA
ATOM      7  C   UNL     1       8.935  12.182  18.010  0.00  0.00    +0.000 C 
ATOM      8  N   UNL     1       7.763  12.828  17.703  0.00  0.00    +0.000 N 
ATOM      9  H   UNL     1       6.896  12.302  17.642  0.00  0.00    +0.000 HD
BRANCH   8  10
ATOM     10  C   UNL     1       7.732  14.254  17.481  0.00  0.00    +0.000 C 
BRANCH  10  11
ATOM     11  C   UNL     1       7.035  15.023  18.575  0.00  0.00    +0.000 A 
ATOM     12  N   UNL     1       7.770  15.490  19.625  0.00  0.00    +0.000 NA
ATOM     13  C   UNL     1       7.101  16.162  20.590  0.00  0.00    +0.000 A 
ATOM     14  C   UNL     1       5.733  16.396  20.567  0.00  0.00    +0.000 A 
ATOM     15  C   UNL     1       5.000  15.916  19.486  0.00  0.00    +0.000 A 
ATOM     16  C   UNL     1       5.662  15.224  18.482  0.00  0.00    +0.000 A 
ATOM     17  F   UNL     1       4.967  14.754  17.435  0.00  0.00    +0.000 F 
ENDBRANCH  10  11
ENDBRANCH   8  10
ENDBRANCH   1   7
BRANCH   4  18
ATOM     18  C   UNL     1       7.728   7.412  17.396  0.00  0.00    +0.000 C 
ATOM     19  C   UNL     1       7.516   6.276  18.421  0.00  0.00    +0.000 C 
ATOM     20  N   UNL     1       6.210   5.949  17.791  0.00  0.00    +0.000 NA
ATOM     21  C   UNL     1       6.184   7.347  17.269  0.00  0.00    +0.000 C 
BRANCH  20  22
ATOM     22  C   UNL     1       6.352   4.986  16.678  0.00  0.00    +0.000 C 
BRANCH  22  23
ATOM     23  C   UNL     1       5.010   4.344  16.297  0.00  0.00    +0.000 C 
BRANCH  23  24
ATOM     24  C   UNL     1       4.169   4.085  17.495  0.00  0.00    +0.000 A 
ATOM     25  N   UNL     1       2.922   4.475  17.680  0.00  0.00    +0.000 NA
ATOM     26  C   UNL     1       2.554   3.959  18.899  0.00  0.00    +0.000 A 
ATOM     27  C   UNL     1       1.338   4.063  19.588  0.00  0.00    +0.000 A 
ATOM     28  C   UNL     1       1.218   3.433  20.833  0.00  0.00    +0.000 A 
ATOM     29  C   UNL     1       2.284   2.710  21.376  0.00  0.00    +0.000 A 
ATOM     30  C   UNL     1       3.504   2.592  20.700  0.00  0.00    +0.000 A 
ATOM     31  C   UNL     1       3.597   3.236  19.466  0.00  0.00    +0.000 A 
ATOM     32  N   UNL     1       4.613   3.336  18.554  0.00  0.00    +0.000 N 
ATOM     33  H   UNL     1       5.529   2.919  18.638  0.00  0.00    +0.000 HD
ENDBRANCH  23  24
ENDBRANCH  22  23
ENDBRANCH  20  22
ENDBRANCH   4  18
TORSDOF 7
ENDMDL
MODEL 5
REMARK VINA RESULT:      -7.9      2.167      3.608
REMARK  Name = 
REMARK  7 active torsions:
REMARK  status: ('A' for Active; 'I' for Inactive)
REMARK    1  A    between atoms: C_2  and  C_12
REMARK    2  A    between atoms: N_3  and  C_4
REMARK    3  A    between atoms: C_4  and  C_5
REMARK    4  A    between atoms: C_15  and  C_16
REMARK    5  A    between atoms: N_18  and  C_19
REMARK    6  A    between atoms: C_19  and  C_20
REMARK    7  A    between atoms: C_20  and  C_21
REMARK                            x       y       z     vdW  Elec       q    Type
REMARK                         _______ _______ _______ _____ _____    ______ ____
ROOT
ATOM      1  C   UNL     1       1.917   7.886  19.532  0.00  0.00    +0.000 A 
ATOM      2  C   UNL     1       2.000   8.585  18.350  0.00  0.00    +0.000 A 
ATOM      3  O   UNL     1       1.440   9.808  18.537  0.00  0.00    +0.000 OA
ATOM      4  C   UNL     1       1.055   9.812  19.853  0.00  0.00    +0.000 A 
ATOM      5  N   UNL     1       1.321   8.686  20.493  0.00  0.00    +0.000 NA
ENDROOT
BRANCH   1   7
ATOM      6  O   UNL     1       1.826   5.748  20.508  0.00  0.00    +0.000 OA
ATOM      7  C   UNL     1       2.375   6.521  19.735  0.00  0.00    +0.000 C 
ATOM      8  N   UNL     1       3.478   6.176  18.994  0.00  0.00    +0.000 N 
ATOM      9  H   UNL     1       3.900   6.856  18.367  0.00  0.00    +0.000 HD
BRANCH   8  10
ATOM     10  C   UNL     1       4.070   4.864  19.102  0.00  0.00    +0.000 C 
BRANCH  10  11
ATOM     11  C   UNL     1       5.239   4.648  18.173  0.00  0.00    +0.000 A 
ATOM     12  N   UNL     1       6.503   4.854  18.643  0.00  0.00    +0.000 NA
ATOM     13  C   UNL     1       7.519   4.662  17.770  0.00  0.00    +0.000 A 
ATOM     14  C   UNL     1       7.345   4.273  16.449  0.00  0.00    +0.000 A 
ATOM     15  C   UNL     1       6.049   4.063  15.989  0.00  0.00    +0.000 A 
ATOM     16  C   UNL     1       4.988   4.252  16.863  0.00  0.00    +0.000 A 
ATOM     17  F   UNL     1       3.734   4.054  16.432  0.00  0.00    +0.000 F 
ENDBRANCH  10  11
ENDBRANCH   8  10
ENDBRANCH   1   7
BRANCH   4  18
ATOM     18  C   UNL     1       0.416  11.005  20.531  0.00  0.00    +0.000 C 
ATOM     19  C   UNL     1      -0.778  11.613  19.762  0.00  0.00    +0.000 C 
ATOM     20  N   UNL     1      -1.540  11.731  21.032  0.00  0.00    +0.000 NA
ATOM     21  C   UNL     1      -0.669  10.650  21.581  0.00  0.00    +0.000 C 
BRANCH  20  22
ATOM     22  C   UNL     1      -1.273  13.009  21.727  0.00  0.00    +0.000 C 
BRANCH  22  23
ATOM     23  C   UNL     1      -2.568  13.758  22.072  0.00  0.00    +0.000 C 
BRANCH  23  24
ATOM     24  C   UNL     1      -3.738  13.185  21.355  0.00  0.00    +0.000 A 
ATOM     25  N   UNL     1      -4.744  12.522  21.895  0.00  0.00    +0.000 NA
ATOM     26  C   UNL     1      -5.598  12.243  20.856  0.00  0.00    +0.000 A 
ATOM     27  C   UNL     1      -6.822  11.560  20.859  0.00  0.00    +0.000 A 
ATOM     28  C   UNL     1      -7.507  11.410  19.647  0.00  0.00    +0.000 A 
ATOM     29  C   UNL     1      -6.987  11.933  18.460  0.00  0.00    +0.000 A 
ATOM     30  C   UNL     1      -5.768  12.620  18.439  0.00  0.00    +0.000 A 
ATOM     31  C   UNL     1      -5.104  12.749  19.659  0.00  0.00    +0.000 A 
ATOM     32  N   UNL     1      -3.919  13.339  20.005  0.00  0.00    +0.000 N 
ATOM     33  H   UNL     1      -3.290  13.819  19.377  0.00  0.00    +0.000 HD
ENDBRANCH  23  24
ENDBRANCH  22  23
ENDBRANCH  20  22
ENDBRANCH   4  18
TORSDOF 7
ENDMDL
MODEL 6
REMARK VINA RESULT:      -7.9      4.710     11.238
REMARK  Name = 
REMARK  7 active torsions:
REMARK  status: ('A' for Active; 'I' for Inactive)
REMARK    1  A    between atoms: C_2  and  C_12
REMARK    2  A    between atoms: N_3  and  C_4
REMARK    3  A    between atoms: C_4  and  C_5
REMARK    4  A    between atoms: C_15  and  C_16
REMARK    5  A    between atoms: N_18  and  C_19
REMARK    6  A    between atoms: C_19  and  C_20
REMARK    7  A    between atoms: C_20  and  C_21
REMARK                            x       y       z     vdW  Elec       q    Type
REMARK                         _______ _______ _______ _____ _____    ______ ____
ROOT
ATOM      1  C   UNL     1      -1.815  11.529  18.518  0.00  0.00    +0.000 A 
ATOM      2  C   UNL     1      -1.134  12.320  19.413  0.00  0.00    +0.000 A 
ATOM      3  O   UNL     1       0.143  11.866  19.499  0.00  0.00    +0.000 OA
ATOM      4  C   UNL     1       0.194  10.816  18.619  0.00  0.00    +0.000 A 
ATOM      5  N   UNL     1      -0.952  10.576  18.004  0.00  0.00    +0.000 NA
ENDROOT
BRANCH   1   7
ATOM      6  O   UNL     1      -3.672  11.333  17.086  0.00  0.00    +0.000 OA
ATOM      7  C   UNL     1      -3.221  11.669  18.173  0.00  0.00    +0.000 C 
ATOM      8  N   UNL     1      -3.998  12.215  19.165  0.00  0.00    +0.000 N 
ATOM      9  H   UNL     1      -3.575  12.480  20.051  0.00  0.00    +0.000 HD
BRANCH   8  10
ATOM     10  C   UNL     1      -5.409  12.443  18.969  0.00  0.00    +0.000 C 
BRANCH  10  11
ATOM     11  C   UNL     1      -6.287  11.399  19.613  0.00  0.00    +0.000 A 
ATOM     12  N   UNL     1      -6.302  10.137  19.094  0.00  0.00    +0.000 NA
ATOM     13  C   UNL     1      -7.115   9.238  19.696  0.00  0.00    +0.000 A 
ATOM     14  C   UNL     1      -7.916   9.527  20.792  0.00  0.00    +0.000 A 
ATOM     15  C   UNL     1      -7.884  10.818  21.310  0.00  0.00    +0.000 A 
ATOM     16  C   UNL     1      -7.059  11.760  20.713  0.00  0.00    +0.000 A 
ATOM     17  F   UNL     1      -7.019  13.008  21.202  0.00  0.00    +0.000 F 
ENDBRANCH  10  11
ENDBRANCH   8  10
ENDBRANCH   1   7
BRANCH   4  18
ATOM     18  C   UNL     1       1.452  10.022  18.341  0.00  0.00    +0.000 C 
ATOM     19  C   UNL     1       1.801   8.979  19.427  0.00  0.00    +0.000 C 
ATOM     20  N   UNL     1       2.122   7.984  18.371  0.00  0.00    +0.000 NA
ATOM     21  C   UNL     1       1.243   8.766  17.454  0.00  0.00    +0.000 C 
BRANCH  20  22
ATOM     22  C   UNL     1       3.531   8.071  17.931  0.00  0.00    +0.000 C 
BRANCH  22  23
ATOM     23  C   UNL     1       4.168   6.684  17.758  0.00  0.00    +0.000 C 
BRANCH  23  24
ATOM     24  C   UNL     1       3.388   5.633  18.464  0.00  0.00    +0.000 A 
ATOM     25  N   UNL     1       2.711   4.648  17.906  0.00  0.00    +0.000 NA
ATOM     26  C   UNL     1       2.207   3.912  18.950  0.00  0.00    +0.000 A 
ATOM     27  C   UNL     1       1.414   2.756  18.935  0.00  0.00    +0.000 A 
ATOM     28  C   UNL     1       1.029   2.191  20.157  0.00  0.00    +0.000 A 
ATOM     29  C   UNL     1       1.431   2.763  21.368  0.00  0.00    +0.000 A 
ATOM     30  C   UNL     1       2.225   3.914  21.403  0.00  0.00    +0.000 A 
ATOM     31  C   UNL     1       2.587   4.459  20.171  0.00  0.00    +0.000 A 
ATOM     32  N   UNL     1       3.334   5.555  19.831  0.00  0.00    +0.000 N 
ATOM     33  H   UNL     1       3.781   6.190  20.477  0.00  0.00    +0.000 HD
ENDBRANCH  23  24
ENDBRANCH  22  23
ENDBRANCH  20  22
ENDBRANCH   4  18
TORSDOF 7
ENDMDL
MODEL 7
REMARK VINA RESULT:      -7.9      3.507     10.523
REMARK  Name = 
REMARK  7 active torsions:
REMARK  status: ('A' for Active; 'I' for Inactive)
REMARK    1  A    between atoms: C_2  and  C_12
REMARK    2  A    between atoms: N_3  and  C_4
REMARK    3  A    between atoms: C_4  and  C_5
REMARK    4  A    between atoms: C_15  and  C_16
REMARK    5  A    between atoms: N_18  and  C_19
REMARK    6  A    between atoms: C_19  and  C_20
REMARK    7  A    between atoms: C_20  and  C_21
REMARK                            x       y       z     vdW  Elec       q    Type
REMARK                         _______ _______ _______ _____ _____    ______ ____
ROOT
ATOM      1  C   UNL     1       0.794   9.703  20.320  0.00  0.00    +0.000 A 
ATOM      2  C   UNL     1       0.933   9.736  21.688  0.00  0.00    +0.000 A 
ATOM      3  O   UNL     1       1.411   8.533  22.098  0.00  0.00    +0.000 OA
ATOM      4  C   UNL     1       1.569   7.814  20.941  0.00  0.00    +0.000 A 
ATOM      5  N   UNL     1       1.216   8.471  19.849  0.00  0.00    +0.000 NA
ENDROOT
BRANCH   1   7
ATOM      6  O   UNL     1       0.968  11.394  18.694  0.00  0.00    +0.000 OA
ATOM      7  C   UNL     1       0.276  10.788  19.502  0.00  0.00    +0.000 C 
ATOM      8  N   UNL     1      -1.048  11.080  19.717  0.00  0.00    +0.000 N 
ATOM      9  H   UNL     1      -1.579  10.548  20.401  0.00  0.00    +0.000 HD
BRANCH   8  10
ATOM     10  C   UNL     1      -1.703  12.148  19.001  0.00  0.00    +0.000 C 
BRANCH  10  11
ATOM     11  C   UNL     1      -2.571  11.672  17.863  0.00  0.00    +0.000 A 
ATOM     12  N   UNL     1      -1.976  11.265  16.704  0.00  0.00    +0.000 NA
ATOM     13  C   UNL     1      -2.794  10.860  15.706  0.00  0.00    +0.000 A 
ATOM     14  C   UNL     1      -4.179  10.836  15.799  0.00  0.00    +0.000 A 
ATOM     15  C   UNL     1      -4.768  11.250  16.989  0.00  0.00    +0.000 A 
ATOM     16  C   UNL     1      -3.952  11.670  18.029  0.00  0.00    +0.000 A 
ATOM     17  F   UNL     1      -4.507  12.074  19.182  0.00  0.00    +0.000 F 
ENDBRANCH  10  11
ENDBRANCH   8  10
ENDBRANCH   1   7
BRANCH   4  18
ATOM     18  C   UNL     1       2.131   6.409  20.904  0.00  0.00    +0.000 C 
ATOM     19  C   UNL     1       1.118   5.329  20.461  0.00  0.00    +0.000 C 
ATOM     20  N   UNL     1       2.155   4.707  19.597  0.00  0.00    +0.000 NA
ATOM     21  C   UNL     1       2.844   6.032  19.579  0.00  0.00    +0.000 C 
BRANCH  20  22
ATOM     22  C   UNL     1       2.971   3.714  20.328  0.00  0.00    +0.000 C 
BRANCH  22  23
ATOM     23  C   UNL     1       3.500   2.609  19.403  0.00  0.00    +0.000 C 
BRANCH  23  24
ATOM     24  C   UNL     1       4.341   3.166  18.312  0.00  0.00    +0.000 A 
ATOM     25  N   UNL     1       4.006   3.283  17.041  0.00  0.00    +0.000 NA
ATOM     26  C   UNL     1       5.075   3.896  16.435  0.00  0.00    +0.000 A 
ATOM     27  C   UNL     1       5.259   4.263  15.094  0.00  0.00    +0.000 A 
ATOM     28  C   UNL     1       6.458   4.887  14.729  0.00  0.00    +0.000 A 
ATOM     29  C   UNL     1       7.450   5.144  15.680  0.00  0.00    +0.000 A 
ATOM     30  C   UNL     1       7.282   4.789  17.023  0.00  0.00    +0.000 A 
ATOM     31  C   UNL     1       6.081   4.163  17.356  0.00  0.00    +0.000 A 
ATOM     32  N   UNL     1       5.590   3.684  18.541  0.00  0.00    +0.000 N 
ATOM     33  H   UNL     1       6.059   3.719  19.435  0.00  0.00    +0.000 HD
ENDBRANCH  23  24
ENDBRANCH  22  23
ENDBRANCH  20  22
ENDBRANCH   4  18
TORSDOF 7
ENDMDL
MODEL 8
REMARK VINA RESULT:      -7.9      6.661     10.078
REMARK  Name = 
REMARK  7 active torsions:
REMARK  status: ('A' for Active; 'I' for Inactive)
REMARK    1  A    between atoms: C_2  and  C_12
REMARK    2  A    between atoms: N_3  and  C_4
REMARK    3  A    between atoms: C_4  and  C_5
REMARK    4  A    between atoms: C_15  and  C_16
REMARK    5  A    between atoms: N_18  and  C_19
REMARK    6  A    between atoms: C_19  and  C_20
REMARK    7  A    between atoms: C_20  and  C_21
REMARK                            x       y       z     vdW  Elec       q    Type
REMARK                         _______ _______ _______ _____ _____    ______ ____
ROOT
ATOM      1  C   UNL     1       8.827  10.939  18.335  0.00  0.00    +0.000 A 
ATOM      2  C   UNL     1       9.312  10.244  19.418  0.00  0.00    +0.000 A 
ATOM      3  O   UNL     1       8.984   8.935  19.268  0.00  0.00    +0.000 OA
ATOM      4  C   UNL     1       8.324   8.883  18.067  0.00  0.00    +0.000 A 
ATOM      5  N   UNL     1       8.207  10.055  17.468  0.00  0.00    +0.000 NA
ENDROOT
BRANCH   1   7
ATOM      6  O   UNL     1       9.980  12.990  18.346  0.00  0.00    +0.000 OA
ATOM      7  C   UNL     1       8.942  12.376  18.138  0.00  0.00    +0.000 C 
ATOM      8  N   UNL     1       7.789  12.984  17.709  0.00  0.00    +0.000 N 
ATOM      9  H   UNL     1       6.951  12.429  17.552  0.00  0.00    +0.000 HD
BRANCH   8  10
ATOM     10  C   UNL     1       7.732  14.410  17.492  0.00  0.00    +0.000 C 
BRANCH  10  11
ATOM     11  C   UNL     1       6.700  15.111  18.338  0.00  0.00    +0.000 A 
ATOM     12  N   UNL     1       5.391  15.066  17.956  0.00  0.00    +0.000 NA
ATOM     13  C   UNL     1       4.502  15.722  18.738  0.00  0.00    +0.000 A 
ATOM     14  C   UNL     1       4.847  16.422  19.887  0.00  0.00    +0.000 A 
ATOM     15  C   UNL     1       6.186  16.453  20.263  0.00  0.00    +0.000 A 
ATOM     16  C   UNL     1       7.118  15.789  19.479  0.00  0.00    +0.000 A 
ATOM     17  F   UNL     1       8.413  15.812  19.830  0.00  0.00    +0.000 F 
ENDBRANCH  10  11
ENDBRANCH   8  10
ENDBRANCH   1   7
BRANCH   4  18
ATOM     18  C   UNL     1       7.807   7.598  17.456  0.00  0.00    +0.000 C 
ATOM     19  C   UNL     1       7.670   6.427  18.454  0.00  0.00    +0.000 C 
ATOM     20  N   UNL     1       6.350   6.078  17.869  0.00  0.00    +0.000 NA
ATOM     21  C   UNL     1       6.261   7.489  17.390  0.00  0.00    +0.000 C 
BRANCH  20  22
ATOM     22  C   UNL     1       6.473   5.152  16.723  0.00  0.00    +0.000 C 
BRANCH  22  23
ATOM     23  C   UNL     1       5.118   4.554  16.317  0.00  0.00    +0.000 C 
BRANCH  23  24
ATOM     24  C   UNL     1       4.272   4.263  17.504  0.00  0.00    +0.000 A 
ATOM     25  N   UNL     1       3.060   4.728  17.740  0.00  0.00    +0.000 NA
ATOM     26  C   UNL     1       2.666   4.145  18.920  0.00  0.00    +0.000 A 
ATOM     27  C   UNL     1       1.469   4.284  19.635  0.00  0.00    +0.000 A 
ATOM     28  C   UNL     1       1.315   3.567  20.828  0.00  0.00    +0.000 A 
ATOM     29  C   UNL     1       2.329   2.727  21.295  0.00  0.00    +0.000 A 
ATOM     30  C   UNL     1       3.529   2.573  20.592  0.00  0.00    +0.000 A 
ATOM     31  C   UNL     1       3.658   3.304  19.411  0.00  0.00    +0.000 A 
ATOM     32  N   UNL     1       4.669   3.401  18.494  0.00  0.00    +0.000 N 
ATOM     33  H   UNL     1       5.552   2.911  18.530  0.00  0.00    +0.000 HD
ENDBRANCH  23  24
ENDBRANCH  22  23
ENDBRANCH  20  22
ENDBRANCH   4  18
TORSDOF 7
ENDMDL
MODEL 9
REMARK VINA RESULT:      -7.8      3.102     10.723
REMARK  Name = 
REMARK  7 active torsions:
REMARK  status: ('A' for Active; 'I' for Inactive)
REMARK    1  A    between atoms: C_2  and  C_12
REMARK    2  A    between atoms: N_3  and  C_4
REMARK    3  A    between atoms: C_4  and  C_5
REMARK    4  A    between atoms: C_15  and  C_16
REMARK    5  A    between atoms: N_18  and  C_19
REMARK    6  A    between atoms: C_19  and  C_20
REMARK    7  A    between atoms: C_20  and  C_21
REMARK                            x       y       z     vdW  Elec       q    Type
REMARK                         _______ _______ _______ _____ _____    ______ ____
ROOT
ATOM      1  C   UNL     1       0.838   9.682  20.204  0.00  0.00    +0.000 A 
ATOM      2  C   UNL     1       0.767   9.670  21.578  0.00  0.00    +0.000 A 
ATOM      3  O   UNL     1       1.207   8.463  22.017  0.00  0.00    +0.000 OA
ATOM      4  C   UNL     1       1.556   7.788  20.876  0.00  0.00    +0.000 A 
ATOM      5  N   UNL     1       1.357   8.476  19.764  0.00  0.00    +0.000 NA
ENDROOT
BRANCH   1   7
ATOM      6  O   UNL     1       1.224  11.488  18.746  0.00  0.00    +0.000 OA
ATOM      7  C   UNL     1       0.424  10.785  19.351  0.00  0.00    +0.000 C 
ATOM      8  N   UNL     1      -0.933  10.976  19.287  0.00  0.00    +0.000 N 
ATOM      9  H   UNL     1      -1.555  10.366  19.811  0.00  0.00    +0.000 HD
BRANCH   8  10
ATOM     10  C   UNL     1      -1.502  12.046  18.503  0.00  0.00    +0.000 C 
BRANCH  10  11
ATOM     11  C   UNL     1      -2.967  11.863  18.200  0.00  0.00    +0.000 A 
ATOM     12  N   UNL     1      -3.881  12.109  19.182  0.00  0.00    +0.000 NA
ATOM     13  C   UNL     1      -5.184  11.917  18.869  0.00  0.00    +0.000 A 
ATOM     14  C   UNL     1      -5.628  11.493  17.624  0.00  0.00    +0.000 A 
ATOM     15  C   UNL     1      -4.682  11.252  16.633  0.00  0.00    +0.000 A 
ATOM     16  C   UNL     1      -3.340  11.440  16.927  0.00  0.00    +0.000 A 
ATOM     17  F   UNL     1      -2.417  11.210  15.981  0.00  0.00    +0.000 F 
ENDBRANCH  10  11
ENDBRANCH   8  10
ENDBRANCH   1   7
BRANCH   4  18
ATOM     18  C   UNL     1       2.151   6.396  20.880  0.00  0.00    +0.000 C 
ATOM     19  C   UNL     1       1.146   5.272  20.546  0.00  0.00    +0.000 C 
ATOM     20  N   UNL     1       2.153   4.630  19.662  0.00  0.00    +0.000 NA
ATOM     21  C   UNL     1       2.805   5.968  19.541  0.00  0.00    +0.000 C 
BRANCH  20  22
ATOM     22  C   UNL     1       3.030   3.695  20.399  0.00  0.00    +0.000 C 
BRANCH  22  23
ATOM     23  C   UNL     1       3.596   2.596  19.488  0.00  0.00    +0.000 C 
BRANCH  23  24
ATOM     24  C   UNL     1       4.404   3.169  18.379  0.00  0.00    +0.000 A 
ATOM     25  N   UNL     1       4.041   3.278  17.116  0.00  0.00    +0.000 NA
ATOM     26  C   UNL     1       5.085   3.911  16.487  0.00  0.00    +0.000 A 
ATOM     27  C   UNL     1       5.234   4.280  15.143  0.00  0.00    +0.000 A 
ATOM     28  C   UNL     1       6.413   4.926  14.753  0.00  0.00    +0.000 A 
ATOM     29  C   UNL     1       7.419   5.204  15.682  0.00  0.00    +0.000 A 
ATOM     30  C   UNL     1       7.286   4.846  17.029  0.00  0.00    +0.000 A 
ATOM     31  C   UNL     1       6.105   4.198  17.387  0.00  0.00    +0.000 A 
ATOM     32  N   UNL     1       5.647   3.711  18.582  0.00  0.00    +0.000 N 
ATOM     33  H   UNL     1       6.134   3.756  19.466  0.00  0.00    +0.000 HD
ENDBRANCH  23  24
ENDBRANCH  22  23
ENDBRANCH  20  22
ENDBRANCH   4  18
TORSDOF 7
ENDMDL
