MODEL 1
REMARK VINA RESULT:      -7.5      0.000      0.000
REMARK  Name = 
REMARK  5 active torsions:
REMARK  status: ('A' for Active; 'I' for Inactive)
REMARK    1  A    between atoms: C_1  and  N_2
REMARK    2  A    between atoms: N_2  and  C_3
REMARK    3  A    between atoms: C_3  and  C_4
REMARK    4  A    between atoms: C_10  and  C_12
REMARK    5  A    between atoms: C_14  and  O_15
REMARK                            x       y       z     vdW  Elec       q    Type
REMARK                         _______ _______ _______ _____ _____    ______ ____
ROOT
ATOM      1  C   UNL     1       5.335   4.646  19.137  0.00  0.00    +0.000 A 
ATOM      2  C   UNL     1       5.330   3.360  18.601  0.00  0.00    +0.000 A 
ATOM      3  C   UNL     1       4.131   2.650  18.520  0.00  0.00    +0.000 A 
ATOM      4  C   UNL     1       2.945   3.137  19.101  0.00  0.00    +0.000 A 
ATOM      5  C   UNL     1       1.733   2.419  19.076  0.00  0.00    +0.000 A 
ATOM      6  C   UNL     1       0.594   2.905  19.716  0.00  0.00    +0.000 A 
ATOM      7  C   UNL     1       0.642   4.123  20.385  0.00  0.00    +0.000 A 
ATOM      8  C   UNL     1       1.822   4.867  20.394  0.00  0.00    +0.000 A 
ATOM      9  C   UNL     1       2.978   4.390  19.752  0.00  0.00    +0.000 A 
ATOM     10  C   UNL     1       4.167   5.139  19.740  0.00  0.00    +0.000 A 
ENDROOT
BRANCH   1  13
ATOM     11  C   UNL     1       8.115   7.097  18.212  0.00  0.00    +0.000 C 
ATOM     12  N   UNL     1       6.867   6.354  18.058  0.00  0.00    +0.000 N 
ATOM     13  C   UNL     1       6.533   5.528  19.141  0.00  0.00    +0.000 C 
ATOM     14  O   UNL     1       7.199   5.535  20.179  0.00  0.00    +0.000 OA
BRANCH  12  15
ATOM     15  C   UNL     1       6.205   6.463  16.750  0.00  0.00    +0.000 C 
BRANCH  15  16
ATOM     16  C   UNL     1       6.435   5.308  15.758  0.00  0.00    +0.000 C 
ATOM     17  C   UNL     1       5.135   4.765  15.168  0.00  0.00    +0.000 C 
ATOM     18  C   UNL     1       5.455   3.665  14.159  0.00  0.00    +0.000 C 
ATOM     19  C   UNL     1       6.461   4.162  13.125  0.00  0.00    +0.000 C 
ATOM     20  C   UNL     1       7.677   4.778  13.802  0.00  0.00    +0.000 C 
ATOM     21  O   UNL     1       7.287   5.806  14.713  0.00  0.00    +0.000 OA
ENDBRANCH  15  16
ENDBRANCH  12  15
ENDBRANCH   1  13
BRANCH   3  22
ATOM     22  O   UNL     1       4.107   1.456  17.846  0.00  0.00    +0.000 OA
ATOM     23  H   UNL     1       4.865   0.918  18.129  0.00  0.00    +0.000 HD
ENDBRANCH   3  22
TORSDOF 4
ENDMDL
MODEL 2
REMARK VINA RESULT:      -7.3      3.553      6.031
REMARK  Name = 
REMARK  5 active torsions:
REMARK  status: ('A' for Active; 'I' for Inactive)
REMARK    1  A    between atoms: C_1  and  N_2
REMARK    2  A    between atoms: N_2  and  C_3
REMARK    3  A    between atoms: C_3  and  C_4
REMARK    4  A    between atoms: C_10  and  C_12
REMARK    5  A    between atoms: C_14  and  O_15
REMARK                            x       y       z     vdW  Elec       q    Type
REMARK                         _______ _______ _______ _____ _____    ______ ____
ROOT
ATOM      1  C   UNL     1       3.256   7.106  18.178  0.00  0.00    +0.000 A 
ATOM      2  C   UNL     1       2.862   8.220  17.439  0.00  0.00    +0.000 A 
ATOM      3  C   UNL     1       2.041   9.183  18.025  0.00  0.00    +0.000 A 
ATOM      4  C   UNL     1       1.472   8.992  19.299  0.00  0.00    +0.000 A 
ATOM      5  C   UNL     1       0.601   9.926  19.893  0.00  0.00    +0.000 A 
ATOM      6  C   UNL     1       0.009   9.673  21.130  0.00  0.00    +0.000 A 
ATOM      7  C   UNL     1       0.284   8.487  21.800  0.00  0.00    +0.000 A 
ATOM      8  C   UNL     1       1.170   7.563  21.246  0.00  0.00    +0.000 A 
ATOM      9  C   UNL     1       1.776   7.804  20.000  0.00  0.00    +0.000 A 
ATOM     10  C   UNL     1       2.683   6.888  19.441  0.00  0.00    +0.000 A 
ENDROOT
BRANCH   1  13
ATOM     11  C   UNL     1       4.975   3.923  16.950  0.00  0.00    +0.000 C 
ATOM     12  N   UNL     1       3.868   4.790  17.347  0.00  0.00    +0.000 N 
ATOM     13  C   UNL     1       4.235   6.100  17.686  0.00  0.00    +0.000 C 
ATOM     14  O   UNL     1       5.394   6.497  17.539  0.00  0.00    +0.000 OA
BRANCH  12  15
ATOM     15  C   UNL     1       2.552   4.146  17.471  0.00  0.00    +0.000 C 
BRANCH  15  16
ATOM     16  C   UNL     1       2.297   3.331  18.752  0.00  0.00    +0.000 C 
ATOM     17  C   UNL     1       3.465   3.388  19.734  0.00  0.00    +0.000 C 
ATOM     18  C   UNL     1       3.109   2.603  20.994  0.00  0.00    +0.000 C 
ATOM     19  C   UNL     1       1.778   3.081  21.565  0.00  0.00    +0.000 C 
ATOM     20  C   UNL     1       0.697   3.087  20.493  0.00  0.00    +0.000 C 
ATOM     21  O   UNL     1       1.107   3.858  19.362  0.00  0.00    +0.000 OA
ENDBRANCH  15  16
ENDBRANCH  12  15
ENDBRANCH   1  13
BRANCH   3  22
ATOM     22  O   UNL     1       1.792  10.349  17.348  0.00  0.00    +0.000 OA
ATOM     23  H   UNL     1       2.499  10.987  17.544  0.00  0.00    +0.000 HD
ENDBRANCH   3  22
TORSDOF 4
ENDMDL
MODEL 3
REMARK VINA RESULT:      -7.1      3.528      4.917
REMARK  Name = 
REMARK  5 active torsions:
REMARK  status: ('A' for Active; 'I' for Inactive)
REMARK    1  A    between atoms: C_1  and  N_2
REMARK    2  A    between atoms: N_2  and  C_3
REMARK    3  A    between atoms: C_3  and  C_4
REMARK    4  A    between atoms: C_10  and  C_12
REMARK    5  A    between atoms: C_14  and  O_15
REMARK                            x       y       z     vdW  Elec       q    Type
REMARK                         _______ _______ _______ _____ _____    ______ ____
ROOT
ATOM      1  C   UNL     1       2.123   6.185  19.712  0.00  0.00    +0.000 A 
ATOM      2  C   UNL     1       2.274   6.843  18.494  0.00  0.00    +0.000 A 
ATOM      3  C   UNL     1       2.037   8.216  18.417  0.00  0.00    +0.000 A 
ATOM      4  C   UNL     1       1.504   8.935  19.503  0.00  0.00    +0.000 A 
ATOM      5  C   UNL     1       1.210  10.311  19.436  0.00  0.00    +0.000 A 
ATOM      6  C   UNL     1       0.625  10.976  20.513  0.00  0.00    +0.000 A 
ATOM      7  C   UNL     1       0.333  10.281  21.681  0.00  0.00    +0.000 A 
ATOM      8  C   UNL     1       0.647   8.925  21.782  0.00  0.00    +0.000 A 
ATOM      9  C   UNL     1       1.238   8.241  20.705  0.00  0.00    +0.000 A 
ATOM     10  C   UNL     1       1.574   6.880  20.801  0.00  0.00    +0.000 A 
ENDROOT
BRANCH   1  13
ATOM     11  C   UNL     1       3.931   2.825  19.906  0.00  0.00    +0.000 C 
ATOM     12  N   UNL     1       3.781   4.265  19.717  0.00  0.00    +0.000 N 
ATOM     13  C   UNL     1       2.483   4.756  19.923  0.00  0.00    +0.000 C 
ATOM     14  O   UNL     1       1.583   4.025  20.344  0.00  0.00    +0.000 OA
BRANCH  12  15
ATOM     15  C   UNL     1       4.961   4.979  19.208  0.00  0.00    +0.000 C 
BRANCH  15  16
ATOM     16  C   UNL     1       5.570   4.464  17.892  0.00  0.00    +0.000 C 
ATOM     17  C   UNL     1       4.688   4.748  16.679  0.00  0.00    +0.000 C 
ATOM     18  C   UNL     1       5.387   4.255  15.414  0.00  0.00    +0.000 C 
ATOM     19  C   UNL     1       6.796   4.833  15.321  0.00  0.00    +0.000 C 
ATOM     20  C   UNL     1       7.568   4.593  16.610  0.00  0.00    +0.000 C 
ATOM     21  O   UNL     1       6.850   5.100  17.736  0.00  0.00    +0.000 OA
ENDBRANCH  15  16
ENDBRANCH  12  15
ENDBRANCH   1  13
BRANCH   3  22
ATOM     22  O   UNL     1       2.342   8.881  17.257  0.00  0.00    +0.000 OA
ATOM     23  H   UNL     1       3.134   9.426  17.403  0.00  0.00    +0.000 HD
ENDBRANCH   3  22
TORSDOF 4
ENDMDL
MODEL 4
REMARK VINA RESULT:      -7.1      4.157      6.531
REMARK  Name = 
REMARK  5 active torsions:
REMARK  status: ('A' for Active; 'I' for Inactive)
REMARK    1  A    between atoms: C_1  and  N_2
REMARK    2  A    between atoms: N_2  and  C_3
REMARK    3  A    between atoms: C_3  and  C_4
REMARK    4  A    between atoms: C_10  and  C_12
REMARK    5  A    between atoms: C_14  and  O_15
REMARK                            x       y       z     vdW  Elec       q    Type
REMARK                         _______ _______ _______ _____ _____    ______ ____
ROOT
ATOM      1  C   UNL     1       2.357   7.969  18.442  0.00  0.00    +0.000 A 
ATOM      2  C   UNL     1       1.563   8.879  17.748  0.00  0.00    +0.000 A 
ATOM      3  C   UNL     1       0.730   9.748  18.454  0.00  0.00    +0.000 A 
ATOM      4  C   UNL     1       0.555   9.634  19.846  0.00  0.00    +0.000 A 
ATOM      5  C   UNL     1      -0.316  10.467  20.575  0.00  0.00    +0.000 A 
ATOM      6  C   UNL     1      -0.511  10.284  21.944  0.00  0.00    +0.000 A 
ATOM      7  C   UNL     1       0.170   9.272  22.611  0.00  0.00    +0.000 A 
ATOM      8  C   UNL     1       1.064   8.457  21.915  0.00  0.00    +0.000 A 
ATOM      9  C   UNL     1       1.271   8.630  20.535  0.00  0.00    +0.000 A 
ATOM     10  C   UNL     1       2.181   7.827  19.828  0.00  0.00    +0.000 A 
ENDROOT
BRANCH   1  13
ATOM     11  C   UNL     1       4.341   5.015  17.053  0.00  0.00    +0.000 C 
ATOM     12  N   UNL     1       3.212   5.712  17.662  0.00  0.00    +0.000 N 
ATOM     13  C   UNL     1       3.372   7.100  17.787  0.00  0.00    +0.000 C 
ATOM     14  O   UNL     1       4.351   7.676  17.306  0.00  0.00    +0.000 OA
BRANCH  12  15
ATOM     15  C   UNL     1       2.129   4.864  18.182  0.00  0.00    +0.000 C 
BRANCH  15  16
ATOM     16  C   UNL     1       2.338   4.253  19.580  0.00  0.00    +0.000 C 
ATOM     17  C   UNL     1       1.025   3.919  20.283  0.00  0.00    +0.000 C 
ATOM     18  C   UNL     1       1.321   3.270  21.633  0.00  0.00    +0.000 C 
ATOM     19  C   UNL     1       2.267   2.085  21.461  0.00  0.00    +0.000 C 
ATOM     20  C   UNL     1       3.500   2.484  20.663  0.00  0.00    +0.000 C 
ATOM     21  O   UNL     1       3.129   3.064  19.411  0.00  0.00    +0.000 OA
ENDBRANCH  15  16
ENDBRANCH  12  15
ENDBRANCH   1  13
BRANCH   3  22
ATOM     22  O   UNL     1       0.077  10.745  17.774  0.00  0.00    +0.000 OA
ATOM     23  H   UNL     1       0.489  11.598  17.991  0.00  0.00    +0.000 HD
ENDBRANCH   3  22
TORSDOF 4
ENDMDL
MODEL 5
REMARK VINA RESULT:      -7.0      2.538      6.134
REMARK  Name = 
REMARK  5 active torsions:
REMARK  status: ('A' for Active; 'I' for Inactive)
REMARK    1  A    between atoms: C_1  and  N_2
REMARK    2  A    between atoms: N_2  and  C_3
REMARK    3  A    between atoms: C_3  and  C_4
REMARK    4  A    between atoms: C_10  and  C_12
REMARK    5  A    between atoms: C_14  and  O_15
REMARK                            x       y       z     vdW  Elec       q    Type
REMARK                         _______ _______ _______ _____ _____    ______ ____
ROOT
ATOM      1  C   UNL     1       4.087   3.640  18.466  0.00  0.00    +0.000 A 
ATOM      2  C   UNL     1       5.268   4.026  19.095  0.00  0.00    +0.000 A 
ATOM      3  C   UNL     1       6.318   4.544  18.336  0.00  0.00    +0.000 A 
ATOM      4  C   UNL     1       6.278   4.551  16.929  0.00  0.00    +0.000 A 
ATOM      5  C   UNL     1       7.345   5.023  16.139  0.00  0.00    +0.000 A 
ATOM      6  C   UNL     1       7.294   4.957  14.747  0.00  0.00    +0.000 A 
ATOM      7  C   UNL     1       6.172   4.428  14.119  0.00  0.00    +0.000 A 
ATOM      8  C   UNL     1       5.090   3.986  14.881  0.00  0.00    +0.000 A 
ATOM      9  C   UNL     1       5.126   4.047  16.286  0.00  0.00    +0.000 A 
ATOM     10  C   UNL     1       4.036   3.621  17.062  0.00  0.00    +0.000 A 
ENDROOT
BRANCH   1  13
ATOM     11  C   UNL     1       1.054   3.427  20.778  0.00  0.00    +0.000 C 
ATOM     12  N   UNL     1       2.187   4.046  20.096  0.00  0.00    +0.000 N 
ATOM     13  C   UNL     1       2.869   3.207  19.202  0.00  0.00    +0.000 C 
ATOM     14  O   UNL     1       2.452   2.075  18.944  0.00  0.00    +0.000 OA
BRANCH  12  15
ATOM     15  C   UNL     1       2.544   5.403  20.532  0.00  0.00    +0.000 C 
BRANCH  15  16
ATOM     16  C   UNL     1       1.945   6.571  19.727  0.00  0.00    +0.000 C 
ATOM     17  C   UNL     1       1.667   7.802  20.585  0.00  0.00    +0.000 C 
ATOM     18  C   UNL     1       1.128   8.926  19.703  0.00  0.00    +0.000 C 
ATOM     19  C   UNL     1       2.062   9.175  18.523  0.00  0.00    +0.000 C 
ATOM     20  C   UNL     1       2.365   7.878  17.786  0.00  0.00    +0.000 C 
ATOM     21  O   UNL     1       2.880   6.892  18.683  0.00  0.00    +0.000 OA
ENDBRANCH  15  16
ENDBRANCH  12  15
ENDBRANCH   1  13
BRANCH   3  22
ATOM     22  O   UNL     1       7.410   5.069  18.979  0.00  0.00    +0.000 OA
ATOM     23  H   UNL     1       7.107   5.604  19.732  0.00  0.00    +0.000 HD
ENDBRANCH   3  22
TORSDOF 4
ENDMDL
MODEL 6
REMARK VINA RESULT:      -7.0      3.472      5.450
REMARK  Name = 
REMARK  5 active torsions:
REMARK  status: ('A' for Active; 'I' for Inactive)
REMARK    1  A    between atoms: C_1  and  N_2
REMARK    2  A    between atoms: N_2  and  C_3
REMARK    3  A    between atoms: C_3  and  C_4
REMARK    4  A    between atoms: C_10  and  C_12
REMARK    5  A    between atoms: C_14  and  O_15
REMARK                            x       y       z     vdW  Elec       q    Type
REMARK                         _______ _______ _______ _____ _____    ______ ____
ROOT
ATOM      1  C   UNL     1       2.000   6.378  18.578  0.00  0.00    +0.000 A 
ATOM      2  C   UNL     1       1.993   7.445  17.681  0.00  0.00    +0.000 A 
ATOM      3  C   UNL     1       1.818   8.745  18.157  0.00  0.00    +0.000 A 
ATOM      4  C   UNL     1       1.499   9.001  19.504  0.00  0.00    +0.000 A 
ATOM      5  C   UNL     1       1.269  10.300  19.998  0.00  0.00    +0.000 A 
ATOM      6  C   UNL     1       0.895  10.510  21.325  0.00  0.00    +0.000 A 
ATOM      7  C   UNL     1       0.752   9.426  22.184  0.00  0.00    +0.000 A 
ATOM      8  C   UNL     1       1.008   8.134  21.725  0.00  0.00    +0.000 A 
ATOM      9  C   UNL     1       1.387   7.907  20.390  0.00  0.00    +0.000 A 
ATOM     10  C   UNL     1       1.663   6.612  19.921  0.00  0.00    +0.000 A 
ENDROOT
BRANCH   1  13
ATOM     11  C   UNL     1       3.626   2.954  18.107  0.00  0.00    +0.000 C 
ATOM     12  N   UNL     1       3.444   4.295  18.655  0.00  0.00    +0.000 N 
ATOM     13  C   UNL     1       2.314   4.978  18.183  0.00  0.00    +0.000 C 
ATOM     14  O   UNL     1       1.491   4.422  17.452  0.00  0.00    +0.000 OA
BRANCH  12  15
ATOM     15  C   UNL     1       4.528   4.798  19.511  0.00  0.00    +0.000 C 
BRANCH  15  16
ATOM     16  C   UNL     1       5.837   5.202  18.807  0.00  0.00    +0.000 C 
ATOM     17  C   UNL     1       5.666   6.405  17.883  0.00  0.00    +0.000 C 
ATOM     18  C   UNL     1       7.016   6.772  17.271  0.00  0.00    +0.000 C 
ATOM     19  C   UNL     1       8.067   6.956  18.361  0.00  0.00    +0.000 C 
ATOM     20  C   UNL     1       8.097   5.754  19.295  0.00  0.00    +0.000 C 
ATOM     21  O   UNL     1       6.800   5.495  19.834  0.00  0.00    +0.000 OA
ENDBRANCH  15  16
ENDBRANCH  12  15
ENDBRANCH   1  13
BRANCH   3  22
ATOM     22  O   UNL     1       1.973   9.797  17.292  0.00  0.00    +0.000 OA
ATOM     23  H   UNL     1       2.144   9.452  16.400  0.00  0.00    +0.000 HD
ENDBRANCH   3  22
TORSDOF 4
ENDMDL
MODEL 7
REMARK VINA RESULT:      -7.0      3.607      4.979
REMARK  Name = 
REMARK  5 active torsions:
REMARK  status: ('A' for Active; 'I' for Inactive)
REMARK    1  A    between atoms: C_1  and  N_2
REMARK    2  A    between atoms: N_2  and  C_3
REMARK    3  A    between atoms: C_3  and  C_4
REMARK    4  A    between atoms: C_10  and  C_12
REMARK    5  A    between atoms: C_14  and  O_15
REMARK                            x       y       z     vdW  Elec       q    Type
REMARK                         _______ _______ _______ _____ _____    ______ ____
ROOT
ATOM      1  C   UNL     1       2.254   6.439  19.397  0.00  0.00    +0.000 A 
ATOM      2  C   UNL     1       2.255   7.240  18.257  0.00  0.00    +0.000 A 
ATOM      3  C   UNL     1       1.907   8.588  18.360  0.00  0.00    +0.000 A 
ATOM      4  C   UNL     1       1.409   9.132  19.559  0.00  0.00    +0.000 A 
ATOM      5  C   UNL     1       1.005  10.476  19.676  0.00  0.00    +0.000 A 
ATOM      6  C   UNL     1       0.459  10.964  20.863  0.00  0.00    +0.000 A 
ATOM      7  C   UNL     1       0.316  10.119  21.958  0.00  0.00    +0.000 A 
ATOM      8  C   UNL     1       0.742   8.793  21.875  0.00  0.00    +0.000 A 
ATOM      9  C   UNL     1       1.295   8.287  20.685  0.00  0.00    +0.000 A 
ATOM     10  C   UNL     1       1.742   6.958  20.596  0.00  0.00    +0.000 A 
ENDROOT
BRANCH   1  13
ATOM     11  C   UNL     1       4.387   3.270  19.318  0.00  0.00    +0.000 C 
ATOM     12  N   UNL     1       4.102   4.702  19.367  0.00  0.00    +0.000 N 
ATOM     13  C   UNL     1       2.740   5.032  19.410  0.00  0.00    +0.000 C 
ATOM     14  O   UNL     1       1.874   4.160  19.518  0.00  0.00    +0.000 OA
BRANCH  12  15
ATOM     15  C   UNL     1       5.258   5.599  19.224  0.00  0.00    +0.000 C 
BRANCH  15  16
ATOM     16  C   UNL     1       5.880   5.711  17.821  0.00  0.00    +0.000 C 
ATOM     17  C   UNL     1       6.974   4.676  17.571  0.00  0.00    +0.000 C 
ATOM     18  C   UNL     1       7.496   4.821  16.144  0.00  0.00    +0.000 C 
ATOM     19  C   UNL     1       6.344   4.778  15.145  0.00  0.00    +0.000 C 
ATOM     20  C   UNL     1       5.255   5.770  15.528  0.00  0.00    +0.000 C 
ATOM     21  O   UNL     1       4.815   5.550  16.868  0.00  0.00    +0.000 OA
ENDBRANCH  15  16
ENDBRANCH  12  15
ENDBRANCH   1  13
BRANCH   3  22
ATOM     22  O   UNL     1       2.066   9.402  17.268  0.00  0.00    +0.000 OA
ATOM     23  H   UNL     1       1.406   9.164  16.596  0.00  0.00    +0.000 HD
ENDBRANCH   3  22
TORSDOF 4
ENDMDL
MODEL 8
REMARK VINA RESULT:      -7.0      3.437      5.919
REMARK  Name = 
REMARK  5 active torsions:
REMARK  status: ('A' for Active; 'I' for Inactive)
REMARK    1  A    between atoms: C_1  and  N_2
REMARK    2  A    between atoms: N_2  and  C_3
REMARK    3  A    between atoms: C_3  and  C_4
REMARK    4  A    between atoms: C_10  and  C_12
REMARK    5  A    between atoms: C_14  and  O_15
REMARK                            x       y       z     vdW  Elec       q    Type
REMARK                         _______ _______ _______ _____ _____    ______ ____
ROOT
ATOM      1  C   UNL     1       3.366   7.212  18.033  0.00  0.00    +0.000 A 
ATOM      2  C   UNL     1       2.917   8.335  17.342  0.00  0.00    +0.000 A 
ATOM      3  C   UNL     1       2.059   9.237  17.973  0.00  0.00    +0.000 A 
ATOM      4  C   UNL     1       1.512   8.970  19.242  0.00  0.00    +0.000 A 
ATOM      5  C   UNL     1       0.606   9.840  19.880  0.00  0.00    +0.000 A 
ATOM      6  C   UNL     1       0.038   9.513  21.111  0.00  0.00    +0.000 A 
ATOM      7  C   UNL     1       0.372   8.315  21.731  0.00  0.00    +0.000 A 
ATOM      8  C   UNL     1       1.293   7.454  21.134  0.00  0.00    +0.000 A 
ATOM      9  C   UNL     1       1.875   7.770  19.894  0.00  0.00    +0.000 A 
ATOM     10  C   UNL     1       2.816   6.919  19.291  0.00  0.00    +0.000 A 
ENDROOT
BRANCH   1  13
ATOM     11  C   UNL     1       5.257   4.128  16.806  0.00  0.00    +0.000 C 
ATOM     12  N   UNL     1       4.117   4.912  17.273  0.00  0.00    +0.000 N 
ATOM     13  C   UNL     1       4.385   6.271  17.494  0.00  0.00    +0.000 C 
ATOM     14  O   UNL     1       5.476   6.763  17.197  0.00  0.00    +0.000 OA
BRANCH  12  15
ATOM     15  C   UNL     1       2.893   4.158  17.579  0.00  0.00    +0.000 C 
BRANCH  15  16
ATOM     16  C   UNL     1       2.569   3.936  19.067  0.00  0.00    +0.000 C 
ATOM     17  C   UNL     1       1.095   3.621  19.313  0.00  0.00    +0.000 C 
ATOM     18  C   UNL     1       0.871   3.362  20.801  0.00  0.00    +0.000 C 
ATOM     19  C   UNL     1       1.838   2.299  21.311  0.00  0.00    +0.000 C 
ATOM     20  C   UNL     1       3.272   2.642  20.934  0.00  0.00    +0.000 C 
ATOM     21  O   UNL     1       3.393   2.850  19.526  0.00  0.00    +0.000 OA
ENDBRANCH  15  16
ENDBRANCH  12  15
ENDBRANCH   1  13
BRANCH   3  22
ATOM     22  O   UNL     1       1.752  10.417  17.344  0.00  0.00    +0.000 OA
ATOM     23  H   UNL     1       1.045  10.256  16.697  0.00  0.00    +0.000 HD
ENDBRANCH   3  22
TORSDOF 4
ENDMDL
MODEL 9
REMARK VINA RESULT:      -7.0      3.595      5.536
REMARK  Name = 
REMARK  5 active torsions:
REMARK  status: ('A' for Active; 'I' for Inactive)
REMARK    1  A    between atoms: C_1  and  N_2
REMARK    2  A    between atoms: N_2  and  C_3
REMARK    3  A    between atoms: C_3  and  C_4
REMARK    4  A    between atoms: C_10  and  C_12
REMARK    5  A    between atoms: C_14  and  O_15
REMARK                            x       y       z     vdW  Elec       q    Type
REMARK                         _______ _______ _______ _____ _____    ______ ____
ROOT
ATOM      1  C   UNL     1       2.114   6.159  18.848  0.00  0.00    +0.000 A 
ATOM      2  C   UNL     1       1.868   6.326  20.209  0.00  0.00    +0.000 A 
ATOM      3  C   UNL     1       1.487   7.578  20.694  0.00  0.00    +0.000 A 
ATOM      4  C   UNL     1       1.488   8.719  19.870  0.00  0.00    +0.000 A 
ATOM      5  C   UNL     1       1.155  10.003  20.345  0.00  0.00    +0.000 A 
ATOM      6  C   UNL     1       1.226  11.120  19.513  0.00  0.00    +0.000 A 
ATOM      7  C   UNL     1       1.621  10.973  18.189  0.00  0.00    +0.000 A 
ATOM      8  C   UNL     1       1.922   9.706  17.687  0.00  0.00    +0.000 A 
ATOM      9  C   UNL     1       1.854   8.570  18.513  0.00  0.00    +0.000 A 
ATOM     10  C   UNL     1       2.139   7.288  18.015  0.00  0.00    +0.000 A 
ENDROOT
BRANCH   1  13
ATOM     11  C   UNL     1       3.666   2.840  17.767  0.00  0.00    +0.000 C 
ATOM     12  N   UNL     1       3.526   4.076  18.532  0.00  0.00    +0.000 N 
ATOM     13  C   UNL     1       2.390   4.838  18.221  0.00  0.00    +0.000 C 
ATOM     14  O   UNL     1       1.531   4.415  17.443  0.00  0.00    +0.000 OA
BRANCH  12  15
ATOM     15  C   UNL     1       4.650   4.424  19.414  0.00  0.00    +0.000 C 
BRANCH  15  16
ATOM     16  C   UNL     1       5.921   4.968  18.736  0.00  0.00    +0.000 C 
ATOM     17  C   UNL     1       5.634   6.119  17.774  0.00  0.00    +0.000 C 
ATOM     18  C   UNL     1       6.948   6.633  17.190  0.00  0.00    +0.000 C 
ATOM     19  C   UNL     1       7.934   6.969  18.304  0.00  0.00    +0.000 C 
ATOM     20  C   UNL     1       8.081   5.803  19.272  0.00  0.00    +0.000 C 
ATOM     21  O   UNL     1       6.808   5.401  19.781  0.00  0.00    +0.000 OA
ENDBRANCH  15  16
ENDBRANCH  12  15
ENDBRANCH   1  13
BRANCH   3  22
ATOM     22  O   UNL     1       1.093   7.695  22.002  0.00  0.00    +0.000 OA
ATOM     23  H   UNL     1       0.125   7.779  22.034  0.00  0.00    +0.000 HD
ENDBRANCH   3  22
TORSDOF 4
ENDMDL
