MODEL 1
REMARK VINA RESULT:      -8.1      0.000      0.000
REMARK  Name = 
REMARK  9 active torsions:
REMARK  status: ('A' for Active; 'I' for Inactive)
REMARK    1  A    between atoms: C_2  and  C_3
REMARK    2  A    between atoms: C_3  and  N_4
REMARK    3  A    between atoms: N_4  and  C_5
REMARK    4  A    between atoms: C_5  and  C_6
REMARK    5  A    between atoms: C_11  and  C_13
REMARK    6  A    between atoms: C_13  and  C_14
REMARK    7  A    between atoms: C_14  and  C_15
REMARK    8  A    between atoms: N_23  and  C_24
REMARK    9  A    between atoms: C_24  and  C_25
REMARK                            x       y       z     vdW  Elec       q    Type
REMARK                         _______ _______ _______ _____ _____    ______ ____
ROOT
ATOM      1  N   UNL     1       6.172   5.223  17.433  0.00  0.00    +0.000 N 
ATOM      2  C   UNL     1       7.197   6.074  17.041  0.00  0.00    +0.000 C 
ATOM      3  O   UNL     1       7.682   6.029  15.910  0.00  0.00    +0.000 OA
ENDROOT
BRANCH   1   4
ATOM      4  C   UNL     1       5.833   4.114  16.531  0.00  0.00    +0.000 C 
BRANCH   4   6
ATOM      5  O   UNL     1       3.424   4.060  16.382  0.00  0.00    +0.000 OA
ATOM      6  C   UNL     1       4.448   3.495  16.766  0.00  0.00    +0.000 C 
ATOM      7  N   UNL     1       4.416   2.363  17.552  0.00  0.00    +0.000 N 
ATOM      8  H   UNL     1       5.216   2.193  18.154  0.00  0.00    +0.000 HD
BRANCH   7   9
ATOM      9  C   UNL     1       3.149   1.763  17.896  0.00  0.00    +0.000 C 
BRANCH   9  10
ATOM     10  C   UNL     1       2.558   2.336  19.155  0.00  0.00    +0.000 A 
ATOM     11  C   UNL     1       1.247   2.834  19.164  0.00  0.00    +0.000 A 
ATOM     12  C   UNL     1       0.685   3.334  20.341  0.00  0.00    +0.000 A 
ATOM     13  C   UNL     1       1.422   3.335  21.523  0.00  0.00    +0.000 A 
ATOM     14  C   UNL     1       2.721   2.831  21.529  0.00  0.00    +0.000 A 
ATOM     15  C   UNL     1       3.286   2.331  20.353  0.00  0.00    +0.000 A 
ENDBRANCH   9  10
ENDBRANCH   7   9
ENDBRANCH   4   6
ENDBRANCH   1   4
BRANCH   1  16
ATOM     16  C   UNL     1       5.571   5.248  18.779  0.00  0.00    +0.000 C 
BRANCH  16  17
ATOM     17  C   UNL     1       4.303   6.019  18.841  0.00  0.00    +0.000 A 
ATOM     18  C   UNL     1       3.233   6.010  19.713  0.00  0.00    +0.000 A 
ATOM     19  C   UNL     1       2.307   6.954  19.215  0.00  0.00    +0.000 A 
ATOM     20  C   UNL     1       2.880   7.502  18.091  0.00  0.00    +0.000 A 
ATOM     21  O   UNL     1       4.097   6.944  17.860  0.00  0.00    +0.000 OA
ENDBRANCH  16  17
ENDBRANCH   1  16
BRANCH   2  22
ATOM     22  C   UNL     1       7.681   7.082  18.058  0.00  0.00    +0.000 C 
BRANCH  22  23
ATOM     23  C   UNL     1       7.548   8.528  17.582  0.00  0.00    +0.000 C 
BRANCH  23  24
ATOM     24  C   UNL     1       8.522   9.398  18.351  0.00  0.00    +0.000 C 
ATOM     25  O   UNL     1       9.147   8.946  19.305  0.00  0.00    +0.000 OA
ATOM     26  N   UNL     1       8.591  10.684  17.863  0.00  0.00    +0.000 N 
ATOM     27  C   UNL     1       9.405  11.611  18.456  0.00  0.00    +0.000 A 
ATOM     28  N   UNL     1      10.321  11.432  19.371  0.00  0.00    +0.000 NA
ATOM     29  C   UNL     1      10.850  12.648  19.743  0.00  0.00    +0.000 A 
ATOM     30  C   UNL     1      10.323  13.740  19.090  0.00  0.00    +0.000 A 
ATOM     31  S   UNL     1       9.161  13.219  17.936  0.00  0.00    +0.000 S 
ATOM     32  H   UNL     1       7.968  11.008  17.139  0.00  0.00    +0.000 HD
ENDBRANCH  23  24
ENDBRANCH  22  23
ENDBRANCH   2  22
TORSDOF 9
ENDMDL
MODEL 2
REMARK VINA RESULT:      -7.9      2.084      4.254
REMARK  Name = 
REMARK  9 active torsions:
REMARK  status: ('A' for Active; 'I' for Inactive)
REMARK    1  A    between atoms: C_2  and  C_3
REMARK    2  A    between atoms: C_3  and  N_4
REMARK    3  A    between atoms: N_4  and  C_5
REMARK    4  A    between atoms: C_5  and  C_6
REMARK    5  A    between atoms: C_11  and  C_13
REMARK    6  A    between atoms: C_13  and  C_14
REMARK    7  A    between atoms: C_14  and  C_15
REMARK    8  A    between atoms: N_23  and  C_24
REMARK    9  A    between atoms: C_24  and  C_25
REMARK                            x       y       z     vdW  Elec       q    Type
REMARK                         _______ _______ _______ _____ _____    ______ ____
ROOT
ATOM      1  N   UNL     1       5.583   5.182  18.329  0.00  0.00    +0.000 N 
ATOM      2  C   UNL     1       6.758   5.671  18.885  0.00  0.00    +0.000 C 
ATOM      3  O   UNL     1       7.208   5.232  19.945  0.00  0.00    +0.000 OA
ENDROOT
BRANCH   1   4
ATOM      4  C   UNL     1       4.771   4.277  19.154  0.00  0.00    +0.000 C 
BRANCH   4   6
ATOM      5  O   UNL     1       2.377   4.230  18.852  0.00  0.00    +0.000 OA
ATOM      6  C   UNL     1       3.337   4.757  19.414  0.00  0.00    +0.000 C 
ATOM      7  N   UNL     1       3.210   5.893  20.186  0.00  0.00    +0.000 N 
ATOM      8  H   UNL     1       4.025   6.490  20.270  0.00  0.00    +0.000 HD
BRANCH   7   9
ATOM      9  C   UNL     1       1.903   6.465  20.411  0.00  0.00    +0.000 C 
BRANCH   9  10
ATOM     10  C   UNL     1       1.741   7.814  19.764  0.00  0.00    +0.000 A 
ATOM     11  C   UNL     1       2.158   8.025  18.442  0.00  0.00    +0.000 A 
ATOM     12  C   UNL     1       1.975   9.267  17.829  0.00  0.00    +0.000 A 
ATOM     13  C   UNL     1       1.369  10.309  18.527  0.00  0.00    +0.000 A 
ATOM     14  C   UNL     1       0.940  10.108  19.838  0.00  0.00    +0.000 A 
ATOM     15  C   UNL     1       1.122   8.866  20.453  0.00  0.00    +0.000 A 
ENDBRANCH   9  10
ENDBRANCH   7   9
ENDBRANCH   4   6
ENDBRANCH   1   4
BRANCH   1  16
ATOM     16  C   UNL     1       5.016   5.686  17.065  0.00  0.00    +0.000 C 
BRANCH  16  17
ATOM     17  C   UNL     1       5.585   5.027  15.862  0.00  0.00    +0.000 A 
ATOM     18  C   UNL     1       5.557   3.730  15.393  0.00  0.00    +0.000 A 
ATOM     19  C   UNL     1       6.321   3.720  14.204  0.00  0.00    +0.000 A 
ATOM     20  C   UNL     1       6.742   5.014  14.005  0.00  0.00    +0.000 A 
ATOM     21  O   UNL     1       6.293   5.817  15.005  0.00  0.00    +0.000 OA
ENDBRANCH  16  17
ENDBRANCH   1  16
BRANCH   2  22
ATOM     22  C   UNL     1       7.480   6.757  18.121  0.00  0.00    +0.000 C 
BRANCH  22  23
ATOM     23  C   UNL     1       8.449   7.559  18.989  0.00  0.00    +0.000 C 
BRANCH  23  24
ATOM     24  C   UNL     1       8.512   8.985  18.479  0.00  0.00    +0.000 C 
ATOM     25  O   UNL     1       7.841   9.335  17.513  0.00  0.00    +0.000 OA
ATOM     26  N   UNL     1       9.379   9.774  19.203  0.00  0.00    +0.000 N 
ATOM     27  C   UNL     1       9.575  11.086  18.863  0.00  0.00    +0.000 A 
ATOM     28  N   UNL     1       8.910  11.819  18.010  0.00  0.00    +0.000 NA
ATOM     29  C   UNL     1       9.492  13.065  17.917  0.00  0.00    +0.000 A 
ATOM     30  C   UNL     1      10.598  13.256  18.715  0.00  0.00    +0.000 A 
ATOM     31  S   UNL     1      10.887  11.843  19.650  0.00  0.00    +0.000 S 
ATOM     32  H   UNL     1       9.972   9.386  19.920  0.00  0.00    +0.000 HD
ENDBRANCH  23  24
ENDBRANCH  22  23
ENDBRANCH   2  22
TORSDOF 9
ENDMDL
MODEL 3
REMARK VINA RESULT:      -7.8      4.714      7.540
REMARK  Name = 
REMARK  9 active torsions:
REMARK  status: ('A' for Active; 'I' for Inactive)
REMARK    1  A    between atoms: C_2  and  C_3
REMARK    2  A    between atoms: C_3  and  N_4
REMARK    3  A    between atoms: N_4  and  C_5
REMARK    4  A    between atoms: C_5  and  C_6
REMARK    5  A    between atoms: C_11  and  C_13
REMARK    6  A    between atoms: C_13  and  C_14
REMARK    7  A    between atoms: C_14  and  C_15
REMARK    8  A    between atoms: N_23  and  C_24
REMARK    9  A    between atoms: C_24  and  C_25
REMARK                            x       y       z     vdW  Elec       q    Type
REMARK                         _______ _______ _______ _____ _____    ______ ____
ROOT
ATOM      1  N   UNL     1       3.229   6.347  18.987  0.00  0.00    +0.000 N 
ATOM      2  C   UNL     1       3.081   7.251  17.943  0.00  0.00    +0.000 C 
ATOM      3  O   UNL     1       3.910   7.338  17.036  0.00  0.00    +0.000 OA
ENDROOT
BRANCH   1   4
ATOM      4  C   UNL     1       4.517   5.647  19.097  0.00  0.00    +0.000 C 
BRANCH   4   6
ATOM      5  O   UNL     1       4.445   3.284  18.611  0.00  0.00    +0.000 OA
ATOM      6  C   UNL     1       4.661   4.419  18.187  0.00  0.00    +0.000 C 
ATOM      7  N   UNL     1       5.184   4.653  16.933  0.00  0.00    +0.000 N 
ATOM      8  H   UNL     1       5.706   5.514  16.801  0.00  0.00    +0.000 HD
BRANCH   7   9
ATOM      9  C   UNL     1       5.434   3.546  16.042  0.00  0.00    +0.000 C 
BRANCH   9  10
ATOM     10  C   UNL     1       6.141   3.964  14.781  0.00  0.00    +0.000 A 
ATOM     11  C   UNL     1       5.774   3.416  13.543  0.00  0.00    +0.000 A 
ATOM     12  C   UNL     1       6.405   3.830  12.368  0.00  0.00    +0.000 A 
ATOM     13  C   UNL     1       7.404   4.800  12.414  0.00  0.00    +0.000 A 
ATOM     14  C   UNL     1       7.769   5.360  13.637  0.00  0.00    +0.000 A 
ATOM     15  C   UNL     1       7.140   4.948  14.814  0.00  0.00    +0.000 A 
ENDBRANCH   9  10
ENDBRANCH   7   9
ENDBRANCH   4   6
ENDBRANCH   1   4
BRANCH   1  16
ATOM     16  C   UNL     1       2.259   6.219  20.089  0.00  0.00    +0.000 C 
BRANCH  16  17
ATOM     17  C   UNL     1       1.905   4.811  20.400  0.00  0.00    +0.000 A 
ATOM     18  C   UNL     1       1.132   3.866  19.756  0.00  0.00    +0.000 A 
ATOM     19  C   UNL     1       1.148   2.714  20.574  0.00  0.00    +0.000 A 
ATOM     20  C   UNL     1       1.952   3.014  21.648  0.00  0.00    +0.000 A 
ATOM     21  O   UNL     1       2.422   4.285  21.547  0.00  0.00    +0.000 OA
ENDBRANCH  16  17
ENDBRANCH   1  16
BRANCH   2  22
ATOM     22  C   UNL     1       1.842   8.117  17.954  0.00  0.00    +0.000 C 
BRANCH  22  23
ATOM     23  C   UNL     1       2.155   9.612  17.967  0.00  0.00    +0.000 C 
BRANCH  23  24
ATOM     24  C   UNL     1       0.987  10.360  18.581  0.00  0.00    +0.000 C 
ATOM     25  O   UNL     1       1.093  10.891  19.682  0.00  0.00    +0.000 OA
ATOM     26  N   UNL     1      -0.135  10.349  17.782  0.00  0.00    +0.000 N 
ATOM     27  C   UNL     1      -1.289  10.958  18.195  0.00  0.00    +0.000 A 
ATOM     28  N   UNL     1      -1.478  11.748  19.218  0.00  0.00    +0.000 NA
ATOM     29  C   UNL     1      -2.813  12.075  19.312  0.00  0.00    +0.000 A 
ATOM     30  C   UNL     1      -3.621  11.523  18.342  0.00  0.00    +0.000 A 
ATOM     31  S   UNL     1      -2.666  10.605  17.247  0.00  0.00    +0.000 S 
ATOM     32  H   UNL     1      -0.174   9.802  16.935  0.00  0.00    +0.000 HD
ENDBRANCH  23  24
ENDBRANCH  22  23
ENDBRANCH   2  22
TORSDOF 9
ENDMDL
MODEL 4
REMARK VINA RESULT:      -7.7      4.592      7.231
REMARK  Name = 
REMARK  9 active torsions:
REMARK  status: ('A' for Active; 'I' for Inactive)
REMARK    1  A    between atoms: C_2  and  C_3
REMARK    2  A    between atoms: C_3  and  N_4
REMARK    3  A    between atoms: N_4  and  C_5
REMARK    4  A    between atoms: C_5  and  C_6
REMARK    5  A    between atoms: C_11  and  C_13
REMARK    6  A    between atoms: C_13  and  C_14
REMARK    7  A    between atoms: C_14  and  C_15
REMARK    8  A    between atoms: N_23  and  C_24
REMARK    9  A    between atoms: C_24  and  C_25
REMARK                            x       y       z     vdW  Elec       q    Type
REMARK                         _______ _______ _______ _____ _____    ______ ____
ROOT
ATOM      1  N   UNL     1       3.495   6.173  18.872  0.00  0.00    +0.000 N 
ATOM      2  C   UNL     1       3.266   7.227  17.997  0.00  0.00    +0.000 C 
ATOM      3  O   UNL     1       4.081   7.539  17.128  0.00  0.00    +0.000 OA
ENDROOT
BRANCH   1   4
ATOM      4  C   UNL     1       4.838   5.577  18.876  0.00  0.00    +0.000 C 
BRANCH   4   6
ATOM      5  O   UNL     1       4.928   3.210  18.412  0.00  0.00    +0.000 OA
ATOM      6  C   UNL     1       5.001   4.354  17.964  0.00  0.00    +0.000 C 
ATOM      7  N   UNL     1       5.379   4.615  16.663  0.00  0.00    +0.000 N 
ATOM      8  H   UNL     1       5.808   5.516  16.477  0.00  0.00    +0.000 HD
BRANCH   7   9
ATOM      9  C   UNL     1       5.639   3.521  15.758  0.00  0.00    +0.000 C 
BRANCH   9  10
ATOM     10  C   UNL     1       6.260   3.974  14.464  0.00  0.00    +0.000 A 
ATOM     11  C   UNL     1       7.231   4.985  14.456  0.00  0.00    +0.000 A 
ATOM     12  C   UNL     1       7.834   5.381  13.259  0.00  0.00    +0.000 A 
ATOM     13  C   UNL     1       7.480   4.768  12.060  0.00  0.00    +0.000 A 
ATOM     14  C   UNL     1       6.525   3.753  12.058  0.00  0.00    +0.000 A 
ATOM     15  C   UNL     1       5.920   3.355  13.253  0.00  0.00    +0.000 A 
ENDBRANCH   9  10
ENDBRANCH   7   9
ENDBRANCH   4   6
ENDBRANCH   1   4
BRANCH   1  16
ATOM     16  C   UNL     1       2.542   5.776  19.925  0.00  0.00    +0.000 C 
BRANCH  16  17
ATOM     17  C   UNL     1       1.971   4.421  19.719  0.00  0.00    +0.000 A 
ATOM     18  C   UNL     1       1.346   3.811  18.649  0.00  0.00    +0.000 A 
ATOM     19  C   UNL     1       0.991   2.514  19.083  0.00  0.00    +0.000 A 
ATOM     20  C   UNL     1       1.446   2.400  20.375  0.00  0.00    +0.000 A 
ATOM     21  O   UNL     1       2.049   3.553  20.768  0.00  0.00    +0.000 OA
ENDBRANCH  16  17
ENDBRANCH   1  16
BRANCH   2  22
ATOM     22  C   UNL     1       1.957   7.968  18.141  0.00  0.00    +0.000 C 
BRANCH  22  23
ATOM     23  C   UNL     1       2.055   9.442  17.748  0.00  0.00    +0.000 C 
BRANCH  23  24
ATOM     24  C   UNL     1       1.298  10.279  18.760  0.00  0.00    +0.000 C 
ATOM     25  O   UNL     1       1.162  11.488  18.597  0.00  0.00    +0.000 OA
ATOM     26  N   UNL     1       0.827   9.538  19.822  0.00  0.00    +0.000 N 
ATOM     27  C   UNL     1       0.141  10.141  20.841  0.00  0.00    +0.000 A 
ATOM     28  N   UNL     1      -0.323  11.361  20.908  0.00  0.00    +0.000 NA
ATOM     29  C   UNL     1      -0.883  11.578  22.148  0.00  0.00    +0.000 A 
ATOM     30  C   UNL     1      -0.837  10.502  23.007  0.00  0.00    +0.000 A 
ATOM     31  S   UNL     1      -0.113   9.160  22.215  0.00  0.00    +0.000 S 
ATOM     32  H   UNL     1       1.069   8.566  19.935  0.00  0.00    +0.000 HD
ENDBRANCH  23  24
ENDBRANCH  22  23
ENDBRANCH   2  22
TORSDOF 9
ENDMDL
MODEL 5
REMARK VINA RESULT:      -7.7      1.967      3.389
REMARK  Name = 
REMARK  9 active torsions:
REMARK  status: ('A' for Active; 'I' for Inactive)
REMARK    1  A    between atoms: C_2  and  C_3
REMARK    2  A    between atoms: C_3  and  N_4
REMARK    3  A    between atoms: N_4  and  C_5
REMARK    4  A    between atoms: C_5  and  C_6
REMARK    5  A    between atoms: C_11  and  C_13
REMARK    6  A    between atoms: C_13  and  C_14
REMARK    7  A    between atoms: C_14  and  C_15
REMARK    8  A    between atoms: N_23  and  C_24
REMARK    9  A    between atoms: C_24  and  C_25
REMARK                            x       y       z     vdW  Elec       q    Type
REMARK                         _______ _______ _______ _____ _____    ______ ____
ROOT
ATOM      1  N   UNL     1       6.960   5.916  17.466  0.00  0.00    +0.000 N 
ATOM      2  C   UNL     1       7.768   6.705  18.275  0.00  0.00    +0.000 C 
ATOM      3  O   UNL     1       8.308   6.257  19.288  0.00  0.00    +0.000 OA
ENDROOT
BRANCH   1   4
ATOM      4  C   UNL     1       6.586   4.589  17.974  0.00  0.00    +0.000 C 
BRANCH   4   6
ATOM      5  O   UNL     1       5.320   3.647  19.800  0.00  0.00    +0.000 OA
ATOM      6  C   UNL     1       5.473   4.596  19.031  0.00  0.00    +0.000 C 
ATOM      7  N   UNL     1       4.580   5.644  18.963  0.00  0.00    +0.000 N 
ATOM      8  H   UNL     1       4.522   6.148  18.084  0.00  0.00    +0.000 HD
BRANCH   7   9
ATOM      9  C   UNL     1       3.452   5.686  19.863  0.00  0.00    +0.000 C 
BRANCH   9  10
ATOM     10  C   UNL     1       2.481   4.560  19.629  0.00  0.00    +0.000 A 
ATOM     11  C   UNL     1       1.935   3.854  20.710  0.00  0.00    +0.000 A 
ATOM     12  C   UNL     1       1.005   2.833  20.495  0.00  0.00    +0.000 A 
ATOM     13  C   UNL     1       0.607   2.511  19.200  0.00  0.00    +0.000 A 
ATOM     14  C   UNL     1       1.133   3.215  18.118  0.00  0.00    +0.000 A 
ATOM     15  C   UNL     1       2.063   4.236  18.330  0.00  0.00    +0.000 A 
ENDBRANCH   9  10
ENDBRANCH   7   9
ENDBRANCH   4   6
ENDBRANCH   1   4
BRANCH   1  16
ATOM     16  C   UNL     1       6.297   6.421  16.250  0.00  0.00    +0.000 C 
BRANCH  16  17
ATOM     17  C   UNL     1       6.317   5.451  15.125  0.00  0.00    +0.000 A 
ATOM     18  C   UNL     1       5.407   4.523  14.660  0.00  0.00    +0.000 A 
ATOM     19  C   UNL     1       6.027   3.870  13.571  0.00  0.00    +0.000 A 
ATOM     20  C   UNL     1       7.261   4.457  13.419  0.00  0.00    +0.000 A 
ATOM     21  O   UNL     1       7.443   5.424  14.356  0.00  0.00    +0.000 OA
ENDBRANCH  16  17
ENDBRANCH   1  16
BRANCH   2  22
ATOM     22  C   UNL     1       7.979   8.139  17.847  0.00  0.00    +0.000 C 
BRANCH  22  23
ATOM     23  C   UNL     1       8.830   8.940  18.832  0.00  0.00    +0.000 C 
BRANCH  23  24
ATOM     24  C   UNL     1       8.909  10.380  18.365  0.00  0.00    +0.000 C 
ATOM     25  O   UNL     1       8.092  10.825  17.565  0.00  0.00    +0.000 OA
ATOM     26  N   UNL     1       9.966  11.066  18.923  0.00  0.00    +0.000 N 
ATOM     27  C   UNL     1      10.200  12.373  18.592  0.00  0.00    +0.000 A 
ATOM     28  N   UNL     1       9.444  13.195  17.914  0.00  0.00    +0.000 NA
ATOM     29  C   UNL     1      10.098  14.396  17.744  0.00  0.00    +0.000 A 
ATOM     30  C   UNL     1      11.352  14.464  18.309  0.00  0.00    +0.000 A 
ATOM     31  S   UNL     1      11.701  12.991  19.123  0.00  0.00    +0.000 S 
ATOM     32  H   UNL     1      10.654  10.600  19.494  0.00  0.00    +0.000 HD
ENDBRANCH  23  24
ENDBRANCH  22  23
ENDBRANCH   2  22
TORSDOF 9
ENDMDL
MODEL 6
REMARK VINA RESULT:      -7.5      4.337      6.884
REMARK  Name = 
REMARK  9 active torsions:
REMARK  status: ('A' for Active; 'I' for Inactive)
REMARK    1  A    between atoms: C_2  and  C_3
REMARK    2  A    between atoms: C_3  and  N_4
REMARK    3  A    between atoms: N_4  and  C_5
REMARK    4  A    between atoms: C_5  and  C_6
REMARK    5  A    between atoms: C_11  and  C_13
REMARK    6  A    between atoms: C_13  and  C_14
REMARK    7  A    between atoms: C_14  and  C_15
REMARK    8  A    between atoms: N_23  and  C_24
REMARK    9  A    between atoms: C_24  and  C_25
REMARK                            x       y       z     vdW  Elec       q    Type
REMARK                         _______ _______ _______ _____ _____    ______ ____
ROOT
ATOM      1  N   UNL     1       3.234   6.353  18.737  0.00  0.00    +0.000 N 
ATOM      2  C   UNL     1       4.498   6.445  18.169  0.00  0.00    +0.000 C 
ATOM      3  O   UNL     1       4.712   7.126  17.165  0.00  0.00    +0.000 OA
ENDROOT
BRANCH   1   4
ATOM      4  C   UNL     1       2.110   6.917  17.978  0.00  0.00    +0.000 C 
BRANCH   4   6
ATOM      5  O   UNL     1       2.189   9.243  17.339  0.00  0.00    +0.000 OA
ATOM      6  C   UNL     1       1.874   8.417  18.196  0.00  0.00    +0.000 C 
ATOM      7  N   UNL     1       1.436   8.785  19.450  0.00  0.00    +0.000 N 
ATOM      8  H   UNL     1       1.586   8.125  20.207  0.00  0.00    +0.000 HD
BRANCH   7   9
ATOM      9  C   UNL     1       1.270  10.183  19.772  0.00  0.00    +0.000 C 
BRANCH   9  10
ATOM     10  C   UNL     1       0.361  10.403  20.952  0.00  0.00    +0.000 A 
ATOM     11  C   UNL     1       0.413   9.545  22.059  0.00  0.00    +0.000 A 
ATOM     12  C   UNL     1      -0.404   9.770  23.170  0.00  0.00    +0.000 A 
ATOM     13  C   UNL     1      -1.276  10.856  23.189  0.00  0.00    +0.000 A 
ATOM     14  C   UNL     1      -1.326  11.723  22.099  0.00  0.00    +0.000 A 
ATOM     15  C   UNL     1      -0.510  11.501  20.987  0.00  0.00    +0.000 A 
ENDBRANCH   9  10
ENDBRANCH   7   9
ENDBRANCH   4   6
ENDBRANCH   1   4
BRANCH   1  16
ATOM     16  C   UNL     1       2.944   5.545  19.935  0.00  0.00    +0.000 C 
BRANCH  16  17
ATOM     17  C   UNL     1       2.190   4.301  19.635  0.00  0.00    +0.000 A 
ATOM     18  C   UNL     1       0.940   3.841  19.999  0.00  0.00    +0.000 A 
ATOM     19  C   UNL     1       0.806   2.558  19.424  0.00  0.00    +0.000 A 
ATOM     20  C   UNL     1       1.964   2.326  18.721  0.00  0.00    +0.000 A 
ATOM     21  O   UNL     1       2.809   3.384  18.838  0.00  0.00    +0.000 OA
ENDBRANCH  16  17
ENDBRANCH   1  16
BRANCH   2  22
ATOM     22  C   UNL     1       5.615   5.686  18.849  0.00  0.00    +0.000 C 
BRANCH  22  23
ATOM     23  C   UNL     1       6.068   4.455  18.066  0.00  0.00    +0.000 C 
BRANCH  23  24
ATOM     24  C   UNL     1       6.774   4.902  16.801  0.00  0.00    +0.000 C 
ATOM     25  O   UNL     1       7.594   5.814  16.831  0.00  0.00    +0.000 OA
ATOM     26  N   UNL     1       6.381   4.189  15.689  0.00  0.00    +0.000 N 
ATOM     27  C   UNL     1       6.903   4.479  14.457  0.00  0.00    +0.000 A 
ATOM     28  N   UNL     1       7.905   5.260  14.154  0.00  0.00    +0.000 NA
ATOM     29  C   UNL     1       8.045   5.327  12.785  0.00  0.00    +0.000 A 
ATOM     30  C   UNL     1       7.138   4.581  12.067  0.00  0.00    +0.000 A 
ATOM     31  S   UNL     1       6.107   3.728  13.146  0.00  0.00    +0.000 S 
ATOM     32  H   UNL     1       5.625   3.523  15.730  0.00  0.00    +0.000 HD
ENDBRANCH  23  24
ENDBRANCH  22  23
ENDBRANCH   2  22
TORSDOF 9
ENDMDL
MODEL 7
REMARK VINA RESULT:      -7.5      1.807      3.061
REMARK  Name = 
REMARK  9 active torsions:
REMARK  status: ('A' for Active; 'I' for Inactive)
REMARK    1  A    between atoms: C_2  and  C_3
REMARK    2  A    between atoms: C_3  and  N_4
REMARK    3  A    between atoms: N_4  and  C_5
REMARK    4  A    between atoms: C_5  and  C_6
REMARK    5  A    between atoms: C_11  and  C_13
REMARK    6  A    between atoms: C_13  and  C_14
REMARK    7  A    between atoms: C_14  and  C_15
REMARK    8  A    between atoms: N_23  and  C_24
REMARK    9  A    between atoms: C_24  and  C_25
REMARK                            x       y       z     vdW  Elec       q    Type
REMARK                         _______ _______ _______ _____ _____    ______ ____
ROOT
ATOM      1  N   UNL     1       6.630   5.233  16.933  0.00  0.00    +0.000 N 
ATOM      2  C   UNL     1       7.357   5.917  17.899  0.00  0.00    +0.000 C 
ATOM      3  O   UNL     1       7.794   5.354  18.904  0.00  0.00    +0.000 OA
ENDROOT
BRANCH   1   4
ATOM      4  C   UNL     1       6.206   3.863  17.251  0.00  0.00    +0.000 C 
BRANCH   4   6
ATOM      5  O   UNL     1       3.943   4.643  17.565  0.00  0.00    +0.000 OA
ATOM      6  C   UNL     1       4.689   3.678  17.402  0.00  0.00    +0.000 C 
ATOM      7  N   UNL     1       4.245   2.376  17.492  0.00  0.00    +0.000 N 
ATOM      8  H   UNL     1       4.925   1.671  17.756  0.00  0.00    +0.000 HD
BRANCH   7   9
ATOM      9  C   UNL     1       2.844   2.110  17.721  0.00  0.00    +0.000 C 
BRANCH   9  10
ATOM     10  C   UNL     1       2.390   2.533  19.092  0.00  0.00    +0.000 A 
ATOM     11  C   UNL     1       1.188   3.236  19.258  0.00  0.00    +0.000 A 
ATOM     12  C   UNL     1       0.747   3.598  20.534  0.00  0.00    +0.000 A 
ATOM     13  C   UNL     1       1.497   3.256  21.656  0.00  0.00    +0.000 A 
ATOM     14  C   UNL     1       2.687   2.546  21.504  0.00  0.00    +0.000 A 
ATOM     15  C   UNL     1       3.131   2.183  20.230  0.00  0.00    +0.000 A 
ENDBRANCH   9  10
ENDBRANCH   7   9
ENDBRANCH   4   6
ENDBRANCH   1   4
BRANCH   1  16
ATOM     16  C   UNL     1       6.090   5.878  15.722  0.00  0.00    +0.000 C 
BRANCH  16  17
ATOM     17  C   UNL     1       6.340   5.099  14.482  0.00  0.00    +0.000 A 
ATOM     18  C   UNL     1       5.645   4.092  13.842  0.00  0.00    +0.000 A 
ATOM     19  C   UNL     1       6.419   3.729  12.717  0.00  0.00    +0.000 A 
ATOM     20  C   UNL     1       7.519   4.553  12.722  0.00  0.00    +0.000 A 
ATOM     21  O   UNL     1       7.476   5.394  13.788  0.00  0.00    +0.000 OA
ENDBRANCH  16  17
ENDBRANCH   1  16
BRANCH   2  22
ATOM     22  C   UNL     1       7.611   7.387  17.657  0.00  0.00    +0.000 C 
BRANCH  22  23
ATOM     23  C   UNL     1       8.522   8.020  18.707  0.00  0.00    +0.000 C 
BRANCH  23  24
ATOM     24  C   UNL     1       8.597   9.515  18.465  0.00  0.00    +0.000 C 
ATOM     25  O   UNL     1       7.986  10.031  17.535  0.00  0.00    +0.000 OA
ATOM     26  N   UNL     1       9.405  10.163  19.374  0.00  0.00    +0.000 N 
ATOM     27  C   UNL     1       9.605  11.515  19.288  0.00  0.00    +0.000 A 
ATOM     28  N   UNL     1       8.986  12.388  18.538  0.00  0.00    +0.000 NA
ATOM     29  C   UNL     1       9.555  13.632  18.707  0.00  0.00    +0.000 A 
ATOM     30  C   UNL     1      10.605  13.679  19.598  0.00  0.00    +0.000 A 
ATOM     31  S   UNL     1      10.852  12.122  20.283  0.00  0.00    +0.000 S 
ATOM     32  H   UNL     1       9.956   9.654  20.048  0.00  0.00    +0.000 HD
ENDBRANCH  23  24
ENDBRANCH  22  23
ENDBRANCH   2  22
TORSDOF 9
ENDMDL
MODEL 8
REMARK VINA RESULT:      -7.5      4.393      7.158
REMARK  Name = 
REMARK  9 active torsions:
REMARK  status: ('A' for Active; 'I' for Inactive)
REMARK    1  A    between atoms: C_2  and  C_3
REMARK    2  A    between atoms: C_3  and  N_4
REMARK    3  A    between atoms: N_4  and  C_5
REMARK    4  A    between atoms: C_5  and  C_6
REMARK    5  A    between atoms: C_11  and  C_13
REMARK    6  A    between atoms: C_13  and  C_14
REMARK    7  A    between atoms: C_14  and  C_15
REMARK    8  A    between atoms: N_23  and  C_24
REMARK    9  A    between atoms: C_24  and  C_25
REMARK                            x       y       z     vdW  Elec       q    Type
REMARK                         _______ _______ _______ _____ _____    ______ ____
ROOT
ATOM      1  N   UNL     1       2.839   6.712  18.827  0.00  0.00    +0.000 N 
ATOM      2  C   UNL     1       2.151   7.814  19.318  0.00  0.00    +0.000 C 
ATOM      3  O   UNL     1       1.838   8.761  18.594  0.00  0.00    +0.000 OA
ENDROOT
BRANCH   1   4
ATOM      4  C   UNL     1       3.378   6.805  17.463  0.00  0.00    +0.000 C 
BRANCH   4   6
ATOM      5  O   UNL     1       5.789   6.734  17.570  0.00  0.00    +0.000 OA
ATOM      6  C   UNL     1       4.750   6.146  17.268  0.00  0.00    +0.000 C 
ATOM      7  N   UNL     1       4.752   4.936  16.606  0.00  0.00    +0.000 N 
ATOM      8  H   UNL     1       3.938   4.715  16.041  0.00  0.00    +0.000 HD
BRANCH   7   9
ATOM      9  C   UNL     1       6.005   4.286  16.303  0.00  0.00    +0.000 C 
BRANCH   9  10
ATOM     10  C   UNL     1       6.329   4.305  14.833  0.00  0.00    +0.000 A 
ATOM     11  C   UNL     1       7.419   5.044  14.354  0.00  0.00    +0.000 A 
ATOM     12  C   UNL     1       7.742   5.034  12.994  0.00  0.00    +0.000 A 
ATOM     13  C   UNL     1       6.984   4.281  12.101  0.00  0.00    +0.000 A 
ATOM     14  C   UNL     1       5.905   3.533  12.568  0.00  0.00    +0.000 A 
ATOM     15  C   UNL     1       5.580   3.541  13.927  0.00  0.00    +0.000 A 
ENDBRANCH   9  10
ENDBRANCH   7   9
ENDBRANCH   4   6
ENDBRANCH   1   4
BRANCH   1  16
ATOM     16  C   UNL     1       3.232   5.565  19.666  0.00  0.00    +0.000 C 
BRANCH  16  17
ATOM     17  C   UNL     1       2.370   4.372  19.471  0.00  0.00    +0.000 A 
ATOM     18  C   UNL     1       1.153   3.989  19.999  0.00  0.00    +0.000 A 
ATOM     19  C   UNL     1       0.864   2.720  19.449  0.00  0.00    +0.000 A 
ATOM     20  C   UNL     1       1.902   2.421  18.598  0.00  0.00    +0.000 A 
ATOM     21  O   UNL     1       2.819   3.424  18.600  0.00  0.00    +0.000 OA
ENDBRANCH  16  17
ENDBRANCH   1  16
BRANCH   2  22
ATOM     22  C   UNL     1       1.781   7.797  20.783  0.00  0.00    +0.000 C 
BRANCH  22  23
ATOM     23  C   UNL     1       0.379   8.342  21.055  0.00  0.00    +0.000 C 
BRANCH  23  24
ATOM     24  C   UNL     1       0.481   9.800  21.458  0.00  0.00    +0.000 C 
ATOM     25  O   UNL     1       0.643  10.114  22.633  0.00  0.00    +0.000 OA
ATOM     26  N   UNL     1       0.363  10.659  20.388  0.00  0.00    +0.000 N 
ATOM     27  C   UNL     1       0.408  12.015  20.577  0.00  0.00    +0.000 A 
ATOM     28  N   UNL     1       0.732  12.682  21.652  0.00  0.00    +0.000 NA
ATOM     29  C   UNL     1       0.568  14.032  21.428  0.00  0.00    +0.000 A 
ATOM     30  C   UNL     1       0.121  14.366  20.169  0.00  0.00    +0.000 A 
ATOM     31  S   UNL     1      -0.049  12.944  19.219  0.00  0.00    +0.000 S 
ATOM     32  H   UNL     1       0.129  10.326  19.466  0.00  0.00    +0.000 HD
ENDBRANCH  23  24
ENDBRANCH  22  23
ENDBRANCH   2  22
TORSDOF 9
ENDMDL
MODEL 9
REMARK VINA RESULT:      -7.4      4.469      7.010
REMARK  Name = 
REMARK  9 active torsions:
REMARK  status: ('A' for Active; 'I' for Inactive)
REMARK    1  A    between atoms: C_2  and  C_3
REMARK    2  A    between atoms: C_3  and  N_4
REMARK    3  A    between atoms: N_4  and  C_5
REMARK    4  A    between atoms: C_5  and  C_6
REMARK    5  A    between atoms: C_11  and  C_13
REMARK    6  A    between atoms: C_13  and  C_14
REMARK    7  A    between atoms: C_14  and  C_15
REMARK    8  A    between atoms: N_23  and  C_24
REMARK    9  A    between atoms: C_24  and  C_25
REMARK                            x       y       z     vdW  Elec       q    Type
REMARK                         _______ _______ _______ _____ _____    ______ ____
ROOT
ATOM      1  N   UNL     1       3.148   6.374  19.009  0.00  0.00    +0.000 N 
ATOM      2  C   UNL     1       3.019   7.298  17.980  0.00  0.00    +0.000 C 
ATOM      3  O   UNL     1       3.859   7.396  17.085  0.00  0.00    +0.000 OA
ENDROOT
BRANCH   1   4
ATOM      4  C   UNL     1       4.429   5.664  19.122  0.00  0.00    +0.000 C 
BRANCH   4   6
ATOM      5  O   UNL     1       4.414   3.300  18.635  0.00  0.00    +0.000 OA
ATOM      6  C   UNL     1       4.570   4.442  18.204  0.00  0.00    +0.000 C 
ATOM      7  N   UNL     1       5.022   4.694  16.926  0.00  0.00    +0.000 N 
ATOM      8  H   UNL     1       5.507   5.572  16.770  0.00  0.00    +0.000 HD
BRANCH   7   9
ATOM      9  C   UNL     1       5.265   3.596  16.021  0.00  0.00    +0.000 C 
BRANCH   9  10
ATOM     10  C   UNL     1       5.998   4.021  14.777  0.00  0.00    +0.000 A 
ATOM     11  C   UNL     1       7.061   4.932  14.853  0.00  0.00    +0.000 A 
ATOM     12  C   UNL     1       7.765   5.299  13.703  0.00  0.00    +0.000 A 
ATOM     13  C   UNL     1       7.419   4.757  12.468  0.00  0.00    +0.000 A 
ATOM     14  C   UNL     1       6.372   3.841  12.382  0.00  0.00    +0.000 A 
ATOM     15  C   UNL     1       5.666   3.472  13.530  0.00  0.00    +0.000 A 
ENDBRANCH   9  10
ENDBRANCH   7   9
ENDBRANCH   4   6
ENDBRANCH   1   4
BRANCH   1  16
ATOM     16  C   UNL     1       2.163   6.234  20.097  0.00  0.00    +0.000 C 
BRANCH  16  17
ATOM     17  C   UNL     1       1.860   4.820  20.436  0.00  0.00    +0.000 A 
ATOM     18  C   UNL     1       1.058   3.859  19.853  0.00  0.00    +0.000 A 
ATOM     19  C   UNL     1       1.157   2.710  20.670  0.00  0.00    +0.000 A 
ATOM     20  C   UNL     1       2.034   3.028  21.679  0.00  0.00    +0.000 A 
ATOM     21  O   UNL     1       2.472   4.307  21.541  0.00  0.00    +0.000 OA
ENDBRANCH  16  17
ENDBRANCH   1  16
BRANCH   2  22
ATOM     22  C   UNL     1       1.785   8.172  17.992  0.00  0.00    +0.000 C 
BRANCH  22  23
ATOM     23  C   UNL     1       2.104   9.661  17.863  0.00  0.00    +0.000 C 
BRANCH  23  24
ATOM     24  C   UNL     1       1.015  10.464  18.547  0.00  0.00    +0.000 C 
ATOM     25  O   UNL     1       0.007   9.913  18.979  0.00  0.00    +0.000 OA
ATOM     26  N   UNL     1       1.298  11.812  18.600  0.00  0.00    +0.000 N 
ATOM     27  C   UNL     1       0.409  12.688  19.163  0.00  0.00    +0.000 A 
ATOM     28  N   UNL     1      -0.666  12.430  19.859  0.00  0.00    +0.000 NA
ATOM     29  C   UNL     1      -1.312  13.607  20.169  0.00  0.00    +0.000 A 
ATOM     30  C   UNL     1      -0.703  14.750  19.700  0.00  0.00    +0.000 A 
ATOM     31  S   UNL     1       0.755  14.337  18.888  0.00  0.00    +0.000 S 
ATOM     32  H   UNL     1       2.100  12.201  18.130  0.00  0.00    +0.000 HD
ENDBRANCH  23  24
ENDBRANCH  22  23
ENDBRANCH   2  22
TORSDOF 9
ENDMDL
