MODEL 1
REMARK VINA RESULT:      -8.2      0.000      0.000
REMARK  Name = 
REMARK  3 active torsions:
REMARK  status: ('A' for Active; 'I' for Inactive)
REMARK    1  A    between atoms: C_1  and  C_2
REMARK    2  A    between atoms: C_4  and  C_5
REMARK    3  A    between atoms: C_10  and  C_12
REMARK                            x       y       z     vdW  Elec       q    Type
REMARK                         _______ _______ _______ _____ _____    ______ ____
ROOT
ATOM      1  C   UNL     1       7.150   6.022  16.777  0.00  0.00    +0.000 C 
ATOM      2  C   UNL     1       7.714   4.981  17.770  0.00  0.00    +0.000 C 
ATOM      3  C   UNL     1       6.649   4.309  18.639  0.00  0.00    +0.000 C 
ATOM      4  C   UNL     1       5.759   5.369  19.274  0.00  0.00    +0.000 C 
ATOM      5  N   UNL     1       5.061   6.073  18.203  0.00  0.00    +0.000 N 
ATOM      6  C   UNL     1       3.674   6.172  18.005  0.00  0.00    +0.000 C 
ATOM      7  O   UNL     1       3.201   6.889  17.125  0.00  0.00    +0.000 OA
ATOM      8  C   UNL     1       5.960   6.838  17.330  0.00  0.00    +0.000 C 
ENDROOT
BRANCH   6   9
ATOM      9  C   UNL     1       2.717   5.398  18.851  0.00  0.00    +0.000 A 
ATOM     10  C   UNL     1       2.105   5.953  19.988  0.00  0.00    +0.000 A 
ATOM     11  C   UNL     1       1.142   5.242  20.725  0.00  0.00    +0.000 A 
ATOM     12  C   UNL     1       0.843   3.922  20.399  0.00  0.00    +0.000 A 
ATOM     13  C   UNL     1       1.538   3.352  19.354  0.00  0.00    +0.000 A 
ATOM     14  C   UNL     1       2.444   4.061  18.590  0.00  0.00    +0.000 A 
ATOM     15  O   UNL     1       2.975   3.275  17.610  0.00  0.00    +0.000 OA
ATOM     16  C   UNL     1       2.422   1.987  17.938  0.00  0.00    +0.000 C 
ATOM     17  O   UNL     1       1.414   2.054  18.963  0.00  0.00    +0.000 OA
ENDBRANCH   6   9
BRANCH   1  21
ATOM     18  C   UNL     1       5.187   3.590  12.910  0.00  0.00    +0.000 C 
ATOM     19  C   UNL     1       5.979   4.402  13.849  0.00  0.00    +0.000 A 
ATOM     20  N   UNL     1       5.728   4.760  15.091  0.00  0.00    +0.000 NA
ATOM     21  C   UNL     1       6.861   5.465  15.413  0.00  0.00    +0.000 A 
ATOM     22  N   UNL     1       7.785   5.522  14.445  0.00  0.00    +0.000 NA
ATOM     23  O   UNL     1       7.194   4.823  13.398  0.00  0.00    +0.000 OA
ENDBRANCH   1  21
TORSDOF 2
ENDMDL
MODEL 2
REMARK VINA RESULT:      -7.9      2.565      4.037
REMARK  Name = 
REMARK  3 active torsions:
REMARK  status: ('A' for Active; 'I' for Inactive)
REMARK    1  A    between atoms: C_1  and  C_2
REMARK    2  A    between atoms: C_4  and  C_5
REMARK    3  A    between atoms: C_10  and  C_12
REMARK                            x       y       z     vdW  Elec       q    Type
REMARK                         _______ _______ _______ _____ _____    ______ ____
ROOT
ATOM      1  C   UNL     1       6.837   5.719  16.459  0.00  0.00    +0.000 C 
ATOM      2  C   UNL     1       5.647   6.234  15.619  0.00  0.00    +0.000 C 
ATOM      3  C   UNL     1       4.280   5.994  16.261  0.00  0.00    +0.000 C 
ATOM      4  C   UNL     1       4.163   4.537  16.692  0.00  0.00    +0.000 C 
ATOM      5  N   UNL     1       5.172   4.288  17.716  0.00  0.00    +0.000 N 
ATOM      6  C   UNL     1       4.962   3.862  19.039  0.00  0.00    +0.000 C 
ATOM      7  O   UNL     1       5.904   3.578  19.778  0.00  0.00    +0.000 OA
ATOM      8  C   UNL     1       6.548   4.403  17.217  0.00  0.00    +0.000 C 
ENDROOT
BRANCH   6   9
ATOM      9  C   UNL     1       3.584   3.749  19.603  0.00  0.00    +0.000 A 
ATOM     10  C   UNL     1       2.933   2.511  19.744  0.00  0.00    +0.000 A 
ATOM     11  C   UNL     1       1.670   2.411  20.356  0.00  0.00    +0.000 A 
ATOM     12  C   UNL     1       0.989   3.559  20.750  0.00  0.00    +0.000 A 
ATOM     13  C   UNL     1       1.589   4.774  20.497  0.00  0.00    +0.000 A 
ATOM     14  C   UNL     1       2.853   4.878  19.948  0.00  0.00    +0.000 A 
ATOM     15  O   UNL     1       3.222   6.185  19.822  0.00  0.00    +0.000 OA
ATOM     16  C   UNL     1       2.014   6.868  20.205  0.00  0.00    +0.000 C 
ATOM     17  O   UNL     1       1.020   5.983  20.753  0.00  0.00    +0.000 OA
ENDBRANCH   6   9
BRANCH   1  21
ATOM     18  C   UNL     1       8.757   9.908  18.326  0.00  0.00    +0.000 C 
ATOM     19  C   UNL     1       8.247   8.554  18.054  0.00  0.00    +0.000 A 
ATOM     20  N   UNL     1       7.583   8.083  17.019  0.00  0.00    +0.000 NA
ATOM     21  C   UNL     1       7.442   6.759  17.356  0.00  0.00    +0.000 A 
ATOM     22  N   UNL     1       8.011   6.409  18.517  0.00  0.00    +0.000 NA
ATOM     23  O   UNL     1       8.538   7.606  18.989  0.00  0.00    +0.000 OA
ENDBRANCH   1  21
TORSDOF 2
ENDMDL
MODEL 3
REMARK VINA RESULT:      -7.4      2.439      3.620
REMARK  Name = 
REMARK  3 active torsions:
REMARK  status: ('A' for Active; 'I' for Inactive)
REMARK    1  A    between atoms: C_1  and  C_2
REMARK    2  A    between atoms: C_4  and  C_5
REMARK    3  A    between atoms: C_10  and  C_12
REMARK                            x       y       z     vdW  Elec       q    Type
REMARK                         _______ _______ _______ _____ _____    ______ ____
ROOT
ATOM      1  C   UNL     1       7.157   5.888  16.676  0.00  0.00    +0.000 C 
ATOM      2  C   UNL     1       6.092   6.321  15.645  0.00  0.00    +0.000 C 
ATOM      3  C   UNL     1       4.651   6.179  16.139  0.00  0.00    +0.000 C 
ATOM      4  C   UNL     1       4.441   4.783  16.715  0.00  0.00    +0.000 C 
ATOM      5  N   UNL     1       5.313   4.639  17.876  0.00  0.00    +0.000 N 
ATOM      6  C   UNL     1       4.935   4.374  19.203  0.00  0.00    +0.000 C 
ATOM      7  O   UNL     1       5.773   4.163  20.079  0.00  0.00    +0.000 OA
ATOM      8  C   UNL     1       6.741   4.674  17.538  0.00  0.00    +0.000 C 
ENDROOT
BRANCH   6   9
ATOM      9  C   UNL     1       3.497   4.349  19.606  0.00  0.00    +0.000 A 
ATOM     10  C   UNL     1       2.937   5.331  20.440  0.00  0.00    +0.000 A 
ATOM     11  C   UNL     1       1.563   5.342  20.741  0.00  0.00    +0.000 A 
ATOM     12  C   UNL     1       0.738   4.313  20.295  0.00  0.00    +0.000 A 
ATOM     13  C   UNL     1       1.326   3.293  19.577  0.00  0.00    +0.000 A 
ATOM     14  C   UNL     1       2.663   3.303  19.230  0.00  0.00    +0.000 A 
ATOM     15  O   UNL     1       2.987   2.194  18.506  0.00  0.00    +0.000 OA
ATOM     16  C   UNL     1       1.763   1.437  18.570  0.00  0.00    +0.000 C 
ATOM     17  O   UNL     1       0.671   2.183  19.139  0.00  0.00    +0.000 OA
ENDBRANCH   6   9
BRANCH   1  21
ATOM     18  C   UNL     1       8.827  10.281  18.299  0.00  0.00    +0.000 C 
ATOM     19  C   UNL     1       8.384   8.889  18.109  0.00  0.00    +0.000 A 
ATOM     20  N   UNL     1       7.784   8.317  17.088  0.00  0.00    +0.000 NA
ATOM     21  C   UNL     1       7.683   7.016  17.516  0.00  0.00    +0.000 A 
ATOM     22  N   UNL     1       8.216   6.776  18.721  0.00  0.00    +0.000 NA
ATOM     23  O   UNL     1       8.675   8.026  19.122  0.00  0.00    +0.000 OA
ENDBRANCH   1  21
TORSDOF 2
ENDMDL
MODEL 4
REMARK VINA RESULT:      -7.1      1.793      2.036
REMARK  Name = 
REMARK  3 active torsions:
REMARK  status: ('A' for Active; 'I' for Inactive)
REMARK    1  A    between atoms: C_1  and  C_2
REMARK    2  A    between atoms: C_4  and  C_5
REMARK    3  A    between atoms: C_10  and  C_12
REMARK                            x       y       z     vdW  Elec       q    Type
REMARK                         _______ _______ _______ _____ _____    ______ ____
ROOT
ATOM      1  C   UNL     1       6.050   6.265  16.570  0.00  0.00    +0.000 C 
ATOM      2  C   UNL     1       7.059   6.209  17.738  0.00  0.00    +0.000 C 
ATOM      3  C   UNL     1       6.551   5.451  18.965  0.00  0.00    +0.000 C 
ATOM      4  C   UNL     1       5.168   5.964  19.350  0.00  0.00    +0.000 C 
ATOM      5  N   UNL     1       4.256   5.669  18.250  0.00  0.00    +0.000 N 
ATOM      6  C   UNL     1       3.095   4.878  18.290  0.00  0.00    +0.000 C 
ATOM      7  O   UNL     1       2.343   4.793  17.320  0.00  0.00    +0.000 OA
ATOM      8  C   UNL     1       4.576   6.398  17.018  0.00  0.00    +0.000 C 
ENDROOT
BRANCH   6   9
ATOM      9  C   UNL     1       2.734   4.098  19.511  0.00  0.00    +0.000 A 
ATOM     10  C   UNL     1       1.578   4.376  20.262  0.00  0.00    +0.000 A 
ATOM     11  C   UNL     1       1.206   3.579  21.359  0.00  0.00    +0.000 A 
ATOM     12  C   UNL     1       2.035   2.548  21.791  0.00  0.00    +0.000 A 
ATOM     13  C   UNL     1       3.224   2.363  21.117  0.00  0.00    +0.000 A 
ATOM     14  C   UNL     1       3.570   3.105  20.004  0.00  0.00    +0.000 A 
ATOM     15  O   UNL     1       4.781   2.712  19.515  0.00  0.00    +0.000 OA
ATOM     16  C   UNL     1       5.207   1.767  20.515  0.00  0.00    +0.000 C 
ATOM     17  O   UNL     1       4.172   1.450  21.464  0.00  0.00    +0.000 OA
ENDBRANCH   6   9
BRANCH   1  21
ATOM     18  C   UNL     1       6.809   3.674  12.395  0.00  0.00    +0.000 C 
ATOM     19  C   UNL     1       6.547   4.163  13.759  0.00  0.00    +0.000 A 
ATOM     20  N   UNL     1       6.650   5.372  14.267  0.00  0.00    +0.000 NA
ATOM     21  C   UNL     1       6.230   5.170  15.559  0.00  0.00    +0.000 A 
ATOM     22  N   UNL     1       5.855   3.916  15.840  0.00  0.00    +0.000 NA
ATOM     23  O   UNL     1       6.075   3.240  14.644  0.00  0.00    +0.000 OA
ENDBRANCH   1  21
TORSDOF 2
ENDMDL
MODEL 5
REMARK VINA RESULT:      -7.0      1.554      2.373
REMARK  Name = 
REMARK  3 active torsions:
REMARK  status: ('A' for Active; 'I' for Inactive)
REMARK    1  A    between atoms: C_1  and  C_2
REMARK    2  A    between atoms: C_4  and  C_5
REMARK    3  A    between atoms: C_10  and  C_12
REMARK                            x       y       z     vdW  Elec       q    Type
REMARK                         _______ _______ _______ _____ _____    ______ ____
ROOT
ATOM      1  C   UNL     1       7.334   5.777  16.579  0.00  0.00    +0.000 C 
ATOM      2  C   UNL     1       7.752   4.680  17.583  0.00  0.00    +0.000 C 
ATOM      3  C   UNL     1       6.610   4.175  18.466  0.00  0.00    +0.000 C 
ATOM      4  C   UNL     1       5.882   5.358  19.092  0.00  0.00    +0.000 C 
ATOM      5  N   UNL     1       5.283   6.140  18.015  0.00  0.00    +0.000 N 
ATOM      6  C   UNL     1       3.922   6.430  17.823  0.00  0.00    +0.000 C 
ATOM      7  O   UNL     1       3.549   7.196  16.936  0.00  0.00    +0.000 OA
ATOM      8  C   UNL     1       6.274   6.760  17.127  0.00  0.00    +0.000 C 
ENDROOT
BRANCH   6   9
ATOM      9  C   UNL     1       2.871   5.809  18.684  0.00  0.00    +0.000 A 
ATOM     10  C   UNL     1       2.439   4.484  18.499  0.00  0.00    +0.000 A 
ATOM     11  C   UNL     1       1.512   3.886  19.371  0.00  0.00    +0.000 A 
ATOM     12  C   UNL     1       0.921   4.632  20.387  0.00  0.00    +0.000 A 
ATOM     13  C   UNL     1       1.266   5.964  20.481  0.00  0.00    +0.000 A 
ATOM     14  C   UNL     1       2.217   6.544  19.665  0.00  0.00    +0.000 A 
ATOM     15  O   UNL     1       2.388   7.861  19.977  0.00  0.00    +0.000 OA
ATOM     16  C   UNL     1       1.351   8.066  20.954  0.00  0.00    +0.000 C 
ATOM     17  O   UNL     1       0.721   6.840  21.369  0.00  0.00    +0.000 OA
ENDBRANCH   6   9
BRANCH   1  21
ATOM     18  C   UNL     1       5.218   3.324  12.807  0.00  0.00    +0.000 C 
ATOM     19  C   UNL     1       6.024   4.170  13.704  0.00  0.00    +0.000 A 
ATOM     20  N   UNL     1       5.869   4.452  14.980  0.00  0.00    +0.000 NA
ATOM     21  C   UNL     1       6.960   5.250  15.224  0.00  0.00    +0.000 A 
ATOM     22  N   UNL     1       7.771   5.434  14.175  0.00  0.00    +0.000 NA
ATOM     23  O   UNL     1       7.144   4.723  13.157  0.00  0.00    +0.000 OA
ENDBRANCH   1  21
TORSDOF 2
ENDMDL
MODEL 6
REMARK VINA RESULT:      -6.8      9.190     11.847
REMARK  Name = 
REMARK  3 active torsions:
REMARK  status: ('A' for Active; 'I' for Inactive)
REMARK    1  A    between atoms: C_1  and  C_2
REMARK    2  A    between atoms: C_4  and  C_5
REMARK    3  A    between atoms: C_10  and  C_12
REMARK                            x       y       z     vdW  Elec       q    Type
REMARK                         _______ _______ _______ _____ _____    ______ ____
ROOT
ATOM      1  C   UNL     1      10.668  11.439  19.896  0.00  0.00    +0.000 C 
ATOM      2  C   UNL     1      10.175  12.135  21.184  0.00  0.00    +0.000 C 
ATOM      3  C   UNL     1       9.926  13.636  21.026  0.00  0.00    +0.000 C 
ATOM      4  C   UNL     1      11.140  14.293  20.379  0.00  0.00    +0.000 C 
ATOM      5  N   UNL     1      11.293  13.736  19.040  0.00  0.00    +0.000 N 
ATOM      6  C   UNL     1      11.269  14.428  17.817  0.00  0.00    +0.000 C 
ATOM      7  O   UNL     1      11.522  13.862  16.755  0.00  0.00    +0.000 OA
ATOM      8  C   UNL     1      11.620  12.305  19.039  0.00  0.00    +0.000 C 
ENDROOT
BRANCH   6   9
ATOM      9  C   UNL     1      10.921  15.879  17.759  0.00  0.00    +0.000 A 
ATOM     10  C   UNL     1      11.896  16.875  17.573  0.00  0.00    +0.000 A 
ATOM     11  C   UNL     1      11.544  18.230  17.434  0.00  0.00    +0.000 A 
ATOM     12  C   UNL     1      10.218  18.629  17.579  0.00  0.00    +0.000 A 
ATOM     13  C   UNL     1       9.290  17.655  17.880  0.00  0.00    +0.000 A 
ATOM     14  C   UNL     1       9.618  16.316  17.962  0.00  0.00    +0.000 A 
ATOM     15  O   UNL     1       8.518  15.562  18.249  0.00  0.00    +0.000 OA
ATOM     16  C   UNL     1       7.522  16.576  18.479  0.00  0.00    +0.000 C 
ATOM     17  O   UNL     1       7.973  17.896  18.125  0.00  0.00    +0.000 OA
ENDBRANCH   6   9
BRANCH   1  21
ATOM     18  C   UNL     1       7.604   8.301  17.555  0.00  0.00    +0.000 C 
ATOM     19  C   UNL     1       8.338   9.448  18.115  0.00  0.00    +0.000 A 
ATOM     20  N   UNL     1       9.280   9.493  19.033  0.00  0.00    +0.000 NA
ATOM     21  C   UNL     1       9.568  10.835  19.073  0.00  0.00    +0.000 A 
ATOM     22  N   UNL     1       8.874  11.587  18.208  0.00  0.00    +0.000 NA
ATOM     23  O   UNL     1       8.046  10.666  17.577  0.00  0.00    +0.000 OA
ENDBRANCH   1  21
TORSDOF 2
ENDMDL
MODEL 7
REMARK VINA RESULT:      -6.7      2.603      3.841
REMARK  Name = 
REMARK  3 active torsions:
REMARK  status: ('A' for Active; 'I' for Inactive)
REMARK    1  A    between atoms: C_1  and  C_2
REMARK    2  A    between atoms: C_4  and  C_5
REMARK    3  A    between atoms: C_10  and  C_12
REMARK                            x       y       z     vdW  Elec       q    Type
REMARK                         _______ _______ _______ _____ _____    ______ ____
ROOT
ATOM      1  C   UNL     1       7.466   5.405  16.519  0.00  0.00    +0.000 C 
ATOM      2  C   UNL     1       6.609   5.695  15.268  0.00  0.00    +0.000 C 
ATOM      3  C   UNL     1       5.111   5.460  15.470  0.00  0.00    +0.000 C 
ATOM      4  C   UNL     1       4.885   4.084  16.085  0.00  0.00    +0.000 C 
ATOM      5  N   UNL     1       5.507   4.072  17.405  0.00  0.00    +0.000 N 
ATOM      6  C   UNL     1       4.883   3.845  18.643  0.00  0.00    +0.000 C 
ATOM      7  O   UNL     1       5.536   3.750  19.682  0.00  0.00    +0.000 OA
ATOM      8  C   UNL     1       6.968   4.207  17.360  0.00  0.00    +0.000 C 
ENDROOT
BRANCH   6   9
ATOM      9  C   UNL     1       3.399   3.722  18.748  0.00  0.00    +0.000 A 
ATOM     10  C   UNL     1       2.537   4.170  17.732  0.00  0.00    +0.000 A 
ATOM     11  C   UNL     1       1.147   3.970  17.807  0.00  0.00    +0.000 A 
ATOM     12  C   UNL     1       0.579   3.408  18.947  0.00  0.00    +0.000 A 
ATOM     13  C   UNL     1       1.426   3.083  19.985  0.00  0.00    +0.000 A 
ATOM     14  C   UNL     1       2.797   3.224  19.898  0.00  0.00    +0.000 A 
ATOM     15  O   UNL     1       3.404   2.813  21.048  0.00  0.00    +0.000 OA
ATOM     16  C   UNL     1       2.271   2.549  21.896  0.00  0.00    +0.000 C 
ATOM     17  O   UNL     1       1.018   2.597  21.190  0.00  0.00    +0.000 OA
ENDBRANCH   6   9
BRANCH   1  21
ATOM     18  C   UNL     1       8.349  10.019  18.149  0.00  0.00    +0.000 C 
ATOM     19  C   UNL     1       8.107   8.578  17.965  0.00  0.00    +0.000 A 
ATOM     20  N   UNL     1       7.734   7.904  16.899  0.00  0.00    +0.000 NA
ATOM     21  C   UNL     1       7.727   6.614  17.370  0.00  0.00    +0.000 A 
ATOM     22  N   UNL     1       8.105   6.479  18.648  0.00  0.00    +0.000 NA
ATOM     23  O   UNL     1       8.349   7.788  19.049  0.00  0.00    +0.000 OA
ENDBRANCH   1  21
TORSDOF 2
ENDMDL
MODEL 8
REMARK VINA RESULT:      -6.6      2.295      3.917
REMARK  Name = 
REMARK  3 active torsions:
REMARK  status: ('A' for Active; 'I' for Inactive)
REMARK    1  A    between atoms: C_1  and  C_2
REMARK    2  A    between atoms: C_4  and  C_5
REMARK    3  A    between atoms: C_10  and  C_12
REMARK                            x       y       z     vdW  Elec       q    Type
REMARK                         _______ _______ _______ _____ _____    ______ ____
ROOT
ATOM      1  C   UNL     1       7.173   5.451  16.190  0.00  0.00    +0.000 C 
ATOM      2  C   UNL     1       6.221   5.326  14.980  0.00  0.00    +0.000 C 
ATOM      3  C   UNL     1       4.818   4.832  15.338  0.00  0.00    +0.000 C 
ATOM      4  C   UNL     1       4.919   3.574  16.194  0.00  0.00    +0.000 C 
ATOM      5  N   UNL     1       5.584   3.931  17.443  0.00  0.00    +0.000 N 
ATOM      6  C   UNL     1       5.077   3.812  18.747  0.00  0.00    +0.000 C 
ATOM      7  O   UNL     1       5.778   4.043  19.731  0.00  0.00    +0.000 OA
ATOM      8  C   UNL     1       6.979   4.350  17.259  0.00  0.00    +0.000 C 
ENDROOT
BRANCH   6   9
ATOM      9  C   UNL     1       3.659   3.411  18.990  0.00  0.00    +0.000 A 
ATOM     10  C   UNL     1       3.131   2.201  18.507  0.00  0.00    +0.000 A 
ATOM     11  C   UNL     1       1.820   1.797  18.816  0.00  0.00    +0.000 A 
ATOM     12  C   UNL     1       0.975   2.641  19.531  0.00  0.00    +0.000 A 
ATOM     13  C   UNL     1       1.470   3.876  19.896  0.00  0.00    +0.000 A 
ATOM     14  C   UNL     1       2.773   4.257  19.646  0.00  0.00    +0.000 A 
ATOM     15  O   UNL     1       3.015   5.511  20.125  0.00  0.00    +0.000 OA
ATOM     16  C   UNL     1       1.702   5.915  20.557  0.00  0.00    +0.000 C 
ATOM     17  O   UNL     1       0.747   4.839  20.530  0.00  0.00    +0.000 OA
ENDBRANCH   6   9
BRANCH   1  21
ATOM     18  C   UNL     1       8.584   9.743  18.266  0.00  0.00    +0.000 C 
ATOM     19  C   UNL     1       7.882   8.589  17.679  0.00  0.00    +0.000 A 
ATOM     20  N   UNL     1       8.353   7.524  17.066  0.00  0.00    +0.000 NA
ATOM     21  C   UNL     1       7.203   6.822  16.800  0.00  0.00    +0.000 A 
ATOM     22  N   UNL     1       6.077   7.394  17.247  0.00  0.00    +0.000 NA
ATOM     23  O   UNL     1       6.527   8.577  17.824  0.00  0.00    +0.000 OA
ENDBRANCH   1  21
TORSDOF 2
ENDMDL
MODEL 9
REMARK VINA RESULT:      -6.3      2.707      3.866
REMARK  Name = 
REMARK  3 active torsions:
REMARK  status: ('A' for Active; 'I' for Inactive)
REMARK    1  A    between atoms: C_1  and  C_2
REMARK    2  A    between atoms: C_4  and  C_5
REMARK    3  A    between atoms: C_10  and  C_12
REMARK                            x       y       z     vdW  Elec       q    Type
REMARK                         _______ _______ _______ _____ _____    ______ ____
ROOT
ATOM      1  C   UNL     1       7.091   6.187  16.728  0.00  0.00    +0.000 C 
ATOM      2  C   UNL     1       5.992   6.649  15.746  0.00  0.00    +0.000 C 
ATOM      3  C   UNL     1       4.572   6.544  16.306  0.00  0.00    +0.000 C 
ATOM      4  C   UNL     1       4.351   5.154  16.891  0.00  0.00    +0.000 C 
ATOM      5  N   UNL     1       5.271   4.986  18.011  0.00  0.00    +0.000 N 
ATOM      6  C   UNL     1       4.946   4.729  19.354  0.00  0.00    +0.000 C 
ATOM      7  O   UNL     1       5.817   4.495  20.190  0.00  0.00    +0.000 OA
ATOM      8  C   UNL     1       6.682   4.983  17.608  0.00  0.00    +0.000 C 
ENDROOT
BRANCH   6   9
ATOM      9  C   UNL     1       3.528   4.742  19.821  0.00  0.00    +0.000 A 
ATOM     10  C   UNL     1       2.710   5.878  19.698  0.00  0.00    +0.000 A 
ATOM     11  C   UNL     1       1.352   5.848  20.063  0.00  0.00    +0.000 A 
ATOM     12  C   UNL     1       0.809   4.711  20.655  0.00  0.00    +0.000 A 
ATOM     13  C   UNL     1       1.655   3.645  20.879  0.00  0.00    +0.000 A 
ATOM     14  C   UNL     1       2.975   3.646  20.472  0.00  0.00    +0.000 A 
ATOM     15  O   UNL     1       3.584   2.468  20.793  0.00  0.00    +0.000 OA
ATOM     16  C   UNL     1       2.560   1.811  21.562  0.00  0.00    +0.000 C 
ATOM     17  O   UNL     1       1.295   2.496  21.513  0.00  0.00    +0.000 OA
ENDBRANCH   6   9
BRANCH   1  21
ATOM     18  C   UNL     1       8.909  10.545  18.285  0.00  0.00    +0.000 C 
ATOM     19  C   UNL     1       8.442   9.159  18.109  0.00  0.00    +0.000 A 
ATOM     20  N   UNL     1       7.766   8.604  17.125  0.00  0.00    +0.000 NA
ATOM     21  C   UNL     1       7.684   7.299  17.543  0.00  0.00    +0.000 A 
ATOM     22  N   UNL     1       8.298   7.039  18.705  0.00  0.00    +0.000 NA
ATOM     23  O   UNL     1       8.795   8.280  19.089  0.00  0.00    +0.000 OA
ENDBRANCH   1  21
TORSDOF 2
ENDMDL
