MODEL 1
REMARK VINA RESULT:      -6.8      0.000      0.000
REMARK  Name = 
REMARK  5 active torsions:
REMARK  status: ('A' for Active; 'I' for Inactive)
REMARK    1  A    between atoms: C_1  and  C_2
REMARK    2  A    between atoms: C_2  and  N_3
REMARK    3  A    between atoms: N_7  and  C_8
REMARK    4  A    between atoms: C_8  and  C_9
REMARK    5  A    between atoms: C_8  and  C_10
REMARK                            x       y       z     vdW  Elec       q    Type
REMARK                         _______ _______ _______ _____ _____    ______ ____
ROOT
ATOM      1  N   UNL     1       3.044   8.006  17.636  0.00  0.00    +0.000 N 
ATOM      2  C   UNL     1       3.223   6.667  17.971  0.00  0.00    +0.000 A 
ATOM      3  N   UNL     1       4.458   6.307  18.335  0.00  0.00    +0.000 NA
ATOM      4  C   UNL     1       4.651   5.035  18.732  0.00  0.00    +0.000 A 
ATOM      5  N   UNL     1       5.950   4.621  19.085  0.00  0.00    +0.000 N 
ATOM      6  C   UNL     1       3.598   4.105  18.784  0.00  0.00    +0.000 A 
ATOM      7  C   UNL     1       3.702   2.753  19.204  0.00  0.00    +0.000 A 
ATOM      8  C   UNL     1       2.608   1.891  19.121  0.00  0.00    +0.000 A 
ATOM      9  C   UNL     1       1.402   2.364  18.623  0.00  0.00    +0.000 A 
ATOM     10  C   UNL     1       1.293   3.703  18.237  0.00  0.00    +0.000 A 
ATOM     11  C   UNL     1       2.369   4.576  18.322  0.00  0.00    +0.000 A 
ATOM     12  N   UNL     1       2.180   5.836  17.936  0.00  0.00    +0.000 NA
ATOM     13  H   UNL     1       3.815   8.510  18.056  0.00  0.00    +0.000 HD
ATOM     14  H   UNL     1       6.017   4.430  20.079  0.00  0.00    +0.000 HD
ENDROOT
BRANCH   5  15
ATOM     15  C   UNL     1       7.077   5.353  18.508  0.00  0.00    +0.000 C 
ATOM     16  C   UNL     1       8.148   5.693  19.541  0.00  0.00    +0.000 C 
ATOM     17  C   UNL     1       7.687   4.478  17.408  0.00  0.00    +0.000 C 
ENDBRANCH   5  15
BRANCH   1  19
ATOM     18  C   UNL     1       1.759  10.023  18.100  0.00  0.00    +0.000 C 
ATOM     19  C   UNL     1       1.711   8.513  17.930  0.00  0.00    +0.000 C 
ENDBRANCH   1  19
TORSDOF 2
ENDMDL
MODEL 2
REMARK VINA RESULT:      -6.8      3.000      4.522
REMARK  Name = 
REMARK  5 active torsions:
REMARK  status: ('A' for Active; 'I' for Inactive)
REMARK    1  A    between atoms: C_1  and  C_2
REMARK    2  A    between atoms: C_2  and  N_3
REMARK    3  A    between atoms: N_7  and  C_8
REMARK    4  A    between atoms: C_8  and  C_9
REMARK    5  A    between atoms: C_8  and  C_10
REMARK                            x       y       z     vdW  Elec       q    Type
REMARK                         _______ _______ _______ _____ _____    ______ ____
ROOT
ATOM      1  N   UNL     1       6.778   4.238  14.222  0.00  0.00    +0.000 N 
ATOM      2  C   UNL     1       6.024   4.693  15.300  0.00  0.00    +0.000 A 
ATOM      3  N   UNL     1       6.476   5.786  15.921  0.00  0.00    +0.000 NA
ATOM      4  C   UNL     1       5.734   6.293  16.924  0.00  0.00    +0.000 A 
ATOM      5  N   UNL     1       6.208   7.422  17.619  0.00  0.00    +0.000 N 
ATOM      6  C   UNL     1       4.512   5.714  17.309  0.00  0.00    +0.000 A 
ATOM      7  C   UNL     1       3.656   6.185  18.339  0.00  0.00    +0.000 A 
ATOM      8  C   UNL     1       2.513   5.473  18.702  0.00  0.00    +0.000 A 
ATOM      9  C   UNL     1       2.209   4.288  18.046  0.00  0.00    +0.000 A 
ATOM     10  C   UNL     1       3.037   3.841  17.013  0.00  0.00    +0.000 A 
ATOM     11  C   UNL     1       4.173   4.542  16.633  0.00  0.00    +0.000 A 
ATOM     12  N   UNL     1       4.905   4.048  15.637  0.00  0.00    +0.000 NA
ATOM     13  H   UNL     1       7.340   5.023  13.918  0.00  0.00    +0.000 HD
ATOM     14  H   UNL     1       5.633   8.236  17.432  0.00  0.00    +0.000 HD
ENDROOT
BRANCH   5  15
ATOM     15  C   UNL     1       7.651   7.660  17.627  0.00  0.00    +0.000 C 
ATOM     16  C   UNL     1       8.003   9.131  17.822  0.00  0.00    +0.000 C 
ATOM     17  C   UNL     1       8.252   6.835  18.770  0.00  0.00    +0.000 C 
ENDBRANCH   5  15
BRANCH   1  19
ATOM     18  C   UNL     1       6.788   3.507  11.898  0.00  0.00    +0.000 C 
ATOM     19  C   UNL     1       5.991   3.576  13.190  0.00  0.00    +0.000 C 
ENDBRANCH   1  19
TORSDOF 2
ENDMDL
MODEL 3
REMARK VINA RESULT:      -6.7      2.124      3.971
REMARK  Name = 
REMARK  5 active torsions:
REMARK  status: ('A' for Active; 'I' for Inactive)
REMARK    1  A    between atoms: C_1  and  C_2
REMARK    2  A    between atoms: C_2  and  N_3
REMARK    3  A    between atoms: N_7  and  C_8
REMARK    4  A    between atoms: C_8  and  C_9
REMARK    5  A    between atoms: C_8  and  C_10
REMARK                            x       y       z     vdW  Elec       q    Type
REMARK                         _______ _______ _______ _____ _____    ______ ____
ROOT
ATOM      1  N   UNL     1       2.087   8.198  18.902  0.00  0.00    +0.000 N 
ATOM      2  C   UNL     1       2.789   7.098  18.417  0.00  0.00    +0.000 A 
ATOM      3  N   UNL     1       2.473   5.912  18.946  0.00  0.00    +0.000 NA
ATOM      4  C   UNL     1       3.083   4.819  18.450  0.00  0.00    +0.000 A 
ATOM      5  N   UNL     1       2.796   3.562  19.016  0.00  0.00    +0.000 N 
ATOM      6  C   UNL     1       4.013   4.900  17.398  0.00  0.00    +0.000 A 
ATOM      7  C   UNL     1       4.692   3.806  16.801  0.00  0.00    +0.000 A 
ATOM      8  C   UNL     1       5.669   4.014  15.827  0.00  0.00    +0.000 A 
ATOM      9  C   UNL     1       5.981   5.309  15.438  0.00  0.00    +0.000 A 
ATOM     10  C   UNL     1       5.291   6.384  16.007  0.00  0.00    +0.000 A 
ATOM     11  C   UNL     1       4.309   6.194  16.969  0.00  0.00    +0.000 A 
ATOM     12  N   UNL     1       3.699   7.272  17.457  0.00  0.00    +0.000 NA
ATOM     13  H   UNL     1       1.243   7.832  19.325  0.00  0.00    +0.000 HD
ATOM     14  H   UNL     1       2.284   2.975  18.366  0.00  0.00    +0.000 HD
ENDROOT
BRANCH   5  15
ATOM     15  C   UNL     1       2.322   3.531  20.399  0.00  0.00    +0.000 C 
ATOM     16  C   UNL     1       0.844   3.166  20.506  0.00  0.00    +0.000 C 
ATOM     17  C   UNL     1       3.160   2.496  21.156  0.00  0.00    +0.000 C 
ENDBRANCH   5  15
BRANCH   1  19
ATOM     18  C   UNL     1       0.547   9.914  18.117  0.00  0.00    +0.000 C 
ATOM     19  C   UNL     1       1.905   9.259  17.923  0.00  0.00    +0.000 C 
ENDBRANCH   1  19
TORSDOF 2
ENDMDL
MODEL 4
REMARK VINA RESULT:      -6.7      3.186      5.532
REMARK  Name = 
REMARK  5 active torsions:
REMARK  status: ('A' for Active; 'I' for Inactive)
REMARK    1  A    between atoms: C_1  and  C_2
REMARK    2  A    between atoms: C_2  and  N_3
REMARK    3  A    between atoms: N_7  and  C_8
REMARK    4  A    between atoms: C_8  and  C_9
REMARK    5  A    between atoms: C_8  and  C_10
REMARK                            x       y       z     vdW  Elec       q    Type
REMARK                         _______ _______ _______ _____ _____    ______ ____
ROOT
ATOM      1  N   UNL     1       7.228   6.864  17.904  0.00  0.00    +0.000 N 
ATOM      2  C   UNL     1       6.770   5.997  16.917  0.00  0.00    +0.000 A 
ATOM      3  N   UNL     1       5.687   5.273  17.218  0.00  0.00    +0.000 NA
ATOM      4  C   UNL     1       5.176   4.476  16.261  0.00  0.00    +0.000 A 
ATOM      5  N   UNL     1       4.059   3.675  16.566  0.00  0.00    +0.000 N 
ATOM      6  C   UNL     1       5.739   4.406  14.974  0.00  0.00    +0.000 A 
ATOM      7  C   UNL     1       5.262   3.610  13.899  0.00  0.00    +0.000 A 
ATOM      8  C   UNL     1       5.959   3.544  12.693  0.00  0.00    +0.000 A 
ATOM      9  C   UNL     1       7.135   4.267  12.542  0.00  0.00    +0.000 A 
ATOM     10  C   UNL     1       7.588   5.072  13.592  0.00  0.00    +0.000 A 
ATOM     11  C   UNL     1       6.901   5.156  14.795  0.00  0.00    +0.000 A 
ATOM     12  N   UNL     1       7.399   5.949  15.741  0.00  0.00    +0.000 NA
ATOM     13  H   UNL     1       6.450   7.014  18.534  0.00  0.00    +0.000 HD
ATOM     14  H   UNL     1       3.235   3.989  16.064  0.00  0.00    +0.000 HD
ENDROOT
BRANCH   5  15
ATOM     15  C   UNL     1       3.843   3.314  17.966  0.00  0.00    +0.000 C 
ATOM     16  C   UNL     1       2.691   4.086  18.602  0.00  0.00    +0.000 C 
ATOM     17  C   UNL     1       3.542   1.812  18.018  0.00  0.00    +0.000 C 
ENDBRANCH   5  15
BRANCH   1  19
ATOM     18  C   UNL     1       8.488   8.854  18.526  0.00  0.00    +0.000 C 
ATOM     19  C   UNL     1       7.871   8.062  17.384  0.00  0.00    +0.000 C 
ENDBRANCH   1  19
TORSDOF 2
ENDMDL
MODEL 5
REMARK VINA RESULT:      -6.7      1.713      5.202
REMARK  Name = 
REMARK  5 active torsions:
REMARK  status: ('A' for Active; 'I' for Inactive)
REMARK    1  A    between atoms: C_1  and  C_2
REMARK    2  A    between atoms: C_2  and  N_3
REMARK    3  A    between atoms: N_7  and  C_8
REMARK    4  A    between atoms: C_8  and  C_9
REMARK    5  A    between atoms: C_8  and  C_10
REMARK                            x       y       z     vdW  Elec       q    Type
REMARK                         _______ _______ _______ _____ _____    ______ ____
ROOT
ATOM      1  N   UNL     1       5.376   3.744  17.067  0.00  0.00    +0.000 N 
ATOM      2  C   UNL     1       4.473   4.603  17.686  0.00  0.00    +0.000 A 
ATOM      3  N   UNL     1       3.815   4.113  18.741  0.00  0.00    +0.000 NA
ATOM      4  C   UNL     1       2.985   4.939  19.406  0.00  0.00    +0.000 A 
ATOM      5  N   UNL     1       2.252   4.436  20.498  0.00  0.00    +0.000 N 
ATOM      6  C   UNL     1       2.815   6.283  19.026  0.00  0.00    +0.000 A 
ATOM      7  C   UNL     1       1.978   7.230  19.672  0.00  0.00    +0.000 A 
ATOM      8  C   UNL     1       1.810   8.512  19.149  0.00  0.00    +0.000 A 
ATOM      9  C   UNL     1       2.471   8.865  17.981  0.00  0.00    +0.000 A 
ATOM     10  C   UNL     1       3.316   7.941  17.362  0.00  0.00    +0.000 A 
ATOM     11  C   UNL     1       3.502   6.664  17.874  0.00  0.00    +0.000 A 
ATOM     12  N   UNL     1       4.327   5.846  17.224  0.00  0.00    +0.000 NA
ATOM     13  H   UNL     1       5.596   3.026  17.747  0.00  0.00    +0.000 HD
ATOM     14  H   UNL     1       2.571   4.842  21.371  0.00  0.00    +0.000 HD
ENDROOT
BRANCH   5  15
ATOM     15  C   UNL     1       1.984   2.999  20.533  0.00  0.00    +0.000 C 
ATOM     16  C   UNL     1       1.651   2.498  21.935  0.00  0.00    +0.000 C 
ATOM     17  C   UNL     1       0.803   2.723  19.597  0.00  0.00    +0.000 C 
ENDBRANCH   5  15
BRANCH   1  19
ATOM     18  C   UNL     1       7.619   4.596  17.487  0.00  0.00    +0.000 C 
ATOM     19  C   UNL     1       6.512   4.422  16.460  0.00  0.00    +0.000 C 
ENDBRANCH   1  19
TORSDOF 2
ENDMDL
MODEL 6
REMARK VINA RESULT:      -6.7      0.953      4.466
REMARK  Name = 
REMARK  5 active torsions:
REMARK  status: ('A' for Active; 'I' for Inactive)
REMARK    1  A    between atoms: C_1  and  C_2
REMARK    2  A    between atoms: C_2  and  N_3
REMARK    3  A    between atoms: N_7  and  C_8
REMARK    4  A    between atoms: C_8  and  C_9
REMARK    5  A    between atoms: C_8  and  C_10
REMARK                            x       y       z     vdW  Elec       q    Type
REMARK                         _______ _______ _______ _____ _____    ______ ____
ROOT
ATOM      1  N   UNL     1       6.563   5.701  18.413  0.00  0.00    +0.000 N 
ATOM      2  C   UNL     1       5.248   5.249  18.469  0.00  0.00    +0.000 A 
ATOM      3  N   UNL     1       4.295   6.177  18.340  0.00  0.00    +0.000 NA
ATOM      4  C   UNL     1       3.013   5.766  18.321  0.00  0.00    +0.000 A 
ATOM      5  N   UNL     1       1.989   6.729  18.224  0.00  0.00    +0.000 N 
ATOM      6  C   UNL     1       2.668   4.406  18.415  0.00  0.00    +0.000 A 
ATOM      7  C   UNL     1       1.351   3.878  18.387  0.00  0.00    +0.000 A 
ATOM      8  C   UNL     1       1.120   2.517  18.587  0.00  0.00    +0.000 A 
ATOM      9  C   UNL     1       2.194   1.669  18.817  0.00  0.00    +0.000 A 
ATOM     10  C   UNL     1       3.493   2.186  18.816  0.00  0.00    +0.000 A 
ATOM     11  C   UNL     1       3.740   3.536  18.609  0.00  0.00    +0.000 A 
ATOM     12  N   UNL     1       5.007   3.945  18.620  0.00  0.00    +0.000 NA
ATOM     13  H   UNL     1       6.534   6.602  17.952  0.00  0.00    +0.000 HD
ATOM     14  H   UNL     1       1.514   6.670  17.330  0.00  0.00    +0.000 HD
ENDROOT
BRANCH   5  15
ATOM     15  C   UNL     1       2.283   8.082  18.693  0.00  0.00    +0.000 C 
ATOM     16  C   UNL     1       1.661   9.158  17.808  0.00  0.00    +0.000 C 
ATOM     17  C   UNL     1       1.733   8.211  20.118  0.00  0.00    +0.000 C 
ENDBRANCH   5  15
BRANCH   1  19
ATOM     18  C   UNL     1       7.314   4.637  16.354  0.00  0.00    +0.000 C 
ATOM     19  C   UNL     1       7.496   4.729  17.861  0.00  0.00    +0.000 C 
ENDBRANCH   1  19
TORSDOF 2
ENDMDL
MODEL 7
REMARK VINA RESULT:      -6.6      1.992      5.117
REMARK  Name = 
REMARK  5 active torsions:
REMARK  status: ('A' for Active; 'I' for Inactive)
REMARK    1  A    between atoms: C_1  and  C_2
REMARK    2  A    between atoms: C_2  and  N_3
REMARK    3  A    between atoms: N_7  and  C_8
REMARK    4  A    between atoms: C_8  and  C_9
REMARK    5  A    between atoms: C_8  and  C_10
REMARK                            x       y       z     vdW  Elec       q    Type
REMARK                         _______ _______ _______ _____ _____    ______ ____
ROOT
ATOM      1  N   UNL     1       4.777   5.431  16.915  0.00  0.00    +0.000 N 
ATOM      2  C   UNL     1       3.862   6.059  17.754  0.00  0.00    +0.000 A 
ATOM      3  N   UNL     1       3.451   5.356  18.815  0.00  0.00    +0.000 NA
ATOM      4  C   UNL     1       2.619   5.959  19.685  0.00  0.00    +0.000 A 
ATOM      5  N   UNL     1       2.141   5.228  20.790  0.00  0.00    +0.000 N 
ATOM      6  C   UNL     1       2.198   7.289  19.510  0.00  0.00    +0.000 A 
ATOM      7  C   UNL     1       1.339   8.012  20.380  0.00  0.00    +0.000 A 
ATOM      8  C   UNL     1       0.908   9.298  20.055  0.00  0.00    +0.000 A 
ATOM      9  C   UNL     1       1.326   9.879  18.866  0.00  0.00    +0.000 A 
ATOM     10  C   UNL     1       2.194   9.177  18.025  0.00  0.00    +0.000 A 
ATOM     11  C   UNL     1       2.640   7.900  18.337  0.00  0.00    +0.000 A 
ATOM     12  N   UNL     1       3.468   7.304  17.482  0.00  0.00    +0.000 NA
ATOM     13  H   UNL     1       5.201   4.690  17.459  0.00  0.00    +0.000 HD
ATOM     14  H   UNL     1       2.525   5.583  21.658  0.00  0.00    +0.000 HD
ENDROOT
BRANCH   5  15
ATOM     15  C   UNL     1       2.095   3.771  20.672  0.00  0.00    +0.000 C 
ATOM     16  C   UNL     1       2.208   3.069  22.022  0.00  0.00    +0.000 C 
ATOM     17  C   UNL     1       0.764   3.399  20.011  0.00  0.00    +0.000 C 
ENDBRANCH   5  15
BRANCH   1  19
ATOM     18  C   UNL     1       6.955   6.509  17.094  0.00  0.00    +0.000 C 
ATOM     19  C   UNL     1       5.697   6.348  16.256  0.00  0.00    +0.000 C 
ENDBRANCH   1  19
TORSDOF 2
ENDMDL
MODEL 8
REMARK VINA RESULT:      -6.5      1.571      1.796
REMARK  Name = 
REMARK  5 active torsions:
REMARK  status: ('A' for Active; 'I' for Inactive)
REMARK    1  A    between atoms: C_1  and  C_2
REMARK    2  A    between atoms: C_2  and  N_3
REMARK    3  A    between atoms: N_7  and  C_8
REMARK    4  A    between atoms: C_8  and  C_9
REMARK    5  A    between atoms: C_8  and  C_10
REMARK                            x       y       z     vdW  Elec       q    Type
REMARK                         _______ _______ _______ _____ _____    ______ ____
ROOT
ATOM      1  N   UNL     1       2.964   7.807  17.645  0.00  0.00    +0.000 N 
ATOM      2  C   UNL     1       3.059   6.419  17.666  0.00  0.00    +0.000 A 
ATOM      3  N   UNL     1       4.163   5.892  17.126  0.00  0.00    +0.000 NA
ATOM      4  C   UNL     1       4.319   4.557  17.190  0.00  0.00    +0.000 A 
ATOM      5  N   UNL     1       5.455   3.974  16.596  0.00  0.00    +0.000 N 
ATOM      6  C   UNL     1       3.372   3.727  17.817  0.00  0.00    +0.000 A 
ATOM      7  C   UNL     1       3.459   2.316  17.948  0.00  0.00    +0.000 A 
ATOM      8  C   UNL     1       2.410   1.583  18.503  0.00  0.00    +0.000 A 
ATOM      9  C   UNL     1       1.267   2.243  18.932  0.00  0.00    +0.000 A 
ATOM     10  C   UNL     1       1.195   3.634  18.828  0.00  0.00    +0.000 A 
ATOM     11  C   UNL     1       2.233   4.380  18.287  0.00  0.00    +0.000 A 
ATOM     12  N   UNL     1       2.085   5.702  18.228  0.00  0.00    +0.000 NA
ATOM     13  H   UNL     1       3.907   8.155  17.522  0.00  0.00    +0.000 HD
ATOM     14  H   UNL     1       6.082   3.594  17.297  0.00  0.00    +0.000 HD
ENDROOT
BRANCH   5  15
ATOM     15  C   UNL     1       6.100   4.701  15.503  0.00  0.00    +0.000 C 
ATOM     16  C   UNL     1       7.531   5.112  15.835  0.00  0.00    +0.000 C 
ATOM     17  C   UNL     1       6.101   3.788  14.273  0.00  0.00    +0.000 C 
ENDBRANCH   5  15
BRANCH   1  19
ATOM     18  C   UNL     1       1.310   9.480  18.279  0.00  0.00    +0.000 C 
ATOM     19  C   UNL     1       2.218   8.363  18.766  0.00  0.00    +0.000 C 
ENDBRANCH   1  19
TORSDOF 2
ENDMDL
MODEL 9
REMARK VINA RESULT:      -6.4      1.947      4.670
REMARK  Name = 
REMARK  5 active torsions:
REMARK  status: ('A' for Active; 'I' for Inactive)
REMARK    1  A    between atoms: C_1  and  C_2
REMARK    2  A    between atoms: C_2  and  N_3
REMARK    3  A    between atoms: N_7  and  C_8
REMARK    4  A    between atoms: C_8  and  C_9
REMARK    5  A    between atoms: C_8  and  C_10
REMARK                            x       y       z     vdW  Elec       q    Type
REMARK                         _______ _______ _______ _____ _____    ______ ____
ROOT
ATOM      1  N   UNL     1       3.244   3.826  20.477  0.00  0.00    +0.000 N 
ATOM      2  C   UNL     1       3.125   5.036  19.800  0.00  0.00    +0.000 A 
ATOM      3  N   UNL     1       3.804   5.144  18.654  0.00  0.00    +0.000 NA
ATOM      4  C   UNL     1       3.656   6.275  17.938  0.00  0.00    +0.000 A 
ATOM      5  N   UNL     1       4.390   6.429  16.746  0.00  0.00    +0.000 N 
ATOM      6  C   UNL     1       2.806   7.314  18.359  0.00  0.00    +0.000 A 
ATOM      7  C   UNL     1       2.575   8.532  17.667  0.00  0.00    +0.000 A 
ATOM      8  C   UNL     1       1.785   9.536  18.228  0.00  0.00    +0.000 A 
ATOM      9  C   UNL     1       1.219   9.340  19.480  0.00  0.00    +0.000 A 
ATOM     10  C   UNL     1       1.425   8.130  20.148  0.00  0.00    +0.000 A 
ATOM     11  C   UNL     1       2.200   7.117  19.599  0.00  0.00    +0.000 A 
ATOM     12  N   UNL     1       2.343   5.994  20.300  0.00  0.00    +0.000 NA
ATOM     13  H   UNL     1       3.560   3.148  19.794  0.00  0.00    +0.000 HD
ATOM     14  H   UNL     1       3.780   6.413  15.936  0.00  0.00    +0.000 HD
ENDROOT
BRANCH   5  15
ATOM     15  C   UNL     1       5.635   5.674  16.612  0.00  0.00    +0.000 C 
ATOM     16  C   UNL     1       5.924   5.269  15.170  0.00  0.00    +0.000 C 
ATOM     17  C   UNL     1       6.773   6.558  17.133  0.00  0.00    +0.000 C 
ENDBRANCH   5  15
BRANCH   1  19
ATOM     18  C   UNL     1       1.009   2.870  20.317  0.00  0.00    +0.000 C 
ATOM     19  C   UNL     1       2.061   3.460  21.242  0.00  0.00    +0.000 C 
ENDBRANCH   1  19
TORSDOF 2
ENDMDL
