MODEL 1
REMARK VINA RESULT:      -8.1      0.000      0.000
REMARK  Name = 
REMARK  14 active torsions:
REMARK  status: ('A' for Active; 'I' for Inactive)
REMARK    1  A    between atoms: C_1  and  C_2
REMARK    2  A    between atoms: C_2  and  O_3
REMARK    3  A    between atoms: O_3  and  C_4
REMARK    4  A    between atoms: C_7  and  C_8
REMARK    5  A    between atoms: C_9  and  C_10
REMARK    6  A    between atoms: C_13  and  C_14
REMARK    7  A    between atoms: C_20  and  C_21
REMARK    8  A    between atoms: N_23  and  C_24
REMARK    9  A    between atoms: C_24  and  C_25
REMARK   10  A    between atoms: C_25  and  O_26
REMARK   11  A    between atoms: O_26  and  C_27
REMARK   12  A    between atoms: C_32  and  O_33
REMARK   13  A    between atoms: O_33  and  C_34
REMARK   14  A    between atoms: C_34  and  C_35
REMARK                            x       y       z     vdW  Elec       q    Type
REMARK                         _______ _______ _______ _____ _____    ______ ____
ROOT
ATOM      1  C   UNL     1       2.721   6.583  18.994  0.00  0.00    +0.000 A 
ATOM      2  C   UNL     1       2.136   6.326  20.264  0.00  0.00    +0.000 A 
ATOM      3  C   UNL     1       2.226   5.119  21.127  0.00  0.00    +0.000 C 
ATOM      4  N   UNL     1       1.438   7.370  20.720  0.00  0.00    +0.000 NA
ATOM      5  N   UNL     1       1.602   8.355  19.798  0.00  0.00    +0.000 N 
ATOM      6  C   UNL     1       1.103   9.679  19.848  0.00  0.00    +0.000 A 
ATOM      7  C   UNL     1       1.422  10.554  18.861  0.00  0.00    +0.000 A 
ATOM      8  C   UNL     1       2.275   9.968  17.787  0.00  0.00    +0.000 A 
ATOM      9  N   UNL     1       2.712   8.751  17.697  0.00  0.00    +0.000 NA
ATOM     10  C   UNL     1       2.388   7.912  18.729  0.00  0.00    +0.000 A 
ENDROOT
BRANCH   1  14
ATOM     11  C   UNL     1       5.137   4.167  16.367  0.00  0.00    +0.000 A 
ATOM     12  C   UNL     1       3.792   3.868  16.618  0.00  0.00    +0.000 A 
ATOM     13  C   UNL     1       3.020   4.654  17.463  0.00  0.00    +0.000 A 
ATOM     14  C   UNL     1       3.562   5.752  18.135  0.00  0.00    +0.000 A 
ATOM     15  C   UNL     1       4.926   6.022  17.931  0.00  0.00    +0.000 A 
ATOM     16  C   UNL     1       5.715   5.243  17.059  0.00  0.00    +0.000 A 
BRANCH  11  17
ATOM     17  O   UNL     1       5.887   3.446  15.468  0.00  0.00    +0.000 OA
BRANCH  17  19
ATOM     18  C   UNL     1       5.681   3.552  13.061  0.00  0.00    +0.000 C 
ATOM     19  C   UNL     1       6.310   4.158  14.301  0.00  0.00    +0.000 C 
ENDBRANCH  17  19
ENDBRANCH  11  17
BRANCH  16  20
ATOM     20  O   UNL     1       7.001   5.721  16.921  0.00  0.00    +0.000 OA
BRANCH  20  21
ATOM     21  C   UNL     1       7.516   6.490  18.008  0.00  0.00    +0.000 C 
ATOM     22  C   UNL     1       7.803   7.901  17.532  0.00  0.00    +0.000 C 
ENDBRANCH  20  21
ENDBRANCH  16  20
ENDBRANCH   1  14
BRANCH   6  23
ATOM     23  C   UNL     1       0.233  10.049  20.984  0.00  0.00    +0.000 A 
ATOM     24  C   UNL     1       0.484   9.516  22.256  0.00  0.00    +0.000 A 
ATOM     25  C   UNL     1      -0.324   9.868  23.339  0.00  0.00    +0.000 A 
ATOM     26  C   UNL     1      -1.386  10.753  23.158  0.00  0.00    +0.000 A 
ATOM     27  C   UNL     1      -1.640  11.290  21.896  0.00  0.00    +0.000 A 
ATOM     28  C   UNL     1      -0.832  10.940  20.813  0.00  0.00    +0.000 A 
ENDBRANCH   6  23
BRANCH   7  29
ATOM     29  C   UNL     1       1.043  12.005  18.845  0.00  0.00    +0.000 C 
ATOM     30  O   UNL     1       0.023  12.414  18.298  0.00  0.00    +0.000 OA
ATOM     31  N   UNL     1       1.886  12.866  19.518  0.00  0.00    +0.000 N 
ATOM     32  H   UNL     1       2.838  12.597  19.734  0.00  0.00    +0.000 HD
BRANCH  31  33
ATOM     33  C   UNL     1       1.628  14.301  19.475  0.00  0.00    +0.000 C 
BRANCH  33  34
ATOM     34  C   UNL     1       2.574  15.044  18.532  0.00  0.00    +0.000 C 
BRANCH  34  35
ATOM     35  O   UNL     1       3.732  14.235  18.300  0.00  0.00    +0.000 OA
ATOM     36  C   UNL     1       4.844  15.023  17.889  0.00  0.00    +0.000 C 
ENDBRANCH  34  35
ENDBRANCH  33  34
ENDBRANCH  31  33
ENDBRANCH   7  29
TORSDOF 10
ENDMDL
MODEL 2
REMARK VINA RESULT:      -8.0      1.990      8.601
REMARK  Name = 
REMARK  14 active torsions:
REMARK  status: ('A' for Active; 'I' for Inactive)
REMARK    1  A    between atoms: C_1  and  C_2
REMARK    2  A    between atoms: C_2  and  O_3
REMARK    3  A    between atoms: O_3  and  C_4
REMARK    4  A    between atoms: C_7  and  C_8
REMARK    5  A    between atoms: C_9  and  C_10
REMARK    6  A    between atoms: C_13  and  C_14
REMARK    7  A    between atoms: C_20  and  C_21
REMARK    8  A    between atoms: N_23  and  C_24
REMARK    9  A    between atoms: C_24  and  C_25
REMARK   10  A    between atoms: C_25  and  O_26
REMARK   11  A    between atoms: O_26  and  C_27
REMARK   12  A    between atoms: C_32  and  O_33
REMARK   13  A    between atoms: O_33  and  C_34
REMARK   14  A    between atoms: C_34  and  C_35
REMARK                            x       y       z     vdW  Elec       q    Type
REMARK                         _______ _______ _______ _____ _____    ______ ____
ROOT
ATOM      1  C   UNL     1       0.956   9.256  20.155  0.00  0.00    +0.000 A 
ATOM      2  C   UNL     1       0.515   8.402  21.201  0.00  0.00    +0.000 A 
ATOM      3  C   UNL     1      -0.426   8.675  22.320  0.00  0.00    +0.000 C 
ATOM      4  N   UNL     1       1.024   7.171  21.100  0.00  0.00    +0.000 NA
ATOM      5  N   UNL     1       1.756   7.169  19.954  0.00  0.00    +0.000 N 
ATOM      6  C   UNL     1       2.453   6.081  19.374  0.00  0.00    +0.000 A 
ATOM      7  C   UNL     1       3.081   6.244  18.183  0.00  0.00    +0.000 A 
ATOM      8  C   UNL     1       2.973   7.624  17.627  0.00  0.00    +0.000 A 
ATOM      9  N   UNL     1       2.375   8.647  18.155  0.00  0.00    +0.000 NA
ATOM     10  C   UNL     1       1.732   8.427  19.343  0.00  0.00    +0.000 A 
ENDROOT
BRANCH   1  14
ATOM     11  C   UNL     1       0.172  13.395  19.239  0.00  0.00    +0.000 A 
ATOM     12  C   UNL     1       1.121  13.016  20.197  0.00  0.00    +0.000 A 
ATOM     13  C   UNL     1       1.371  11.680  20.483  0.00  0.00    +0.000 A 
ATOM     14  C   UNL     1       0.654  10.656  19.861  0.00  0.00    +0.000 A 
ATOM     15  C   UNL     1      -0.340  11.032  18.941  0.00  0.00    +0.000 A 
ATOM     16  C   UNL     1      -0.587  12.386  18.627  0.00  0.00    +0.000 A 
BRANCH  11  17
ATOM     17  O   UNL     1      -0.022  14.710  18.889  0.00  0.00    +0.000 OA
BRANCH  17  19
ATOM     18  C   UNL     1       1.721  16.345  18.524  0.00  0.00    +0.000 C 
ATOM     19  C   UNL     1       0.830  15.657  19.540  0.00  0.00    +0.000 C 
ENDBRANCH  17  19
ENDBRANCH  11  17
BRANCH  16  20
ATOM     20  O   UNL     1      -1.533  12.546  17.637  0.00  0.00    +0.000 OA
BRANCH  20  21
ATOM     21  C   UNL     1      -2.523  11.524  17.528  0.00  0.00    +0.000 C 
ATOM     22  C   UNL     1      -2.657  11.110  16.075  0.00  0.00    +0.000 C 
ENDBRANCH  20  21
ENDBRANCH  16  20
ENDBRANCH   1  14
BRANCH   6  23
ATOM     23  C   UNL     1       2.476   4.801  20.113  0.00  0.00    +0.000 A 
ATOM     24  C   UNL     1       1.283   4.273  20.630  0.00  0.00    +0.000 A 
ATOM     25  C   UNL     1       1.292   3.059  21.319  0.00  0.00    +0.000 A 
ATOM     26  C   UNL     1       2.488   2.364  21.496  0.00  0.00    +0.000 A 
ATOM     27  C   UNL     1       3.677   2.882  20.981  0.00  0.00    +0.000 A 
ATOM     28  C   UNL     1       3.670   4.095  20.290  0.00  0.00    +0.000 A 
ENDBRANCH   6  23
BRANCH   7  29
ATOM     29  C   UNL     1       3.767   5.152  17.418  0.00  0.00    +0.000 C 
ATOM     30  O   UNL     1       3.150   4.241  16.873  0.00  0.00    +0.000 OA
ATOM     31  N   UNL     1       5.141   5.242  17.318  0.00  0.00    +0.000 N 
ATOM     32  H   UNL     1       5.671   5.813  17.965  0.00  0.00    +0.000 HD
BRANCH  31  33
ATOM     33  C   UNL     1       5.884   4.174  16.661  0.00  0.00    +0.000 C 
BRANCH  33  34
ATOM     34  C   UNL     1       7.311   4.581  16.299  0.00  0.00    +0.000 C 
BRANCH  34  35
ATOM     35  O   UNL     1       7.401   4.759  14.881  0.00  0.00    +0.000 OA
ATOM     36  C   UNL     1       6.345   4.088  14.203  0.00  0.00    +0.000 C 
ENDBRANCH  34  35
ENDBRANCH  33  34
ENDBRANCH  31  33
ENDBRANCH   7  29
TORSDOF 10
ENDMDL
MODEL 3
REMARK VINA RESULT:      -7.9      1.961      8.424
REMARK  Name = 
REMARK  14 active torsions:
REMARK  status: ('A' for Active; 'I' for Inactive)
REMARK    1  A    between atoms: C_1  and  C_2
REMARK    2  A    between atoms: C_2  and  O_3
REMARK    3  A    between atoms: O_3  and  C_4
REMARK    4  A    between atoms: C_7  and  C_8
REMARK    5  A    between atoms: C_9  and  C_10
REMARK    6  A    between atoms: C_13  and  C_14
REMARK    7  A    between atoms: C_20  and  C_21
REMARK    8  A    between atoms: N_23  and  C_24
REMARK    9  A    between atoms: C_24  and  C_25
REMARK   10  A    between atoms: C_25  and  O_26
REMARK   11  A    between atoms: O_26  and  C_27
REMARK   12  A    between atoms: C_32  and  O_33
REMARK   13  A    between atoms: O_33  and  C_34
REMARK   14  A    between atoms: C_34  and  C_35
REMARK                            x       y       z     vdW  Elec       q    Type
REMARK                         _______ _______ _______ _____ _____    ______ ____
ROOT
ATOM      1  C   UNL     1       0.913   9.617  20.428  0.00  0.00    +0.000 A 
ATOM      2  C   UNL     1       0.303   8.752  21.376  0.00  0.00    +0.000 A 
ATOM      3  C   UNL     1      -0.689   9.055  22.442  0.00  0.00    +0.000 C 
ATOM      4  N   UNL     1       0.686   7.481  21.222  0.00  0.00    +0.000 NA
ATOM      5  N   UNL     1       1.501   7.471  20.134  0.00  0.00    +0.000 N 
ATOM      6  C   UNL     1       2.123   6.352  19.528  0.00  0.00    +0.000 A 
ATOM      7  C   UNL     1       2.856   6.521  18.400  0.00  0.00    +0.000 A 
ATOM      8  C   UNL     1       2.938   7.937  17.938  0.00  0.00    +0.000 A 
ATOM      9  N   UNL     1       2.411   8.984  18.495  0.00  0.00    +0.000 NA
ATOM     10  C   UNL     1       1.658   8.761  19.616  0.00  0.00    +0.000 A 
ENDROOT
BRANCH   1  14
ATOM     11  C   UNL     1       0.417  13.855  19.819  0.00  0.00    +0.000 A 
ATOM     12  C   UNL     1      -0.107  12.913  18.924  0.00  0.00    +0.000 A 
ATOM     13  C   UNL     1       0.054  11.549  19.131  0.00  0.00    +0.000 A 
ATOM     14  C   UNL     1       0.784  11.057  20.215  0.00  0.00    +0.000 A 
ATOM     15  C   UNL     1       1.360  12.000  21.084  0.00  0.00    +0.000 A 
ATOM     16  C   UNL     1       1.185  13.388  20.895  0.00  0.00    +0.000 A 
BRANCH  11  17
ATOM     17  O   UNL     1       0.191  15.203  19.669  0.00  0.00    +0.000 OA
BRANCH  17  19
ATOM     18  C   UNL     1       2.068  16.118  18.449  0.00  0.00    +0.000 C 
ATOM     19  C   UNL     1       0.594  15.764  18.416  0.00  0.00    +0.000 C 
ENDBRANCH  17  19
ENDBRANCH  11  17
BRANCH  16  20
ATOM     20  O   UNL     1       1.748  14.144  21.902  0.00  0.00    +0.000 OA
BRANCH  20  21
ATOM     21  C   UNL     1       3.086  14.595  21.691  0.00  0.00    +0.000 C 
ATOM     22  C   UNL     1       3.186  16.059  22.075  0.00  0.00    +0.000 C 
ENDBRANCH  20  21
ENDBRANCH  16  20
ENDBRANCH   1  14
BRANCH   6  23
ATOM     23  C   UNL     1       1.952   5.033  20.172  0.00  0.00    +0.000 A 
ATOM     24  C   UNL     1       0.921   4.180  19.752  0.00  0.00    +0.000 A 
ATOM     25  C   UNL     1       0.759   2.927  20.345  0.00  0.00    +0.000 A 
ATOM     26  C   UNL     1       1.623   2.517  21.360  0.00  0.00    +0.000 A 
ATOM     27  C   UNL     1       2.654   3.359  21.780  0.00  0.00    +0.000 A 
ATOM     28  C   UNL     1       2.818   4.612  21.186  0.00  0.00    +0.000 A 
ENDBRANCH   6  23
BRANCH   7  29
ATOM     29  C   UNL     1       3.481   5.411  17.607  0.00  0.00    +0.000 C 
ATOM     30  O   UNL     1       2.816   4.531  17.067  0.00  0.00    +0.000 OA
ATOM     31  N   UNL     1       4.854   5.448  17.477  0.00  0.00    +0.000 N 
ATOM     32  H   UNL     1       5.421   5.990  18.118  0.00  0.00    +0.000 HD
BRANCH  31  33
ATOM     33  C   UNL     1       5.539   4.358  16.793  0.00  0.00    +0.000 C 
BRANCH  33  34
ATOM     34  C   UNL     1       7.050   4.569  16.707  0.00  0.00    +0.000 C 
BRANCH  34  35
ATOM     35  O   UNL     1       7.341   5.411  15.587  0.00  0.00    +0.000 OA
ATOM     36  C   UNL     1       6.873   4.840  14.370  0.00  0.00    +0.000 C 
ENDBRANCH  34  35
ENDBRANCH  33  34
ENDBRANCH  31  33
ENDBRANCH   7  29
TORSDOF 10
ENDMDL
MODEL 4
REMARK VINA RESULT:      -7.9      2.926      5.410
REMARK  Name = 
REMARK  14 active torsions:
REMARK  status: ('A' for Active; 'I' for Inactive)
REMARK    1  A    between atoms: C_1  and  C_2
REMARK    2  A    between atoms: C_2  and  O_3
REMARK    3  A    between atoms: O_3  and  C_4
REMARK    4  A    between atoms: C_7  and  C_8
REMARK    5  A    between atoms: C_9  and  C_10
REMARK    6  A    between atoms: C_13  and  C_14
REMARK    7  A    between atoms: C_20  and  C_21
REMARK    8  A    between atoms: N_23  and  C_24
REMARK    9  A    between atoms: C_24  and  C_25
REMARK   10  A    between atoms: C_25  and  O_26
REMARK   11  A    between atoms: O_26  and  C_27
REMARK   12  A    between atoms: C_32  and  O_33
REMARK   13  A    between atoms: O_33  and  C_34
REMARK   14  A    between atoms: C_34  and  C_35
REMARK                            x       y       z     vdW  Elec       q    Type
REMARK                         _______ _______ _______ _____ _____    ______ ____
ROOT
ATOM      1  C   UNL     1       1.727   8.144  19.838  0.00  0.00    +0.000 A 
ATOM      2  C   UNL     1       1.962   9.019  18.744  0.00  0.00    +0.000 A 
ATOM      3  C   UNL     1       2.559   8.738  17.411  0.00  0.00    +0.000 C 
ATOM      4  N   UNL     1       1.533  10.260  18.987  0.00  0.00    +0.000 NA
ATOM      5  N   UNL     1       0.950  10.216  20.213  0.00  0.00    +0.000 N 
ATOM      6  C   UNL     1       0.294  11.267  20.900  0.00  0.00    +0.000 A 
ATOM      7  C   UNL     1      -0.292  11.024  22.098  0.00  0.00    +0.000 A 
ATOM      8  C   UNL     1      -0.137   9.618  22.572  0.00  0.00    +0.000 A 
ATOM      9  N   UNL     1       0.491   8.647  21.983  0.00  0.00    +0.000 NA
ATOM     10  C   UNL     1       1.042   8.933  20.764  0.00  0.00    +0.000 A 
ENDROOT
BRANCH   1  14
ATOM     11  C   UNL     1       2.492   3.924  20.270  0.00  0.00    +0.000 A 
ATOM     12  C   UNL     1       1.257   4.490  20.610  0.00  0.00    +0.000 A 
ATOM     13  C   UNL     1       1.018   5.851  20.464  0.00  0.00    +0.000 A 
ATOM     14  C   UNL     1       2.012   6.721  20.014  0.00  0.00    +0.000 A 
ATOM     15  C   UNL     1       3.271   6.166  19.725  0.00  0.00    +0.000 A 
ATOM     16  C   UNL     1       3.519   4.782  19.850  0.00  0.00    +0.000 A 
BRANCH  11  17
ATOM     17  O   UNL     1       2.711   2.568  20.331  0.00  0.00    +0.000 OA
BRANCH  17  19
ATOM     18  C   UNL     1       2.479   2.112  17.967  0.00  0.00    +0.000 C 
ATOM     19  C   UNL     1       2.002   1.781  19.368  0.00  0.00    +0.000 C 
ENDBRANCH  17  19
ENDBRANCH  11  17
BRANCH  16  20
ATOM     20  O   UNL     1       4.782   4.421  19.433  0.00  0.00    +0.000 OA
BRANCH  20  21
ATOM     21  C   UNL     1       5.357   5.201  18.384  0.00  0.00    +0.000 C 
ATOM     22  C   UNL     1       5.205   4.460  17.069  0.00  0.00    +0.000 C 
ENDBRANCH  20  21
ENDBRANCH  16  20
ENDBRANCH   1  14
BRANCH   6  23
ATOM     23  C   UNL     1       0.291  12.606  20.273  0.00  0.00    +0.000 A 
ATOM     24  C   UNL     1      -0.755  12.970  19.412  0.00  0.00    +0.000 A 
ATOM     25  C   UNL     1      -0.773  14.237  18.825  0.00  0.00    +0.000 A 
ATOM     26  C   UNL     1       0.249  15.146  19.094  0.00  0.00    +0.000 A 
ATOM     27  C   UNL     1       1.290  14.792  19.952  0.00  0.00    +0.000 A 
ATOM     28  C   UNL     1       1.309  13.526  20.541  0.00  0.00    +0.000 A 
ENDBRANCH   6  23
BRANCH   7  29
ATOM     29  C   UNL     1      -1.099  12.019  22.877  0.00  0.00    +0.000 C 
ATOM     30  O   UNL     1      -0.585  12.954  23.485  0.00  0.00    +0.000 OA
ATOM     31  N   UNL     1      -2.469  11.857  22.846  0.00  0.00    +0.000 N 
ATOM     32  H   UNL     1      -2.880  10.968  22.587  0.00  0.00    +0.000 HD
BRANCH  31  33
ATOM     33  C   UNL     1      -3.314  12.735  23.647  0.00  0.00    +0.000 C 
BRANCH  33  34
ATOM     34  C   UNL     1      -4.712  12.912  23.056  0.00  0.00    +0.000 C 
BRANCH  34  35
ATOM     35  O   UNL     1      -5.656  12.212  23.873  0.00  0.00    +0.000 OA
ATOM     36  C   UNL     1      -6.856  12.959  24.040  0.00  0.00    +0.000 C 
ENDBRANCH  34  35
ENDBRANCH  33  34
ENDBRANCH  31  33
ENDBRANCH   7  29
TORSDOF 10
ENDMDL
MODEL 5
REMARK VINA RESULT:      -7.8      2.691      5.008
REMARK  Name = 
REMARK  14 active torsions:
REMARK  status: ('A' for Active; 'I' for Inactive)
REMARK    1  A    between atoms: C_1  and  C_2
REMARK    2  A    between atoms: C_2  and  O_3
REMARK    3  A    between atoms: O_3  and  C_4
REMARK    4  A    between atoms: C_7  and  C_8
REMARK    5  A    between atoms: C_9  and  C_10
REMARK    6  A    between atoms: C_13  and  C_14
REMARK    7  A    between atoms: C_20  and  C_21
REMARK    8  A    between atoms: N_23  and  C_24
REMARK    9  A    between atoms: C_24  and  C_25
REMARK   10  A    between atoms: C_25  and  O_26
REMARK   11  A    between atoms: O_26  and  C_27
REMARK   12  A    between atoms: C_32  and  O_33
REMARK   13  A    between atoms: O_33  and  C_34
REMARK   14  A    between atoms: C_34  and  C_35
REMARK                            x       y       z     vdW  Elec       q    Type
REMARK                         _______ _______ _______ _____ _____    ______ ____
ROOT
ATOM      1  C   UNL     1       1.844   7.929  19.773  0.00  0.00    +0.000 A 
ATOM      2  C   UNL     1       2.033   8.787  18.657  0.00  0.00    +0.000 A 
ATOM      3  C   UNL     1       2.599   8.491  17.314  0.00  0.00    +0.000 C 
ATOM      4  N   UNL     1       1.587  10.025  18.888  0.00  0.00    +0.000 NA
ATOM      5  N   UNL     1       1.038   9.993  20.131  0.00  0.00    +0.000 N 
ATOM      6  C   UNL     1       0.381  11.045  20.815  0.00  0.00    +0.000 A 
ATOM      7  C   UNL     1      -0.168  10.814  22.033  0.00  0.00    +0.000 A 
ATOM      8  C   UNL     1       0.026   9.420  22.529  0.00  0.00    +0.000 A 
ATOM      9  N   UNL     1       0.656   8.450  21.942  0.00  0.00    +0.000 NA
ATOM     10  C   UNL     1       1.169   8.723  20.702  0.00  0.00    +0.000 A 
ENDROOT
BRANCH   1  14
ATOM     11  C   UNL     1       2.702   3.733  20.261  0.00  0.00    +0.000 A 
ATOM     12  C   UNL     1       1.456   4.277  20.597  0.00  0.00    +0.000 A 
ATOM     13  C   UNL     1       1.186   5.630  20.433  0.00  0.00    +0.000 A 
ATOM     14  C   UNL     1       2.161   6.515  19.968  0.00  0.00    +0.000 A 
ATOM     15  C   UNL     1       3.431   5.984  19.683  0.00  0.00    +0.000 A 
ATOM     16  C   UNL     1       3.709   4.608  19.827  0.00  0.00    +0.000 A 
BRANCH  11  17
ATOM     17  O   UNL     1       2.951   2.383  20.340  0.00  0.00    +0.000 OA
BRANCH  17  19
ATOM     18  C   UNL     1       2.241   2.086  18.047  0.00  0.00    +0.000 C 
ATOM     19  C   UNL     1       3.273   1.739  19.103  0.00  0.00    +0.000 C 
ENDBRANCH  17  19
ENDBRANCH  11  17
BRANCH  16  20
ATOM     20  O   UNL     1       4.979   4.268  19.411  0.00  0.00    +0.000 OA
BRANCH  20  21
ATOM     21  C   UNL     1       5.412   4.816  18.166  0.00  0.00    +0.000 C 
ATOM     22  C   UNL     1       6.907   5.066  18.222  0.00  0.00    +0.000 C 
ENDBRANCH  20  21
ENDBRANCH  16  20
ENDBRANCH   1  14
BRANCH   6  23
ATOM     23  C   UNL     1       0.336  12.371  20.164  0.00  0.00    +0.000 A 
ATOM     24  C   UNL     1       1.369  13.293  20.388  0.00  0.00    +0.000 A 
ATOM     25  C   UNL     1       1.342  14.543  19.768  0.00  0.00    +0.000 A 
ATOM     26  C   UNL     1       0.286  14.882  18.922  0.00  0.00    +0.000 A 
ATOM     27  C   UNL     1      -0.743  13.968  18.692  0.00  0.00    +0.000 A 
ATOM     28  C   UNL     1      -0.717  12.717  19.310  0.00  0.00    +0.000 A 
ENDBRANCH   6  23
BRANCH   7  29
ATOM     29  C   UNL     1      -0.973  11.809  22.815  0.00  0.00    +0.000 C 
ATOM     30  O   UNL     1      -0.477  12.822  23.300  0.00  0.00    +0.000 OA
ATOM     31  N   UNL     1      -2.324  11.550  22.931  0.00  0.00    +0.000 N 
ATOM     32  H   UNL     1      -2.687  10.617  22.778  0.00  0.00    +0.000 HD
BRANCH  31  33
ATOM     33  C   UNL     1      -3.154  12.427  23.747  0.00  0.00    +0.000 C 
BRANCH  33  34
ATOM     34  C   UNL     1      -4.140  13.249  22.917  0.00  0.00    +0.000 C 
BRANCH  34  35
ATOM     35  O   UNL     1      -5.219  12.404  22.502  0.00  0.00    +0.000 OA
ATOM     36  C   UNL     1      -5.434  12.484  21.097  0.00  0.00    +0.000 C 
ENDBRANCH  34  35
ENDBRANCH  33  34
ENDBRANCH  31  33
ENDBRANCH   7  29
TORSDOF 10
ENDMDL
MODEL 6
REMARK VINA RESULT:      -7.8      2.000      8.397
REMARK  Name = 
REMARK  14 active torsions:
REMARK  status: ('A' for Active; 'I' for Inactive)
REMARK    1  A    between atoms: C_1  and  C_2
REMARK    2  A    between atoms: C_2  and  O_3
REMARK    3  A    between atoms: O_3  and  C_4
REMARK    4  A    between atoms: C_7  and  C_8
REMARK    5  A    between atoms: C_9  and  C_10
REMARK    6  A    between atoms: C_13  and  C_14
REMARK    7  A    between atoms: C_20  and  C_21
REMARK    8  A    between atoms: N_23  and  C_24
REMARK    9  A    between atoms: C_24  and  C_25
REMARK   10  A    between atoms: C_25  and  O_26
REMARK   11  A    between atoms: O_26  and  C_27
REMARK   12  A    between atoms: C_32  and  O_33
REMARK   13  A    between atoms: O_33  and  C_34
REMARK   14  A    between atoms: C_34  and  C_35
REMARK                            x       y       z     vdW  Elec       q    Type
REMARK                         _______ _______ _______ _____ _____    ______ ____
ROOT
ATOM      1  C   UNL     1       0.918   9.571  20.344  0.00  0.00    +0.000 A 
ATOM      2  C   UNL     1       0.318   8.714  21.306  0.00  0.00    +0.000 A 
ATOM      3  C   UNL     1      -0.670   9.025  22.373  0.00  0.00    +0.000 C 
ATOM      4  N   UNL     1       0.707   7.444  21.166  0.00  0.00    +0.000 NA
ATOM      5  N   UNL     1       1.516   7.425  20.073  0.00  0.00    +0.000 N 
ATOM      6  C   UNL     1       2.141   6.301  19.478  0.00  0.00    +0.000 A 
ATOM      7  C   UNL     1       2.868   6.460  18.344  0.00  0.00    +0.000 A 
ATOM      8  C   UNL     1       2.940   7.871  17.865  0.00  0.00    +0.000 A 
ATOM      9  N   UNL     1       2.411   8.922  18.411  0.00  0.00    +0.000 NA
ATOM     10  C   UNL     1       1.664   8.709  19.539  0.00  0.00    +0.000 A 
ENDROOT
BRANCH   1  14
ATOM     11  C   UNL     1       0.399  13.801  19.698  0.00  0.00    +0.000 A 
ATOM     12  C   UNL     1      -0.239  12.847  18.896  0.00  0.00    +0.000 A 
ATOM     13  C   UNL     1      -0.069  11.485  19.114  0.00  0.00    +0.000 A 
ATOM     14  C   UNL     1       0.781  11.008  20.114  0.00  0.00    +0.000 A 
ATOM     15  C   UNL     1       1.468  11.962  20.884  0.00  0.00    +0.000 A 
ATOM     16  C   UNL     1       1.287  13.347  20.685  0.00  0.00    +0.000 A 
BRANCH  11  17
ATOM     17  O   UNL     1       0.173  15.148  19.544  0.00  0.00    +0.000 OA
BRANCH  17  19
ATOM     18  C   UNL     1       1.447  17.196  19.373  0.00  0.00    +0.000 C 
ATOM     19  C   UNL     1       1.131  15.851  18.747  0.00  0.00    +0.000 C 
ENDBRANCH  17  19
ENDBRANCH  11  17
BRANCH  16  20
ATOM     20  O   UNL     1       1.975  14.118  21.598  0.00  0.00    +0.000 OA
BRANCH  20  21
ATOM     21  C   UNL     1       3.382  14.247  21.394  0.00  0.00    +0.000 C 
ATOM     22  C   UNL     1       3.822  15.639  21.803  0.00  0.00    +0.000 C 
ENDBRANCH  20  21
ENDBRANCH  16  20
ENDBRANCH   1  14
BRANCH   6  23
ATOM     23  C   UNL     1       1.981   4.990  20.140  0.00  0.00    +0.000 A 
ATOM     24  C   UNL     1       2.954   4.543  21.046  0.00  0.00    +0.000 A 
ATOM     25  C   UNL     1       2.805   3.310  21.686  0.00  0.00    +0.000 A 
ATOM     26  C   UNL     1       1.688   2.518  21.426  0.00  0.00    +0.000 A 
ATOM     27  C   UNL     1       0.715   2.958  20.528  0.00  0.00    +0.000 A 
ATOM     28  C   UNL     1       0.860   4.191  19.889  0.00  0.00    +0.000 A 
ENDBRANCH   6  23
BRANCH   7  29
ATOM     29  C   UNL     1       3.495   5.344  17.563  0.00  0.00    +0.000 C 
ATOM     30  O   UNL     1       2.863   4.354  17.206  0.00  0.00    +0.000 OA
ATOM     31  N   UNL     1       4.823   5.503  17.224  0.00  0.00    +0.000 N 
ATOM     32  H   UNL     1       5.411   6.159  17.724  0.00  0.00    +0.000 HD
BRANCH  31  33
ATOM     33  C   UNL     1       5.522   4.423  16.538  0.00  0.00    +0.000 C 
BRANCH  33  34
ATOM     34  C   UNL     1       7.033   4.456  16.767  0.00  0.00    +0.000 C 
BRANCH  34  35
ATOM     35  O   UNL     1       7.294   4.366  18.171  0.00  0.00    +0.000 OA
ATOM     36  C   UNL     1       7.806   5.590  18.686  0.00  0.00    +0.000 C 
ENDBRANCH  34  35
ENDBRANCH  33  34
ENDBRANCH  31  33
ENDBRANCH   7  29
TORSDOF 10
ENDMDL
MODEL 7
REMARK VINA RESULT:      -7.8      0.924      1.060
REMARK  Name = 
REMARK  14 active torsions:
REMARK  status: ('A' for Active; 'I' for Inactive)
REMARK    1  A    between atoms: C_1  and  C_2
REMARK    2  A    between atoms: C_2  and  O_3
REMARK    3  A    between atoms: O_3  and  C_4
REMARK    4  A    between atoms: C_7  and  C_8
REMARK    5  A    between atoms: C_9  and  C_10
REMARK    6  A    between atoms: C_13  and  C_14
REMARK    7  A    between atoms: C_20  and  C_21
REMARK    8  A    between atoms: N_23  and  C_24
REMARK    9  A    between atoms: C_24  and  C_25
REMARK   10  A    between atoms: C_25  and  O_26
REMARK   11  A    between atoms: O_26  and  C_27
REMARK   12  A    between atoms: C_32  and  O_33
REMARK   13  A    between atoms: O_33  and  C_34
REMARK   14  A    between atoms: C_34  and  C_35
REMARK                            x       y       z     vdW  Elec       q    Type
REMARK                         _______ _______ _______ _____ _____    ______ ____
ROOT
ATOM      1  C   UNL     1       2.707   6.580  19.013  0.00  0.00    +0.000 A 
ATOM      2  C   UNL     1       2.112   6.322  20.277  0.00  0.00    +0.000 A 
ATOM      3  C   UNL     1       2.189   5.111  21.136  0.00  0.00    +0.000 C 
ATOM      4  N   UNL     1       1.419   7.369  20.734  0.00  0.00    +0.000 NA
ATOM      5  N   UNL     1       1.596   8.357  19.817  0.00  0.00    +0.000 N 
ATOM      6  C   UNL     1       1.107   9.685  19.870  0.00  0.00    +0.000 A 
ATOM      7  C   UNL     1       1.438  10.561  18.889  0.00  0.00    +0.000 A 
ATOM      8  C   UNL     1       2.294   9.974  17.818  0.00  0.00    +0.000 A 
ATOM      9  N   UNL     1       2.723   8.754  17.725  0.00  0.00    +0.000 NA
ATOM     10  C   UNL     1       2.386   7.913  18.751  0.00  0.00    +0.000 A 
ENDROOT
BRANCH   1  14
ATOM     11  C   UNL     1       5.127   4.163  16.389  0.00  0.00    +0.000 A 
ATOM     12  C   UNL     1       3.764   3.908  16.582  0.00  0.00    +0.000 A 
ATOM     13  C   UNL     1       2.990   4.695  17.427  0.00  0.00    +0.000 A 
ATOM     14  C   UNL     1       3.548   5.747  18.155  0.00  0.00    +0.000 A 
ATOM     15  C   UNL     1       4.928   5.972  18.009  0.00  0.00    +0.000 A 
ATOM     16  C   UNL     1       5.719   5.192  17.138  0.00  0.00    +0.000 A 
BRANCH  11  17
ATOM     17  O   UNL     1       5.882   3.445  15.493  0.00  0.00    +0.000 OA
BRANCH  17  19
ATOM     18  C   UNL     1       7.040   4.721  13.796  0.00  0.00    +0.000 C 
ATOM     19  C   UNL     1       5.818   3.888  14.134  0.00  0.00    +0.000 C 
ENDBRANCH  17  19
ENDBRANCH  11  17
BRANCH  16  20
ATOM     20  O   UNL     1       7.026   5.625  17.064  0.00  0.00    +0.000 OA
BRANCH  20  21
ATOM     21  C   UNL     1       7.474   6.488  18.109  0.00  0.00    +0.000 C 
ATOM     22  C   UNL     1       7.747   7.866  17.537  0.00  0.00    +0.000 C 
ENDBRANCH  20  21
ENDBRANCH  16  20
ENDBRANCH   1  14
BRANCH   6  23
ATOM     23  C   UNL     1       0.232  10.056  21.002  0.00  0.00    +0.000 A 
ATOM     24  C   UNL     1       0.479   9.524  22.276  0.00  0.00    +0.000 A 
ATOM     25  C   UNL     1      -0.334   9.878  23.355  0.00  0.00    +0.000 A 
ATOM     26  C   UNL     1      -1.396  10.762  23.169  0.00  0.00    +0.000 A 
ATOM     27  C   UNL     1      -1.644  11.298  21.905  0.00  0.00    +0.000 A 
ATOM     28  C   UNL     1      -0.832  10.947  20.826  0.00  0.00    +0.000 A 
ENDBRANCH   6  23
BRANCH   7  29
ATOM     29  C   UNL     1       1.071  12.015  18.877  0.00  0.00    +0.000 C 
ATOM     30  O   UNL     1       0.070  12.438  18.303  0.00  0.00    +0.000 OA
ATOM     31  N   UNL     1       1.898  12.863  19.585  0.00  0.00    +0.000 N 
ATOM     32  H   UNL     1       2.841  12.585  19.827  0.00  0.00    +0.000 HD
BRANCH  31  33
ATOM     33  C   UNL     1       1.652  14.300  19.550  0.00  0.00    +0.000 C 
BRANCH  33  34
ATOM     34  C   UNL     1       2.067  15.004  20.841  0.00  0.00    +0.000 C 
BRANCH  34  35
ATOM     35  O   UNL     1       2.786  14.080  21.665  0.00  0.00    +0.000 OA
ATOM     36  C   UNL     1       4.096  14.552  21.958  0.00  0.00    +0.000 C 
ENDBRANCH  34  35
ENDBRANCH  33  34
ENDBRANCH  31  33
ENDBRANCH   7  29
TORSDOF 10
ENDMDL
MODEL 8
REMARK VINA RESULT:      -7.8      1.305      1.573
REMARK  Name = 
REMARK  14 active torsions:
REMARK  status: ('A' for Active; 'I' for Inactive)
REMARK    1  A    between atoms: C_1  and  C_2
REMARK    2  A    between atoms: C_2  and  O_3
REMARK    3  A    between atoms: O_3  and  C_4
REMARK    4  A    between atoms: C_7  and  C_8
REMARK    5  A    between atoms: C_9  and  C_10
REMARK    6  A    between atoms: C_13  and  C_14
REMARK    7  A    between atoms: C_20  and  C_21
REMARK    8  A    between atoms: N_23  and  C_24
REMARK    9  A    between atoms: C_24  and  C_25
REMARK   10  A    between atoms: C_25  and  O_26
REMARK   11  A    between atoms: O_26  and  C_27
REMARK   12  A    between atoms: C_32  and  O_33
REMARK   13  A    between atoms: O_33  and  C_34
REMARK   14  A    between atoms: C_34  and  C_35
REMARK                            x       y       z     vdW  Elec       q    Type
REMARK                         _______ _______ _______ _____ _____    ______ ____
ROOT
ATOM      1  C   UNL     1       2.783   6.392  19.020  0.00  0.00    +0.000 A 
ATOM      2  C   UNL     1       2.189   6.124  20.282  0.00  0.00    +0.000 A 
ATOM      3  C   UNL     1       2.255   4.901  21.125  0.00  0.00    +0.000 C 
ATOM      4  N   UNL     1       1.508   7.172  20.754  0.00  0.00    +0.000 NA
ATOM      5  N   UNL     1       1.693   8.170  19.849  0.00  0.00    +0.000 N 
ATOM      6  C   UNL     1       1.218   9.502  19.920  0.00  0.00    +0.000 A 
ATOM      7  C   UNL     1       1.556  10.387  18.950  0.00  0.00    +0.000 A 
ATOM      8  C   UNL     1       2.402   9.805  17.868  0.00  0.00    +0.000 A 
ATOM      9  N   UNL     1       2.818   8.581  17.759  0.00  0.00    +0.000 NA
ATOM     10  C   UNL     1       2.476   7.731  18.776  0.00  0.00    +0.000 A 
ENDROOT
BRANCH   1  14
ATOM     11  C   UNL     1       5.174   3.986  16.359  0.00  0.00    +0.000 A 
ATOM     12  C   UNL     1       3.799   3.769  16.518  0.00  0.00    +0.000 A 
ATOM     13  C   UNL     1       3.036   4.552  17.375  0.00  0.00    +0.000 A 
ATOM     14  C   UNL     1       3.613   5.561  18.149  0.00  0.00    +0.000 A 
ATOM     15  C   UNL     1       5.002   5.745  18.035  0.00  0.00    +0.000 A 
ATOM     16  C   UNL     1       5.784   4.969  17.153  0.00  0.00    +0.000 A 
BRANCH  11  17
ATOM     17  O   UNL     1       5.922   3.274  15.452  0.00  0.00    +0.000 OA
BRANCH  17  19
ATOM     18  C   UNL     1       5.510   3.591  13.090  0.00  0.00    +0.000 C 
ATOM     19  C   UNL     1       6.342   3.997  14.291  0.00  0.00    +0.000 C 
ENDBRANCH  17  19
ENDBRANCH  11  17
BRANCH  16  20
ATOM     20  O   UNL     1       7.105   5.362  17.116  0.00  0.00    +0.000 OA
BRANCH  20  21
ATOM     21  C   UNL     1       7.535   6.258  18.141  0.00  0.00    +0.000 C 
ATOM     22  C   UNL     1       7.706   7.645  17.554  0.00  0.00    +0.000 C 
ENDBRANCH  20  21
ENDBRANCH  16  20
ENDBRANCH   1  14
BRANCH   6  23
ATOM     23  C   UNL     1       0.350   9.868  21.059  0.00  0.00    +0.000 A 
ATOM     24  C   UNL     1       0.626   9.358  22.337  0.00  0.00    +0.000 A 
ATOM     25  C   UNL     1      -0.181   9.707  23.422  0.00  0.00    +0.000 A 
ATOM     26  C   UNL     1      -1.264  10.565  23.239  0.00  0.00    +0.000 A 
ATOM     27  C   UNL     1      -1.541  11.079  21.972  0.00  0.00    +0.000 A 
ATOM     28  C   UNL     1      -0.735  10.733  20.886  0.00  0.00    +0.000 A 
ENDBRANCH   6  23
BRANCH   7  29
ATOM     29  C   UNL     1       1.204  11.845  18.957  0.00  0.00    +0.000 C 
ATOM     30  O   UNL     1       1.881  12.684  19.544  0.00  0.00    +0.000 OA
ATOM     31  N   UNL     1       0.090  12.211  18.229  0.00  0.00    +0.000 N 
ATOM     32  H   UNL     1      -0.610  11.525  17.974  0.00  0.00    +0.000 HD
BRANCH  31  33
ATOM     33  C   UNL     1      -0.363  13.597  18.258  0.00  0.00    +0.000 C 
BRANCH  33  34
ATOM     34  C   UNL     1      -1.224  13.913  19.480  0.00  0.00    +0.000 C 
BRANCH  34  35
ATOM     35  O   UNL     1      -0.532  14.853  20.308  0.00  0.00    +0.000 OA
ATOM     36  C   UNL     1      -0.210  16.041  19.593  0.00  0.00    +0.000 C 
ENDBRANCH  34  35
ENDBRANCH  33  34
ENDBRANCH  31  33
ENDBRANCH   7  29
TORSDOF 10
ENDMDL
MODEL 9
REMARK VINA RESULT:      -7.8      0.972      1.699
REMARK  Name = 
REMARK  14 active torsions:
REMARK  status: ('A' for Active; 'I' for Inactive)
REMARK    1  A    between atoms: C_1  and  C_2
REMARK    2  A    between atoms: C_2  and  O_3
REMARK    3  A    between atoms: O_3  and  C_4
REMARK    4  A    between atoms: C_7  and  C_8
REMARK    5  A    between atoms: C_9  and  C_10
REMARK    6  A    between atoms: C_13  and  C_14
REMARK    7  A    between atoms: C_20  and  C_21
REMARK    8  A    between atoms: N_23  and  C_24
REMARK    9  A    between atoms: C_24  and  C_25
REMARK   10  A    between atoms: C_25  and  O_26
REMARK   11  A    between atoms: O_26  and  C_27
REMARK   12  A    between atoms: C_32  and  O_33
REMARK   13  A    between atoms: O_33  and  C_34
REMARK   14  A    between atoms: C_34  and  C_35
REMARK                            x       y       z     vdW  Elec       q    Type
REMARK                         _______ _______ _______ _____ _____    ______ ____
ROOT
ATOM      1  C   UNL     1       2.668   6.680  18.993  0.00  0.00    +0.000 A 
ATOM      2  C   UNL     1       2.095   6.426  20.268  0.00  0.00    +0.000 A 
ATOM      3  C   UNL     1       2.194   5.221  21.133  0.00  0.00    +0.000 C 
ATOM      4  N   UNL     1       1.403   7.471  20.729  0.00  0.00    +0.000 NA
ATOM      5  N   UNL     1       1.558   8.454  19.804  0.00  0.00    +0.000 N 
ATOM      6  C   UNL     1       1.060   9.779  19.856  0.00  0.00    +0.000 A 
ATOM      7  C   UNL     1       1.370  10.652  18.865  0.00  0.00    +0.000 A 
ATOM      8  C   UNL     1       2.212  10.064  17.783  0.00  0.00    +0.000 A 
ATOM      9  N   UNL     1       2.648   8.846  17.691  0.00  0.00    +0.000 NA
ATOM     10  C   UNL     1       2.333   8.009  18.728  0.00  0.00    +0.000 A 
ENDROOT
BRANCH   1  14
ATOM     11  C   UNL     1       5.056   4.257  16.346  0.00  0.00    +0.000 A 
ATOM     12  C   UNL     1       3.723   3.941  16.636  0.00  0.00    +0.000 A 
ATOM     13  C   UNL     1       2.959   4.731  17.487  0.00  0.00    +0.000 A 
ATOM     14  C   UNL     1       3.500   5.848  18.126  0.00  0.00    +0.000 A 
ATOM     15  C   UNL     1       4.855   6.135  17.883  0.00  0.00    +0.000 A 
ATOM     16  C   UNL     1       5.634   5.353  17.005  0.00  0.00    +0.000 A 
BRANCH  11  17
ATOM     17  O   UNL     1       5.794   3.532  15.441  0.00  0.00    +0.000 OA
BRANCH  17  19
ATOM     18  C   UNL     1       5.774   3.520  13.023  0.00  0.00    +0.000 C 
ATOM     19  C   UNL     1       6.223   4.245  14.277  0.00  0.00    +0.000 C 
ENDBRANCH  17  19
ENDBRANCH  11  17
BRANCH  16  20
ATOM     20  O   UNL     1       6.908   5.849  16.827  0.00  0.00    +0.000 OA
BRANCH  20  21
ATOM     21  C   UNL     1       7.491   6.526  17.940  0.00  0.00    +0.000 C 
ATOM     22  C   UNL     1       7.806   7.957  17.546  0.00  0.00    +0.000 C 
ENDBRANCH  20  21
ENDBRANCH  16  20
ENDBRANCH   1  14
BRANCH   6  23
ATOM     23  C   UNL     1       0.201  10.151  21.000  0.00  0.00    +0.000 A 
ATOM     24  C   UNL     1      -0.881  11.021  20.805  0.00  0.00    +0.000 A 
ATOM     25  C   UNL     1      -1.706  11.369  21.876  0.00  0.00    +0.000 A 
ATOM     26  C   UNL     1      -1.457  10.851  23.146  0.00  0.00    +0.000 A 
ATOM     27  C   UNL     1      -0.384   9.982  23.347  0.00  0.00    +0.000 A 
ATOM     28  C   UNL     1       0.441   9.632  22.276  0.00  0.00    +0.000 A 
ENDBRANCH   6  23
BRANCH   7  29
ATOM     29  C   UNL     1       0.992  12.103  18.850  0.00  0.00    +0.000 C 
ATOM     30  O   UNL     1      -0.055  12.507  18.350  0.00  0.00    +0.000 OA
ATOM     31  N   UNL     1       1.868  12.972  19.468  0.00  0.00    +0.000 N 
ATOM     32  H   UNL     1       2.829  12.704  19.638  0.00  0.00    +0.000 HD
BRANCH  31  33
ATOM     33  C   UNL     1       1.609  14.406  19.421  0.00  0.00    +0.000 C 
BRANCH  33  34
ATOM     34  C   UNL     1       1.273  14.993  20.791  0.00  0.00    +0.000 C 
BRANCH  34  35
ATOM     35  O   UNL     1      -0.083  14.670  21.117  0.00  0.00    +0.000 OA
ATOM     36  C   UNL     1      -0.266  14.544  22.523  0.00  0.00    +0.000 C 
ENDBRANCH  34  35
ENDBRANCH  33  34
ENDBRANCH  31  33
ENDBRANCH   7  29
TORSDOF 10
ENDMDL
