MODEL 1
REMARK VINA RESULT:      -6.4      0.000      0.000
REMARK  Name = 
REMARK  2 active torsions:
REMARK  status: ('A' for Active; 'I' for Inactive)
REMARK    1  A    between atoms: C_2  and  C_3
REMARK    2  A    between atoms: N_15  and  C_16
REMARK                            x       y       z     vdW  Elec       q    Type
REMARK                         _______ _______ _______ _____ _____    ______ ____
ROOT
ATOM      1  O   UNL     1       7.288  14.612  18.987  0.00  0.00    +0.000 OA
ATOM      2  C   UNL     1       8.433  14.948  18.687  0.00  0.00    +0.000 C 
ATOM      3  N   UNL     1       9.361  13.976  18.266  0.00  0.00    +0.000 N 
ATOM      4  C   UNL     1       9.008  12.524  18.250  0.00  0.00    +0.000 C 
ATOM      5  C   UNL     1      10.241  11.585  18.508  0.00  0.00    +0.000 C 
ATOM      6  C   UNL     1      11.285  11.839  17.411  0.00  0.00    +0.000 C 
ATOM      7  C   UNL     1      11.380  13.323  17.106  0.00  0.00    +0.000 C 
ATOM      8  C   UNL     1      10.800  14.204  18.234  0.00  0.00    +0.000 C 
ATOM      9  C   UNL     1      11.400  14.041  19.678  0.00  0.00    +0.000 C 
ATOM     10  N   UNL     1      10.882  12.987  20.593  0.00  0.00    +0.000 NA
ATOM     11  C   UNL     1      10.920  11.690  19.907  0.00  0.00    +0.000 C 
ENDROOT
BRANCH  10  12
ATOM     12  C   UNL     1       9.584  13.192  21.307  0.00  0.00    +0.000 C 
ATOM     13  C   UNL     1       8.996  11.910  21.984  0.00  0.00    +0.000 C 
ATOM     14  C   UNL     1       7.972  12.470  22.927  0.00  0.00    +0.000 A 
ATOM     15  C   UNL     1       6.894  11.819  23.501  0.00  0.00    +0.000 A 
ATOM     16  C   UNL     1       6.041  12.544  24.344  0.00  0.00    +0.000 A 
ATOM     17  C   UNL     1       6.291  13.898  24.603  0.00  0.00    +0.000 A 
ATOM     18  C   UNL     1       7.384  14.545  24.022  0.00  0.00    +0.000 A 
ATOM     19  C   UNL     1       8.218  13.820  23.176  0.00  0.00    +0.000 A 
ATOM     20  C   UNL     1       9.401  14.307  22.378  0.00  0.00    +0.000 C 
ENDBRANCH  10  12
BRANCH   2  21
ATOM     21  C   UNL     1       8.851  16.349  18.891  0.00  0.00    +0.000 A 
ATOM     22  C   UNL     1       9.200  17.090  20.013  0.00  0.00    +0.000 A 
ATOM     23  C   UNL     1       9.475  18.426  19.620  0.00  0.00    +0.000 A 
ATOM     24  C   UNL     1       9.350  18.479  18.258  0.00  0.00    +0.000 A 
ATOM     25  N   UNL     1       9.050  17.214  17.820  0.00  0.00    +0.000 N 
ATOM     26  H   UNL     1       8.915  16.956  16.852  0.00  0.00    +0.000 HD
ENDBRANCH   2  21
TORSDOF 2
ENDMDL
MODEL 2
REMARK VINA RESULT:      -6.0      1.105      1.301
REMARK  Name = 
REMARK  2 active torsions:
REMARK  status: ('A' for Active; 'I' for Inactive)
REMARK    1  A    between atoms: C_2  and  C_3
REMARK    2  A    between atoms: N_15  and  C_16
REMARK                            x       y       z     vdW  Elec       q    Type
REMARK                         _______ _______ _______ _____ _____    ______ ____
ROOT
ATOM      1  O   UNL     1       7.651  14.755  18.090  0.00  0.00    +0.000 OA
ATOM      2  C   UNL     1       8.854  14.964  17.940  0.00  0.00    +0.000 C 
ATOM      3  N   UNL     1       9.758  13.885  17.937  0.00  0.00    +0.000 N 
ATOM      4  C   UNL     1       9.297  12.486  18.192  0.00  0.00    +0.000 C 
ATOM      5  C   UNL     1      10.385  11.593  18.887  0.00  0.00    +0.000 C 
ATOM      6  C   UNL     1      11.621  11.533  17.976  0.00  0.00    +0.000 C 
ATOM      7  C   UNL     1      11.888  12.894  17.360  0.00  0.00    +0.000 C 
ATOM      8  C   UNL     1      11.195  14.044  18.123  0.00  0.00    +0.000 C 
ATOM      9  C   UNL     1      11.521  14.214  19.652  0.00  0.00    +0.000 C 
ATOM     10  N   UNL     1      10.769  13.433  20.672  0.00  0.00    +0.000 NA
ATOM     11  C   UNL     1      10.819  12.008  20.325  0.00  0.00    +0.000 C 
ENDROOT
BRANCH  10  12
ATOM     12  C   UNL     1       9.387  13.855  21.064  0.00  0.00    +0.000 C 
ATOM     13  C   UNL     1       8.623  12.837  21.974  0.00  0.00    +0.000 C 
ATOM     14  C   UNL     1       7.497  13.663  22.523  0.00  0.00    +0.000 A 
ATOM     15  C   UNL     1       6.304  13.222  23.070  0.00  0.00    +0.000 A 
ATOM     16  C   UNL     1       5.373  14.173  23.507  0.00  0.00    +0.000 A 
ATOM     17  C   UNL     1       5.658  15.541  23.399  0.00  0.00    +0.000 A 
ATOM     18  C   UNL     1       6.867  15.975  22.849  0.00  0.00    +0.000 A 
ATOM     19  C   UNL     1       7.781  15.023  22.407  0.00  0.00    +0.000 A 
ATOM     20  C   UNL     1       9.103  15.239  21.715  0.00  0.00    +0.000 C 
ENDBRANCH  10  12
BRANCH   2  21
ATOM     21  C   UNL     1       9.343  16.356  17.889  0.00  0.00    +0.000 A 
ATOM     22  C   UNL     1      10.307  17.005  17.129  0.00  0.00    +0.000 A 
ATOM     23  C   UNL     1      10.389  18.361  17.541  0.00  0.00    +0.000 A 
ATOM     24  C   UNL     1       9.437  18.546  18.506  0.00  0.00    +0.000 A 
ATOM     25  N   UNL     1       8.763  17.361  18.656  0.00  0.00    +0.000 N 
ATOM     26  H   UNL     1       7.994  17.212  19.296  0.00  0.00    +0.000 HD
ENDBRANCH   2  21
TORSDOF 2
ENDMDL
MODEL 3
REMARK VINA RESULT:      -6.0      9.405     11.578
REMARK  Name = 
REMARK  2 active torsions:
REMARK  status: ('A' for Active; 'I' for Inactive)
REMARK    1  A    between atoms: C_2  and  C_3
REMARK    2  A    between atoms: N_15  and  C_16
REMARK                            x       y       z     vdW  Elec       q    Type
REMARK                         _______ _______ _______ _____ _____    ______ ____
ROOT
ATOM      1  O   UNL     1       0.791  14.892  22.603  0.00  0.00    +0.000 OA
ATOM      2  C   UNL     1      -0.179  15.545  22.220  0.00  0.00    +0.000 C 
ATOM      3  N   UNL     1      -1.285  15.723  23.073  0.00  0.00    +0.000 N 
ATOM      4  C   UNL     1      -1.343  15.067  24.415  0.00  0.00    +0.000 C 
ATOM      5  C   UNL     1      -2.805  14.723  24.872  0.00  0.00    +0.000 C 
ATOM      6  C   UNL     1      -3.615  16.027  24.940  0.00  0.00    +0.000 C 
ATOM      7  C   UNL     1      -3.267  16.924  23.766  0.00  0.00    +0.000 C 
ATOM      8  C   UNL     1      -2.595  16.159  22.605  0.00  0.00    +0.000 C 
ATOM      9  C   UNL     1      -3.371  14.943  21.978  0.00  0.00    +0.000 C 
ATOM     10  N   UNL     1      -3.264  13.589  22.587  0.00  0.00    +0.000 NA
ATOM     11  C   UNL     1      -3.579  13.674  24.018  0.00  0.00    +0.000 C 
ENDROOT
BRANCH  10  12
ATOM     12  C   UNL     1      -2.045  12.756  22.342  0.00  0.00    +0.000 C 
ATOM     13  C   UNL     1      -1.899  11.513  23.281  0.00  0.00    +0.000 C 
ATOM     14  C   UNL     1      -0.873  10.678  22.571  0.00  0.00    +0.000 A 
ATOM     15  C   UNL     1      -0.079   9.674  23.096  0.00  0.00    +0.000 A 
ATOM     16  C   UNL     1       0.838   9.032  22.254  0.00  0.00    +0.000 A 
ATOM     17  C   UNL     1       0.932   9.398  20.905  0.00  0.00    +0.000 A 
ATOM     18  C   UNL     1       0.122  10.410  20.384  0.00  0.00    +0.000 A 
ATOM     19  C   UNL     1      -0.776  11.052  21.231  0.00  0.00    +0.000 A 
ATOM     20  C   UNL     1      -1.691  12.212  20.928  0.00  0.00    +0.000 C 
ENDBRANCH  10  12
BRANCH   2  21
ATOM     21  C   UNL     1      -0.218  16.028  20.825  0.00  0.00    +0.000 A 
ATOM     22  C   UNL     1      -0.535  15.428  19.614  0.00  0.00    +0.000 A 
ATOM     23  C   UNL     1      -0.355  16.371  18.567  0.00  0.00    +0.000 A 
ATOM     24  C   UNL     1       0.014  17.553  19.151  0.00  0.00    +0.000 A 
ATOM     25  N   UNL     1       0.020  17.361  20.508  0.00  0.00    +0.000 N 
ATOM     26  H   UNL     1       0.244  18.073  21.191  0.00  0.00    +0.000 HD
ENDBRANCH   2  21
TORSDOF 2
ENDMDL
MODEL 4
REMARK VINA RESULT:      -6.0      9.188     11.107
REMARK  Name = 
REMARK  2 active torsions:
REMARK  status: ('A' for Active; 'I' for Inactive)
REMARK    1  A    between atoms: C_2  and  C_3
REMARK    2  A    between atoms: N_15  and  C_16
REMARK                            x       y       z     vdW  Elec       q    Type
REMARK                         _______ _______ _______ _____ _____    ______ ____
ROOT
ATOM      1  O   UNL     1      -0.848  10.473  20.598  0.00  0.00    +0.000 OA
ATOM      2  C   UNL     1      -0.592  11.046  19.540  0.00  0.00    +0.000 C 
ATOM      3  N   UNL     1       0.503  11.929  19.467  0.00  0.00    +0.000 N 
ATOM      4  C   UNL     1       1.321  12.249  20.676  0.00  0.00    +0.000 C 
ATOM      5  C   UNL     1       1.931  13.696  20.644  0.00  0.00    +0.000 C 
ATOM      6  C   UNL     1       2.832  13.819  19.407  0.00  0.00    +0.000 C 
ATOM      7  C   UNL     1       2.191  13.127  18.217  0.00  0.00    +0.000 C 
ATOM      8  C   UNL     1       0.674  12.906  18.399  0.00  0.00    +0.000 C 
ATOM      9  C   UNL     1      -0.226  14.166  18.676  0.00  0.00    +0.000 C 
ATOM     10  N   UNL     1      -0.399  14.674  20.065  0.00  0.00    +0.000 NA
ATOM     11  C   UNL     1       0.921  14.883  20.672  0.00  0.00    +0.000 C 
ENDROOT
BRANCH  10  12
ATOM     12  C   UNL     1      -1.331  13.976  21.003  0.00  0.00    +0.000 C 
ATOM     13  C   UNL     1      -1.306  14.511  22.474  0.00  0.00    +0.000 C 
ATOM     14  C   UNL     1      -2.568  13.944  23.056  0.00  0.00    +0.000 A 
ATOM     15  C   UNL     1      -2.885  13.763  24.391  0.00  0.00    +0.000 A 
ATOM     16  C   UNL     1      -4.122  13.191  24.716  0.00  0.00    +0.000 A 
ATOM     17  C   UNL     1      -5.018  12.827  23.703  0.00  0.00    +0.000 A 
ATOM     18  C   UNL     1      -4.690  13.018  22.359  0.00  0.00    +0.000 A 
ATOM     19  C   UNL     1      -3.454  13.574  22.045  0.00  0.00    +0.000 A 
ATOM     20  C   UNL     1      -2.845  13.806  20.685  0.00  0.00    +0.000 C 
ENDBRANCH  10  12
BRANCH   2  21
ATOM     21  C   UNL     1      -1.513  10.893  18.395  0.00  0.00    +0.000 A 
ATOM     22  C   UNL     1      -2.720  11.486  18.053  0.00  0.00    +0.000 A 
ATOM     23  C   UNL     1      -3.192  10.914  16.842  0.00  0.00    +0.000 A 
ATOM     24  C   UNL     1      -2.244  10.020  16.424  0.00  0.00    +0.000 A 
ATOM     25  N   UNL     1      -1.206  10.067  17.319  0.00  0.00    +0.000 N 
ATOM     26  H   UNL     1      -0.360   9.518  17.250  0.00  0.00    +0.000 HD
ENDBRANCH   2  21
TORSDOF 2
ENDMDL
MODEL 5
REMARK VINA RESULT:      -5.8      2.567      5.448
REMARK  Name = 
REMARK  2 active torsions:
REMARK  status: ('A' for Active; 'I' for Inactive)
REMARK    1  A    between atoms: C_2  and  C_3
REMARK    2  A    between atoms: N_15  and  C_16
REMARK                            x       y       z     vdW  Elec       q    Type
REMARK                         _______ _______ _______ _____ _____    ______ ____
ROOT
ATOM      1  O   UNL     1       8.260  13.643  21.167  0.00  0.00    +0.000 OA
ATOM      2  C   UNL     1       9.166  13.418  20.366  0.00  0.00    +0.000 C 
ATOM      3  N   UNL     1      10.125  14.412  20.096  0.00  0.00    +0.000 N 
ATOM      4  C   UNL     1      10.024  15.773  20.704  0.00  0.00    +0.000 C 
ATOM      5  C   UNL     1      10.625  16.904  19.795  0.00  0.00    +0.000 C 
ATOM      6  C   UNL     1      12.110  16.596  19.551  0.00  0.00    +0.000 C 
ATOM      7  C   UNL     1      12.309  15.109  19.323  0.00  0.00    +0.000 C 
ATOM      8  C   UNL     1      11.004  14.382  18.933  0.00  0.00    +0.000 C 
ATOM      9  C   UNL     1      10.229  14.893  17.663  0.00  0.00    +0.000 C 
ATOM     10  N   UNL     1       9.260  16.018  17.776  0.00  0.00    +0.000 NA
ATOM     11  C   UNL     1       9.915  17.157  18.430  0.00  0.00    +0.000 C 
ENDROOT
BRANCH  10  12
ATOM     12  C   UNL     1       7.895  15.772  18.338  0.00  0.00    +0.000 C 
ATOM     13  C   UNL     1       7.055  17.064  18.611  0.00  0.00    +0.000 C 
ATOM     14  C   UNL     1       5.662  16.529  18.763  0.00  0.00    +0.000 A 
ATOM     15  C   UNL     1       4.578  17.133  19.376  0.00  0.00    +0.000 A 
ATOM     16  C   UNL     1       3.361  16.441  19.425  0.00  0.00    +0.000 A 
ATOM     17  C   UNL     1       3.250  15.168  18.850  0.00  0.00    +0.000 A 
ATOM     18  C   UNL     1       4.349  14.569  18.229  0.00  0.00    +0.000 A 
ATOM     19  C   UNL     1       5.558  15.259  18.196  0.00  0.00    +0.000 A 
ATOM     20  C   UNL     1       6.889  14.798  17.660  0.00  0.00    +0.000 C 
ENDBRANCH  10  12
BRANCH   2  21
ATOM     21  C   UNL     1       9.162  12.150  19.609  0.00  0.00    +0.000 A 
ATOM     22  C   UNL     1       8.951  11.834  18.274  0.00  0.00    +0.000 A 
ATOM     23  C   UNL     1       9.022  10.425  18.112  0.00  0.00    +0.000 A 
ATOM     24  C   UNL     1       9.333   9.896  19.336  0.00  0.00    +0.000 A 
ATOM     25  N   UNL     1       9.490  10.940  20.211  0.00  0.00    +0.000 N 
ATOM     26  H   UNL     1       9.736  10.843  21.187  0.00  0.00    +0.000 HD
ENDBRANCH   2  21
TORSDOF 2
ENDMDL
MODEL 6
REMARK VINA RESULT:      -5.7      2.355      4.630
REMARK  Name = 
REMARK  2 active torsions:
REMARK  status: ('A' for Active; 'I' for Inactive)
REMARK    1  A    between atoms: C_2  and  C_3
REMARK    2  A    between atoms: N_15  and  C_16
REMARK                            x       y       z     vdW  Elec       q    Type
REMARK                         _______ _______ _______ _____ _____    ______ ____
ROOT
ATOM      1  O   UNL     1       7.825  15.456  20.035  0.00  0.00    +0.000 OA
ATOM      2  C   UNL     1       8.752  16.196  20.366  0.00  0.00    +0.000 C 
ATOM      3  N   UNL     1       9.512  16.850  19.378  0.00  0.00    +0.000 N 
ATOM      4  C   UNL     1       9.269  16.606  17.924  0.00  0.00    +0.000 C 
ATOM      5  C   UNL     1      10.564  16.753  17.048  0.00  0.00    +0.000 C 
ATOM      6  C   UNL     1      11.104  18.182  17.211  0.00  0.00    +0.000 C 
ATOM      7  C   UNL     1      10.986  18.627  18.657  0.00  0.00    +0.000 C 
ATOM      8  C   UNL     1      10.817  17.446  19.636  0.00  0.00    +0.000 C 
ATOM      9  C   UNL     1      11.924  16.328  19.638  0.00  0.00    +0.000 C 
ATOM     10  N   UNL     1      11.852  15.198  18.673  0.00  0.00    +0.000 NA
ATOM     11  C   UNL     1      11.710  15.731  17.313  0.00  0.00    +0.000 C 
ENDROOT
BRANCH  10  12
ATOM     12  C   UNL     1      10.906  14.065  18.920  0.00  0.00    +0.000 C 
ATOM     13  C   UNL     1      10.704  13.101  17.704  0.00  0.00    +0.000 C 
ATOM     14  C   UNL     1      10.073  11.895  18.337  0.00  0.00    +0.000 A 
ATOM     15  C   UNL     1       9.336  10.897  17.723  0.00  0.00    +0.000 A 
ATOM     16  C   UNL     1       8.815   9.864  18.513  0.00  0.00    +0.000 A 
ATOM     17  C   UNL     1       9.051   9.844  19.894  0.00  0.00    +0.000 A 
ATOM     18  C   UNL     1       9.800  10.855  20.503  0.00  0.00    +0.000 A 
ATOM     19  C   UNL     1      10.302  11.884  19.712  0.00  0.00    +0.000 A 
ATOM     20  C   UNL     1      11.063  13.113  20.140  0.00  0.00    +0.000 C 
ENDBRANCH  10  12
BRANCH   2  21
ATOM     21  C   UNL     1       9.128  16.287  21.791  0.00  0.00    +0.000 A 
ATOM     22  C   UNL     1       9.889  15.487  22.633  0.00  0.00    +0.000 A 
ATOM     23  C   UNL     1       9.879  16.045  23.938  0.00  0.00    +0.000 A 
ATOM     24  C   UNL     1       9.164  17.210  23.872  0.00  0.00    +0.000 A 
ATOM     25  N   UNL     1       8.781  17.388  22.567  0.00  0.00    +0.000 N 
ATOM     26  H   UNL     1       8.249  18.177  22.224  0.00  0.00    +0.000 HD
ENDBRANCH   2  21
TORSDOF 2
ENDMDL
MODEL 7
REMARK VINA RESULT:      -5.6     11.341     14.252
REMARK  Name = 
REMARK  2 active torsions:
REMARK  status: ('A' for Active; 'I' for Inactive)
REMARK    1  A    between atoms: C_2  and  C_3
REMARK    2  A    between atoms: N_15  and  C_16
REMARK                            x       y       z     vdW  Elec       q    Type
REMARK                         _______ _______ _______ _____ _____    ______ ____
ROOT
ATOM      1  O   UNL     1      -3.500  11.916  23.736  0.00  0.00    +0.000 OA
ATOM      2  C   UNL     1      -3.846  13.083  23.920  0.00  0.00    +0.000 C 
ATOM      3  N   UNL     1      -5.144  13.494  23.561  0.00  0.00    +0.000 N 
ATOM      4  C   UNL     1      -6.094  12.559  22.885  0.00  0.00    +0.000 C 
ATOM      5  C   UNL     1      -7.096  13.287  21.920  0.00  0.00    +0.000 C 
ATOM      6  C   UNL     1      -7.916  14.296  22.737  0.00  0.00    +0.000 C 
ATOM      7  C   UNL     1      -7.028  14.998  23.749  0.00  0.00    +0.000 C 
ATOM      8  C   UNL     1      -5.527  14.892  23.405  0.00  0.00    +0.000 C 
ATOM      9  C   UNL     1      -5.053  15.423  22.002  0.00  0.00    +0.000 C 
ATOM     10  N   UNL     1      -5.123  14.543  20.803  0.00  0.00    +0.000 NA
ATOM     11  C   UNL     1      -6.481  14.001  20.678  0.00  0.00    +0.000 C 
ENDROOT
BRANCH  10  12
ATOM     12  C   UNL     1      -4.087  13.484  20.595  0.00  0.00    +0.000 C 
ATOM     13  C   UNL     1      -4.310  12.586  19.333  0.00  0.00    +0.000 C 
ATOM     14  C   UNL     1      -2.973  11.928  19.152  0.00  0.00    +0.000 A 
ATOM     15  C   UNL     1      -2.679  10.772  18.451  0.00  0.00    +0.000 A 
ATOM     16  C   UNL     1      -1.354  10.318  18.427  0.00  0.00    +0.000 A 
ATOM     17  C   UNL     1      -0.352  11.036  19.092  0.00  0.00    +0.000 A 
ATOM     18  C   UNL     1      -0.658  12.204  19.793  0.00  0.00    +0.000 A 
ATOM     19  C   UNL     1      -1.979  12.640  19.822  0.00  0.00    +0.000 A 
ATOM     20  C   UNL     1      -2.566  13.814  20.565  0.00  0.00    +0.000 C 
ENDBRANCH  10  12
BRANCH   2  21
ATOM     21  C   UNL     1      -2.851  14.063  24.400  0.00  0.00    +0.000 A 
ATOM     22  C   UNL     1      -1.685  14.586  23.859  0.00  0.00    +0.000 A 
ATOM     23  C   UNL     1      -1.095  15.474  24.796  0.00  0.00    +0.000 A 
ATOM     24  C   UNL     1      -1.933  15.532  25.877  0.00  0.00    +0.000 A 
ATOM     25  N   UNL     1      -3.020  14.744  25.601  0.00  0.00    +0.000 N 
ATOM     26  H   UNL     1      -3.809  14.610  26.221  0.00  0.00    +0.000 HD
ENDBRANCH   2  21
TORSDOF 2
ENDMDL
MODEL 8
REMARK VINA RESULT:      -5.6      1.939      4.417
REMARK  Name = 
REMARK  2 active torsions:
REMARK  status: ('A' for Active; 'I' for Inactive)
REMARK    1  A    between atoms: C_2  and  C_3
REMARK    2  A    between atoms: N_15  and  C_16
REMARK                            x       y       z     vdW  Elec       q    Type
REMARK                         _______ _______ _______ _____ _____    ______ ____
ROOT
ATOM      1  O   UNL     1      11.559  11.936  20.748  0.00  0.00    +0.000 OA
ATOM      2  C   UNL     1      11.020  12.182  19.670  0.00  0.00    +0.000 C 
ATOM      3  N   UNL     1      11.203  13.440  19.066  0.00  0.00    +0.000 N 
ATOM      4  C   UNL     1      11.980  14.521  19.746  0.00  0.00    +0.000 C 
ATOM      5  C   UNL     1      11.482  15.964  19.380  0.00  0.00    +0.000 C 
ATOM      6  C   UNL     1      11.618  16.158  17.862  0.00  0.00    +0.000 C 
ATOM      7  C   UNL     1      11.207  14.892  17.131  0.00  0.00    +0.000 C 
ATOM      8  C   UNL     1      10.347  13.950  18.001  0.00  0.00    +0.000 C 
ATOM      9  C   UNL     1       9.017  14.523  18.613  0.00  0.00    +0.000 C 
ATOM     10  N   UNL     1       9.041  15.265  19.903  0.00  0.00    +0.000 NA
ATOM     11  C   UNL     1      10.036  16.341  19.824  0.00  0.00    +0.000 C 
ENDROOT
BRANCH  10  12
ATOM     12  C   UNL     1       9.146  14.514  21.193  0.00  0.00    +0.000 C 
ATOM     13  C   UNL     1       8.942  15.384  22.478  0.00  0.00    +0.000 C 
ATOM     14  C   UNL     1       8.695  14.354  23.541  0.00  0.00    +0.000 A 
ATOM     15  C   UNL     1       8.824  14.495  24.912  0.00  0.00    +0.000 A 
ATOM     16  C   UNL     1       8.561  13.388  25.730  0.00  0.00    +0.000 A 
ATOM     17  C   UNL     1       8.163  12.171  25.161  0.00  0.00    +0.000 A 
ATOM     18  C   UNL     1       8.032  12.041  23.777  0.00  0.00    +0.000 A 
ATOM     19  C   UNL     1       8.308  13.142  22.972  0.00  0.00    +0.000 A 
ATOM     20  C   UNL     1       8.313  13.228  21.467  0.00  0.00    +0.000 C 
ENDBRANCH  10  12
BRANCH   2  21
ATOM     21  C   UNL     1      10.088  11.195  19.087  0.00  0.00    +0.000 A 
ATOM     22  C   UNL     1       9.539  11.028  17.823  0.00  0.00    +0.000 A 
ATOM     23  C   UNL     1       8.656   9.916  17.842  0.00  0.00    +0.000 A 
ATOM     24  C   UNL     1       8.716   9.378  19.099  0.00  0.00    +0.000 A 
ATOM     25  N   UNL     1       9.632  10.103  19.817  0.00  0.00    +0.000 N 
ATOM     26  H   UNL     1       9.889   9.918  20.778  0.00  0.00    +0.000 HD
ENDBRANCH   2  21
TORSDOF 2
ENDMDL
MODEL 9
REMARK VINA RESULT:      -5.6      7.747     10.516
REMARK  Name = 
REMARK  2 active torsions:
REMARK  status: ('A' for Active; 'I' for Inactive)
REMARK    1  A    between atoms: C_2  and  C_3
REMARK    2  A    between atoms: N_15  and  C_16
REMARK                            x       y       z     vdW  Elec       q    Type
REMARK                         _______ _______ _______ _____ _____    ______ ____
ROOT
ATOM      1  O   UNL     1      -1.038  12.938  17.966  0.00  0.00    +0.000 OA
ATOM      2  C   UNL     1      -0.667  12.132  18.818  0.00  0.00    +0.000 C 
ATOM      3  N   UNL     1      -1.035  12.316  20.164  0.00  0.00    +0.000 N 
ATOM      4  C   UNL     1      -1.806  13.519  20.599  0.00  0.00    +0.000 C 
ATOM      5  C   UNL     1      -1.486  13.960  22.072  0.00  0.00    +0.000 C 
ATOM      6  C   UNL     1      -1.834  12.799  23.016  0.00  0.00    +0.000 C 
ATOM      7  C   UNL     1      -1.414  11.476  22.400  0.00  0.00    +0.000 C 
ATOM      8  C   UNL     1      -0.371  11.643  21.275  0.00  0.00    +0.000 C 
ATOM      9  C   UNL     1       0.974  12.382  21.620  0.00  0.00    +0.000 C 
ATOM     10  N   UNL     1       1.053  13.867  21.557  0.00  0.00    +0.000 NA
ATOM     11  C   UNL     1      -0.032  14.445  22.358  0.00  0.00    +0.000 C 
ENDROOT
BRANCH  10  12
ATOM     12  C   UNL     1       1.182  14.551  20.232  0.00  0.00    +0.000 C 
ATOM     13  C   UNL     1       0.658  16.025  20.200  0.00  0.00    +0.000 C 
ATOM     14  C   UNL     1       1.265  16.566  18.939  0.00  0.00    +0.000 A 
ATOM     15  C   UNL     1       0.863  17.667  18.203  0.00  0.00    +0.000 A 
ATOM     16  C   UNL     1       1.565  17.987  17.034  0.00  0.00    +0.000 A 
ATOM     17  C   UNL     1       2.659  17.209  16.633  0.00  0.00    +0.000 A 
ATOM     18  C   UNL     1       3.059  16.102  17.385  0.00  0.00    +0.000 A 
ATOM     19  C   UNL     1       2.348  15.784  18.538  0.00  0.00    +0.000 A 
ATOM     20  C   UNL     1       2.534  14.609  19.464  0.00  0.00    +0.000 C 
ENDBRANCH  10  12
BRANCH   2  21
ATOM     21  C   UNL     1       0.262  11.050  18.432  0.00  0.00    +0.000 A 
ATOM     22  C   UNL     1       0.095   9.703  18.144  0.00  0.00    +0.000 A 
ATOM     23  C   UNL     1       1.364   9.124  17.873  0.00  0.00    +0.000 A 
ATOM     24  C   UNL     1       2.287  10.132  17.940  0.00  0.00    +0.000 A 
ATOM     25  N   UNL     1       1.612  11.297  18.200  0.00  0.00    +0.000 N 
ATOM     26  H   UNL     1       2.044  12.207  18.290  0.00  0.00    +0.000 HD
ENDBRANCH   2  21
TORSDOF 2
ENDMDL
