MODEL 1
REMARK VINA RESULT:      -6.1      0.000      0.000
REMARK  Name = 
REMARK  3 active torsions:
REMARK  status: ('A' for Active; 'I' for Inactive)
REMARK    1  A    between atoms: C_1  and  N_2
REMARK    2  A    between atoms: N_5  and  C_6
REMARK    3  A    between atoms: C_6  and  C_7
REMARK                            x       y       z     vdW  Elec       q    Type
REMARK                         _______ _______ _______ _____ _____    ______ ____
ROOT
ATOM      1  C   UNL     1      -0.806  10.826  22.852  0.00  0.00    +0.000 C 
ATOM      2  N   UNL     1      -0.371  10.624  21.476  0.00  0.00    +0.000 N 
ATOM      3  C   UNL     1      -0.171   9.300  21.062  0.00  0.00    +0.000 C 
ATOM      4  O   UNL     1      -0.580   8.352  21.728  0.00  0.00    +0.000 OA
ATOM      5  N   UNL     1       0.689   9.031  19.974  0.00  0.00    +0.000 N 
ATOM      6  S   UNL     1       0.739  10.057  18.658  0.00  0.00    +0.000 S 
ATOM      7  O   UNL     1       2.090  10.215  18.167  0.00  0.00    +0.000 OA
ATOM      8  O   UNL     1      -0.386   9.802  17.788  0.00  0.00    +0.000 OA
ATOM      9  C   UNL     1       0.374  11.592  19.310  0.00  0.00    +0.000 A 
ATOM     10  C   UNL     1       0.459  12.849  18.657  0.00  0.00    +0.000 A 
ATOM     11  C   UNL     1       0.082  13.870  19.506  0.00  0.00    +0.000 A 
ATOM     12  S   UNL     1      -0.344  13.285  21.060  0.00  0.00    +0.000 S 
ATOM     13  C   UNL     1      -0.086  11.669  20.594  0.00  0.00    +0.000 A 
ENDROOT
BRANCH   5  14
ATOM     14  C   UNL     1       1.943   8.321  20.300  0.00  0.00    +0.000 C 
BRANCH  14  15
ATOM     15  C   UNL     1       2.036   6.913  19.783  0.00  0.00    +0.000 A 
ATOM     16  C   UNL     1       1.665   5.838  20.602  0.00  0.00    +0.000 A 
ATOM     17  C   UNL     1       1.641   4.539  20.094  0.00  0.00    +0.000 A 
ATOM     18  C   UNL     1       1.994   4.301  18.767  0.00  0.00    +0.000 A 
ATOM     19  C   UNL     1       2.384   5.360  17.949  0.00  0.00    +0.000 A 
ATOM     20  C   UNL     1       2.406   6.661  18.454  0.00  0.00    +0.000 A 
ENDBRANCH  14  15
ENDBRANCH   5  14
TORSDOF 2
ENDMDL
MODEL 2
REMARK VINA RESULT:      -6.1      5.232      7.692
REMARK  Name = 
REMARK  3 active torsions:
REMARK  status: ('A' for Active; 'I' for Inactive)
REMARK    1  A    between atoms: C_1  and  N_2
REMARK    2  A    between atoms: N_5  and  C_6
REMARK    3  A    between atoms: C_6  and  C_7
REMARK                            x       y       z     vdW  Elec       q    Type
REMARK                         _______ _______ _______ _____ _____    ______ ____
ROOT
ATOM      1  C   UNL     1       3.037   8.093  17.616  0.00  0.00    +0.000 C 
ATOM      2  N   UNL     1       3.631   6.780  17.837  0.00  0.00    +0.000 N 
ATOM      3  C   UNL     1       4.610   6.366  16.925  0.00  0.00    +0.000 C 
ATOM      4  O   UNL     1       5.126   7.155  16.136  0.00  0.00    +0.000 OA
ATOM      5  N   UNL     1       4.871   4.987  16.757  0.00  0.00    +0.000 N 
ATOM      6  S   UNL     1       4.830   3.952  18.065  0.00  0.00    +0.000 S 
ATOM      7  O   UNL     1       4.234   2.682  17.713  0.00  0.00    +0.000 OA
ATOM      8  O   UNL     1       6.059   4.057  18.819  0.00  0.00    +0.000 OA
ATOM      9  C   UNL     1       3.680   4.649  19.117  0.00  0.00    +0.000 A 
ATOM     10  C   UNL     1       3.130   4.079  20.295  0.00  0.00    +0.000 A 
ATOM     11  C   UNL     1       2.228   4.942  20.883  0.00  0.00    +0.000 A 
ATOM     12  S   UNL     1       2.061   6.397  19.993  0.00  0.00    +0.000 S 
ATOM     13  C   UNL     1       3.230   5.912  18.854  0.00  0.00    +0.000 A 
ENDROOT
BRANCH   5  14
ATOM     14  C   UNL     1       4.488   4.411  15.452  0.00  0.00    +0.000 C 
BRANCH  14  15
ATOM     15  C   UNL     1       5.589   4.348  14.432  0.00  0.00    +0.000 A 
ATOM     16  C   UNL     1       5.385   3.676  13.219  0.00  0.00    +0.000 A 
ATOM     17  C   UNL     1       6.360   3.708  12.221  0.00  0.00    +0.000 A 
ATOM     18  C   UNL     1       7.549   4.404  12.428  0.00  0.00    +0.000 A 
ATOM     19  C   UNL     1       7.771   5.061  13.638  0.00  0.00    +0.000 A 
ATOM     20  C   UNL     1       6.796   5.031  14.636  0.00  0.00    +0.000 A 
ENDBRANCH  14  15
ENDBRANCH   5  14
TORSDOF 2
ENDMDL
MODEL 3
REMARK VINA RESULT:      -6.1      4.998      7.551
REMARK  Name = 
REMARK  3 active torsions:
REMARK  status: ('A' for Active; 'I' for Inactive)
REMARK    1  A    between atoms: C_1  and  N_2
REMARK    2  A    between atoms: N_5  and  C_6
REMARK    3  A    between atoms: C_6  and  C_7
REMARK                            x       y       z     vdW  Elec       q    Type
REMARK                         _______ _______ _______ _____ _____    ______ ____
ROOT
ATOM      1  C   UNL     1       2.230   7.426  18.806  0.00  0.00    +0.000 C 
ATOM      2  N   UNL     1       3.012   6.196  18.793  0.00  0.00    +0.000 N 
ATOM      3  C   UNL     1       4.011   6.091  17.816  0.00  0.00    +0.000 C 
ATOM      4  O   UNL     1       4.382   7.069  17.170  0.00  0.00    +0.000 OA
ATOM      5  N   UNL     1       4.460   4.814  17.411  0.00  0.00    +0.000 N 
ATOM      6  S   UNL     1       4.611   3.577  18.521  0.00  0.00    +0.000 S 
ATOM      7  O   UNL     1       4.191   2.313  17.959  0.00  0.00    +0.000 OA
ATOM      8  O   UNL     1       5.836   3.732  19.272  0.00  0.00    +0.000 OA
ATOM      9  C   UNL     1       3.408   3.910  19.685  0.00  0.00    +0.000 A 
ATOM     10  C   UNL     1       2.985   3.074  20.752  0.00  0.00    +0.000 A 
ATOM     11  C   UNL     1       1.988   3.683  21.487  0.00  0.00    +0.000 A 
ATOM     12  S   UNL     1       1.585   5.228  20.862  0.00  0.00    +0.000 S 
ATOM     13  C   UNL     1       2.773   5.119  19.648  0.00  0.00    +0.000 A 
ENDROOT
BRANCH   5  14
ATOM     14  C   UNL     1       4.121   4.418  16.029  0.00  0.00    +0.000 C 
BRANCH  14  15
ATOM     15  C   UNL     1       5.251   4.504  15.042  0.00  0.00    +0.000 A 
ATOM     16  C   UNL     1       6.450   5.133  15.401  0.00  0.00    +0.000 A 
ATOM     17  C   UNL     1       7.543   5.119  14.533  0.00  0.00    +0.000 A 
ATOM     18  C   UNL     1       7.445   4.484  13.297  0.00  0.00    +0.000 A 
ATOM     19  C   UNL     1       6.250   3.871  12.921  0.00  0.00    +0.000 A 
ATOM     20  C   UNL     1       5.157   3.882  13.789  0.00  0.00    +0.000 A 
ENDBRANCH  14  15
ENDBRANCH   5  14
TORSDOF 2
ENDMDL
MODEL 4
REMARK VINA RESULT:      -6.1      0.205      1.098
REMARK  Name = 
REMARK  3 active torsions:
REMARK  status: ('A' for Active; 'I' for Inactive)
REMARK    1  A    between atoms: C_1  and  N_2
REMARK    2  A    between atoms: N_5  and  C_6
REMARK    3  A    between atoms: C_6  and  C_7
REMARK                            x       y       z     vdW  Elec       q    Type
REMARK                         _______ _______ _______ _____ _____    ______ ____
ROOT
ATOM      1  C   UNL     1      -0.745  10.629  23.007  0.00  0.00    +0.000 C 
ATOM      2  N   UNL     1      -0.330  10.477  21.618  0.00  0.00    +0.000 N 
ATOM      3  C   UNL     1      -0.168   9.168  21.145  0.00  0.00    +0.000 C 
ATOM      4  O   UNL     1      -0.592   8.201  21.774  0.00  0.00    +0.000 OA
ATOM      5  N   UNL     1       0.672   8.925  20.035  0.00  0.00    +0.000 N 
ATOM      6  S   UNL     1       0.732  10.006  18.765  0.00  0.00    +0.000 S 
ATOM      7  O   UNL     1       2.081  10.154  18.263  0.00  0.00    +0.000 OA
ATOM      8  O   UNL     1      -0.409   9.817  17.898  0.00  0.00    +0.000 OA
ATOM      9  C   UNL     1       0.413  11.520  19.487  0.00  0.00    +0.000 A 
ATOM     10  C   UNL     1       0.521  12.802  18.888  0.00  0.00    +0.000 A 
ATOM     11  C   UNL     1       0.179  13.794  19.785  0.00  0.00    +0.000 A 
ATOM     12  S   UNL     1      -0.244  13.152  21.317  0.00  0.00    +0.000 S 
ATOM     13  C   UNL     1      -0.031  11.552  20.778  0.00  0.00    +0.000 A 
ENDROOT
BRANCH   5  14
ATOM     14  C   UNL     1       1.912   8.172  20.314  0.00  0.00    +0.000 C 
BRANCH  14  15
ATOM     15  C   UNL     1       1.959   6.781  19.747  0.00  0.00    +0.000 A 
ATOM     16  C   UNL     1       2.477   6.564  18.464  0.00  0.00    +0.000 A 
ATOM     17  C   UNL     1       2.628   5.266  17.974  0.00  0.00    +0.000 A 
ATOM     18  C   UNL     1       2.256   4.176  18.758  0.00  0.00    +0.000 A 
ATOM     19  C   UNL     1       1.721   4.381  20.029  0.00  0.00    +0.000 A 
ATOM     20  C   UNL     1       1.571   5.678  20.521  0.00  0.00    +0.000 A 
ENDBRANCH  14  15
ENDBRANCH   5  14
TORSDOF 2
ENDMDL
MODEL 5
REMARK VINA RESULT:      -6.0      5.013      7.603
REMARK  Name = 
REMARK  3 active torsions:
REMARK  status: ('A' for Active; 'I' for Inactive)
REMARK    1  A    between atoms: C_1  and  N_2
REMARK    2  A    between atoms: N_5  and  C_6
REMARK    3  A    between atoms: C_6  and  C_7
REMARK                            x       y       z     vdW  Elec       q    Type
REMARK                         _______ _______ _______ _____ _____    ______ ____
ROOT
ATOM      1  C   UNL     1       2.326   7.237  19.283  0.00  0.00    +0.000 C 
ATOM      2  N   UNL     1       2.952   5.927  19.157  0.00  0.00    +0.000 N 
ATOM      3  C   UNL     1       4.018   5.818  18.255  0.00  0.00    +0.000 C 
ATOM      4  O   UNL     1       4.564   6.814  17.784  0.00  0.00    +0.000 OA
ATOM      5  N   UNL     1       4.346   4.556  17.709  0.00  0.00    +0.000 N 
ATOM      6  S   UNL     1       4.241   3.176  18.642  0.00  0.00    +0.000 S 
ATOM      7  O   UNL     1       3.726   2.063  17.876  0.00  0.00    +0.000 OA
ATOM      8  O   UNL     1       5.399   3.068  19.500  0.00  0.00    +0.000 OA
ATOM      9  C   UNL     1       2.982   3.511  19.745  0.00  0.00    +0.000 A 
ATOM     10  C   UNL     1       2.361   2.607  20.647  0.00  0.00    +0.000 A 
ATOM     11  C   UNL     1       1.381   3.242  21.382  0.00  0.00    +0.000 A 
ATOM     12  S   UNL     1       1.228   4.895  20.952  0.00  0.00    +0.000 S 
ATOM     13  C   UNL     1       2.504   4.788  19.830  0.00  0.00    +0.000 A 
ENDROOT
BRANCH   5  14
ATOM     14  C   UNL     1       4.094   4.392  16.263  0.00  0.00    +0.000 C 
BRANCH  14  15
ATOM     15  C   UNL     1       5.321   4.391  15.395  0.00  0.00    +0.000 A 
ATOM     16  C   UNL     1       5.263   3.864  14.098  0.00  0.00    +0.000 A 
ATOM     17  C   UNL     1       6.363   3.961  13.246  0.00  0.00    +0.000 A 
ATOM     18  C   UNL     1       7.533   4.578  13.684  0.00  0.00    +0.000 A 
ATOM     19  C   UNL     1       7.610   5.089  14.979  0.00  0.00    +0.000 A 
ATOM     20  C   UNL     1       6.509   4.994  15.831  0.00  0.00    +0.000 A 
ENDBRANCH  14  15
ENDBRANCH   5  14
TORSDOF 2
ENDMDL
MODEL 6
REMARK VINA RESULT:      -5.7      5.922      7.701
REMARK  Name = 
REMARK  3 active torsions:
REMARK  status: ('A' for Active; 'I' for Inactive)
REMARK    1  A    between atoms: C_1  and  N_2
REMARK    2  A    between atoms: N_5  and  C_6
REMARK    3  A    between atoms: C_6  and  C_7
REMARK                            x       y       z     vdW  Elec       q    Type
REMARK                         _______ _______ _______ _____ _____    ______ ____
ROOT
ATOM      1  C   UNL     1       4.600   1.182  19.432  0.00  0.00    +0.000 C 
ATOM      2  N   UNL     1       3.699   2.227  18.963  0.00  0.00    +0.000 N 
ATOM      3  C   UNL     1       3.752   2.545  17.599  0.00  0.00    +0.000 C 
ATOM      4  O   UNL     1       4.333   1.821  16.794  0.00  0.00    +0.000 OA
ATOM      5  N   UNL     1       3.315   3.815  17.161  0.00  0.00    +0.000 N 
ATOM      6  S   UNL     1       1.994   4.548  17.870  0.00  0.00    +0.000 S 
ATOM      7  O   UNL     1       2.200   5.972  18.017  0.00  0.00    +0.000 OA
ATOM      8  O   UNL     1       0.771   3.984  17.344  0.00  0.00    +0.000 OA
ATOM      9  C   UNL     1       2.012   3.979  19.479  0.00  0.00    +0.000 A 
ATOM     10  C   UNL     1       1.213   4.429  20.563  0.00  0.00    +0.000 A 
ATOM     11  C   UNL     1       1.510   3.729  21.716  0.00  0.00    +0.000 A 
ATOM     12  S   UNL     1       2.748   2.571  21.460  0.00  0.00    +0.000 S 
ATOM     13  C   UNL     1       2.853   2.952  19.804  0.00  0.00    +0.000 A 
ENDROOT
BRANCH   5  14
ATOM     14  C   UNL     1       4.363   4.715  16.638  0.00  0.00    +0.000 C 
BRANCH  14  15
ATOM     15  C   UNL     1       5.596   4.825  17.490  0.00  0.00    +0.000 A 
ATOM     16  C   UNL     1       6.837   4.416  16.984  0.00  0.00    +0.000 A 
ATOM     17  C   UNL     1       8.002   4.619  17.724  0.00  0.00    +0.000 A 
ATOM     18  C   UNL     1       7.938   5.224  18.977  0.00  0.00    +0.000 A 
ATOM     19  C   UNL     1       6.707   5.618  19.499  0.00  0.00    +0.000 A 
ATOM     20  C   UNL     1       5.540   5.418  18.759  0.00  0.00    +0.000 A 
ENDBRANCH  14  15
ENDBRANCH   5  14
TORSDOF 2
ENDMDL
MODEL 7
REMARK VINA RESULT:      -5.5      1.632      3.327
REMARK  Name = 
REMARK  3 active torsions:
REMARK  status: ('A' for Active; 'I' for Inactive)
REMARK    1  A    between atoms: C_1  and  N_2
REMARK    2  A    between atoms: N_5  and  C_6
REMARK    3  A    between atoms: C_6  and  C_7
REMARK                            x       y       z     vdW  Elec       q    Type
REMARK                         _______ _______ _______ _____ _____    ______ ____
ROOT
ATOM      1  C   UNL     1       0.226  13.313  18.724  0.00  0.00    +0.000 C 
ATOM      2  N   UNL     1       0.393  12.187  19.635  0.00  0.00    +0.000 N 
ATOM      3  C   UNL     1       1.360  11.233  19.293  0.00  0.00    +0.000 C 
ATOM      4  O   UNL     1       2.196  11.452  18.419  0.00  0.00    +0.000 OA
ATOM      5  N   UNL     1       1.257   9.920  19.805  0.00  0.00    +0.000 N 
ATOM      6  S   UNL     1       0.718   9.657  21.362  0.00  0.00    +0.000 S 
ATOM      7  O   UNL     1      -0.136   8.491  21.433  0.00  0.00    +0.000 OA
ATOM      8  O   UNL     1       1.784   9.905  22.306  0.00  0.00    +0.000 OA
ATOM      9  C   UNL     1      -0.357  10.951  21.657  0.00  0.00    +0.000 A 
ATOM     10  C   UNL     1      -1.231  11.111  22.765  0.00  0.00    +0.000 A 
ATOM     11  C   UNL     1      -1.948  12.286  22.658  0.00  0.00    +0.000 A 
ATOM     12  S   UNL     1      -1.559  13.144  21.226  0.00  0.00    +0.000 S 
ATOM     13  C   UNL     1      -0.395  11.989  20.771  0.00  0.00    +0.000 A 
ENDROOT
BRANCH   5  14
ATOM     14  C   UNL     1       0.955   8.863  18.819  0.00  0.00    +0.000 C 
BRANCH  14  15
ATOM     15  C   UNL     1       2.044   7.847  18.615  0.00  0.00    +0.000 A 
ATOM     16  C   UNL     1       2.965   8.005  17.571  0.00  0.00    +0.000 A 
ATOM     17  C   UNL     1       4.044   7.130  17.442  0.00  0.00    +0.000 A 
ATOM     18  C   UNL     1       4.208   6.085  18.349  0.00  0.00    +0.000 A 
ATOM     19  C   UNL     1       3.287   5.906  19.380  0.00  0.00    +0.000 A 
ATOM     20  C   UNL     1       2.208   6.782  19.512  0.00  0.00    +0.000 A 
ENDBRANCH  14  15
ENDBRANCH   5  14
TORSDOF 2
ENDMDL
MODEL 8
REMARK VINA RESULT:      -5.3      3.806      7.489
REMARK  Name = 
REMARK  3 active torsions:
REMARK  status: ('A' for Active; 'I' for Inactive)
REMARK    1  A    between atoms: C_1  and  N_2
REMARK    2  A    between atoms: N_5  and  C_6
REMARK    3  A    between atoms: C_6  and  C_7
REMARK                            x       y       z     vdW  Elec       q    Type
REMARK                         _______ _______ _______ _____ _____    ______ ____
ROOT
ATOM      1  C   UNL     1       6.140   4.607  18.277  0.00  0.00    +0.000 C 
ATOM      2  N   UNL     1       4.686   4.569  18.359  0.00  0.00    +0.000 N 
ATOM      3  C   UNL     1       4.009   5.783  18.177  0.00  0.00    +0.000 C 
ATOM      4  O   UNL     1       4.578   6.773  17.723  0.00  0.00    +0.000 OA
ATOM      5  N   UNL     1       2.710   5.945  18.709  0.00  0.00    +0.000 N 
ATOM      6  S   UNL     1       1.626   4.676  18.702  0.00  0.00    +0.000 S 
ATOM      7  O   UNL     1       0.848   4.643  19.920  0.00  0.00    +0.000 OA
ATOM      8  O   UNL     1       1.034   4.538  17.391  0.00  0.00    +0.000 OA
ATOM      9  C   UNL     1       2.608   3.285  18.822  0.00  0.00    +0.000 A 
ATOM     10  C   UNL     1       2.186   1.947  19.038  0.00  0.00    +0.000 A 
ATOM     11  C   UNL     1       3.268   1.091  19.077  0.00  0.00    +0.000 A 
ATOM     12  S   UNL     1       4.751   1.926  18.871  0.00  0.00    +0.000 S 
ATOM     13  C   UNL     1       3.959   3.418  18.670  0.00  0.00    +0.000 A 
ENDROOT
BRANCH   5  14
ATOM     14  C   UNL     1       2.582   6.910  19.820  0.00  0.00    +0.000 C 
BRANCH  14  15
ATOM     15  C   UNL     1       1.789   8.148  19.506  0.00  0.00    +0.000 A 
ATOM     16  C   UNL     1       1.748   8.641  18.196  0.00  0.00    +0.000 A 
ATOM     17  C   UNL     1       0.926   9.722  17.874  0.00  0.00    +0.000 A 
ATOM     18  C   UNL     1       0.145  10.323  18.858  0.00  0.00    +0.000 A 
ATOM     19  C   UNL     1       0.193   9.853  20.170  0.00  0.00    +0.000 A 
ATOM     20  C   UNL     1       1.013   8.771  20.493  0.00  0.00    +0.000 A 
ENDBRANCH  14  15
ENDBRANCH   5  14
TORSDOF 2
ENDMDL
MODEL 9
REMARK VINA RESULT:      -5.3      9.313     10.524
REMARK  Name = 
REMARK  3 active torsions:
REMARK  status: ('A' for Active; 'I' for Inactive)
REMARK    1  A    between atoms: C_1  and  N_2
REMARK    2  A    between atoms: N_5  and  C_6
REMARK    3  A    between atoms: C_6  and  C_7
REMARK                            x       y       z     vdW  Elec       q    Type
REMARK                         _______ _______ _______ _____ _____    ______ ____
ROOT
ATOM      1  C   UNL     1       7.764  12.789  17.356  0.00  0.00    +0.000 C 
ATOM      2  N   UNL     1       8.589  13.914  17.780  0.00  0.00    +0.000 N 
ATOM      3  C   UNL     1       9.975  13.712  17.799  0.00  0.00    +0.000 C 
ATOM      4  O   UNL     1      10.489  12.738  17.253  0.00  0.00    +0.000 OA
ATOM      5  N   UNL     1      10.787  14.518  18.629  0.00  0.00    +0.000 N 
ATOM      6  S   UNL     1      10.440  16.136  18.840  0.00  0.00    +0.000 S 
ATOM      7  O   UNL     1      10.671  16.550  20.206  0.00  0.00    +0.000 OA
ATOM      8  O   UNL     1      10.907  16.896  17.703  0.00  0.00    +0.000 OA
ATOM      9  C   UNL     1       8.742  16.225  18.682  0.00  0.00    +0.000 A 
ATOM     10  C   UNL     1       7.908  17.342  18.951  0.00  0.00    +0.000 A 
ATOM     11  C   UNL     1       6.584  17.036  18.707  0.00  0.00    +0.000 A 
ATOM     12  S   UNL     1       6.389  15.416  18.181  0.00  0.00    +0.000 S 
ATOM     13  C   UNL     1       8.067  15.133  18.219  0.00  0.00    +0.000 A 
ENDROOT
BRANCH   5  14
ATOM     14  C   UNL     1      11.431  13.831  19.767  0.00  0.00    +0.000 C 
BRANCH  14  15
ATOM     15  C   UNL     1      10.499  13.076  20.672  0.00  0.00    +0.000 A 
ATOM     16  C   UNL     1       9.783  13.756  21.667  0.00  0.00    +0.000 A 
ATOM     17  C   UNL     1       8.833  13.084  22.436  0.00  0.00    +0.000 A 
ATOM     18  C   UNL     1       8.594  11.728  22.224  0.00  0.00    +0.000 A 
ATOM     19  C   UNL     1       9.314  11.037  21.250  0.00  0.00    +0.000 A 
ATOM     20  C   UNL     1      10.264  11.708  20.478  0.00  0.00    +0.000 A 
ENDBRANCH  14  15
ENDBRANCH   5  14
TORSDOF 2
ENDMDL
