MODEL 1
REMARK VINA RESULT:      -8.8      0.000      0.000
REMARK  Name = 
REMARK  4 active torsions:
REMARK  status: ('A' for Active; 'I' for Inactive)
REMARK    1  A    between atoms: C_1  and  C_2
REMARK    2  A    between atoms: C_7  and  C_9
REMARK    3  A    between atoms: C_12  and  N_13
REMARK    4  A    between atoms: N_13  and  C_14
REMARK                            x       y       z     vdW  Elec       q    Type
REMARK                         _______ _______ _______ _____ _____    ______ ____
ROOT
ATOM      1  C   UNL     1       1.200   9.738  19.245  0.00  0.00    +0.000 A 
ATOM      2  C   UNL     1       1.838   9.094  18.186  0.00  0.00    +0.000 A 
ATOM      3  C   UNL     1       2.343   7.798  18.363  0.00  0.00    +0.000 A 
ATOM      4  C   UNL     1       2.277   7.138  19.605  0.00  0.00    +0.000 A 
ATOM      5  C   UNL     1       1.589   7.772  20.641  0.00  0.00    +0.000 A 
ATOM      6  C   UNL     1       1.067   9.062  20.468  0.00  0.00    +0.000 A 
ENDROOT
BRANCH   1  13
ATOM      7  C   UNL     1       3.046  16.565  17.773  0.00  0.00    +0.000 C 
ATOM      8  C   UNL     1       2.142  15.545  18.346  0.00  0.00    +0.000 A 
ATOM      9  C   UNL     1       0.889  15.764  18.884  0.00  0.00    +0.000 A 
ATOM     10  S   UNL     1       0.192  14.274  19.366  0.00  0.00    +0.000 S 
ATOM     11  C   UNL     1       1.583  13.450  18.822  0.00  0.00    +0.000 A 
ATOM     12  N   UNL     1       1.727  12.085  18.914  0.00  0.00    +0.000 N 
ATOM     13  C   UNL     1       0.742  11.158  19.156  0.00  0.00    +0.000 C 
ATOM     14  O   UNL     1      -0.460  11.379  19.253  0.00  0.00    +0.000 OA
ATOM     15  N   UNL     1       2.544  14.215  18.350  0.00  0.00    +0.000 NA
ATOM     16  H   UNL     1       2.657  11.784  18.640  0.00  0.00    +0.000 HD
ENDBRANCH   1  13
BRANCH   4  17
ATOM     17  N   UNL     1       3.048   5.982  19.899  0.00  0.00    +0.000 N 
ATOM     18  H   UNL     1       3.088   5.680  20.871  0.00  0.00    +0.000 HD
BRANCH  17  19
ATOM     19  C   UNL     1       3.664   5.140  18.981  0.00  0.00    +0.000 C 
ATOM     20  C   UNL     1       3.079   4.223  18.195  0.00  0.00    +0.000 C 
ATOM     21 CL   UNL     1       1.474   4.401  17.572  0.00  0.00    +0.000 Cl
ATOM     22  C   UNL     1       3.886   3.185  17.532  0.00  0.00    +0.000 C 
ATOM     23  O   UNL     1       3.611   1.995  17.546  0.00  0.00    +0.000 OA
ATOM     24  C   UNL     1       5.006   3.734  16.788  0.00  0.00    +0.000 A 
ATOM     25  C   UNL     1       5.345   3.173  15.558  0.00  0.00    +0.000 A 
ATOM     26  C   UNL     1       6.174   3.888  14.713  0.00  0.00    +0.000 A 
ATOM     27  C   UNL     1       6.674   5.133  15.120  0.00  0.00    +0.000 A 
ATOM     28  C   UNL     1       6.393   5.644  16.399  0.00  0.00    +0.000 A 
ATOM     29  C   UNL     1       5.544   4.934  17.244  0.00  0.00    +0.000 A 
ATOM     30  C   UNL     1       5.096   5.461  18.574  0.00  0.00    +0.000 C 
ATOM     31  O   UNL     1       5.796   6.230  19.224  0.00  0.00    +0.000 OA
ENDBRANCH  17  19
ENDBRANCH   4  17
TORSDOF 3
ENDMDL
MODEL 2
REMARK VINA RESULT:      -8.8      2.129      2.463
REMARK  Name = 
REMARK  4 active torsions:
REMARK  status: ('A' for Active; 'I' for Inactive)
REMARK    1  A    between atoms: C_1  and  C_2
REMARK    2  A    between atoms: C_7  and  C_9
REMARK    3  A    between atoms: C_12  and  N_13
REMARK    4  A    between atoms: N_13  and  C_14
REMARK                            x       y       z     vdW  Elec       q    Type
REMARK                         _______ _______ _______ _____ _____    ______ ____
ROOT
ATOM      1  C   UNL     1       1.067   9.361  19.911  0.00  0.00    +0.000 A 
ATOM      2  C   UNL     1       1.801   8.907  18.817  0.00  0.00    +0.000 A 
ATOM      3  C   UNL     1       2.372   7.627  18.843  0.00  0.00    +0.000 A 
ATOM      4  C   UNL     1       2.273   6.794  19.975  0.00  0.00    +0.000 A 
ATOM      5  C   UNL     1       1.491   7.238  21.042  0.00  0.00    +0.000 A 
ATOM      6  C   UNL     1       0.903   8.512  21.016  0.00  0.00    +0.000 A 
ENDROOT
BRANCH   1  13
ATOM      7  C   UNL     1      -1.307  14.650  24.220  0.00  0.00    +0.000 C 
ATOM      8  C   UNL     1      -1.148  14.007  22.899  0.00  0.00    +0.000 A 
ATOM      9  C   UNL     1      -1.502  14.541  21.676  0.00  0.00    +0.000 A 
ATOM     10  S   UNL     1      -1.071  13.457  20.419  0.00  0.00    +0.000 S 
ATOM     11  C   UNL     1      -0.441  12.372  21.575  0.00  0.00    +0.000 A 
ATOM     12  N   UNL     1       0.119  11.162  21.236  0.00  0.00    +0.000 N 
ATOM     13  C   UNL     1       0.532  10.754  19.990  0.00  0.00    +0.000 C 
ATOM     14  O   UNL     1       0.545  11.432  18.968  0.00  0.00    +0.000 OA
ATOM     15  N   UNL     1      -0.573  12.744  22.830  0.00  0.00    +0.000 NA
ATOM     16  H   UNL     1       0.342  10.606  22.056  0.00  0.00    +0.000 HD
ENDBRANCH   1  13
BRANCH   4  17
ATOM     17  N   UNL     1       3.093   5.649  20.155  0.00  0.00    +0.000 N 
ATOM     18  H   UNL     1       3.185   5.282  21.100  0.00  0.00    +0.000 HD
BRANCH  17  19
ATOM     19  C   UNL     1       3.696   4.894  19.156  0.00  0.00    +0.000 C 
ATOM     20  C   UNL     1       3.091   4.116  18.244  0.00  0.00    +0.000 C 
ATOM     21 CL   UNL     1       1.520   4.459  17.604  0.00  0.00    +0.000 Cl
ATOM     22  C   UNL     1       3.865   3.125  17.478  0.00  0.00    +0.000 C 
ATOM     23  O   UNL     1       3.528   1.959  17.334  0.00  0.00    +0.000 OA
ATOM     24  C   UNL     1       5.037   3.699  16.840  0.00  0.00    +0.000 A 
ATOM     25  C   UNL     1       5.389   3.276  15.560  0.00  0.00    +0.000 A 
ATOM     26  C   UNL     1       6.282   4.044  14.835  0.00  0.00    +0.000 A 
ATOM     27  C   UNL     1       6.833   5.198  15.410  0.00  0.00    +0.000 A 
ATOM     28  C   UNL     1       6.535   5.562  16.734  0.00  0.00    +0.000 A 
ATOM     29  C   UNL     1       5.621   4.800  17.459  0.00  0.00    +0.000 A 
ATOM     30  C   UNL     1       5.155   5.182  18.832  0.00  0.00    +0.000 C 
ATOM     31  O   UNL     1       5.871   5.823  19.593  0.00  0.00    +0.000 OA
ENDBRANCH  17  19
ENDBRANCH   4  17
TORSDOF 3
ENDMDL
MODEL 3
REMARK VINA RESULT:      -8.7      3.230      4.126
REMARK  Name = 
REMARK  4 active torsions:
REMARK  status: ('A' for Active; 'I' for Inactive)
REMARK    1  A    between atoms: C_1  and  C_2
REMARK    2  A    between atoms: C_7  and  C_9
REMARK    3  A    between atoms: C_12  and  N_13
REMARK    4  A    between atoms: N_13  and  C_14
REMARK                            x       y       z     vdW  Elec       q    Type
REMARK                         _______ _______ _______ _____ _____    ______ ____
ROOT
ATOM      1  C   UNL     1       0.605  10.261  20.604  0.00  0.00    +0.000 A 
ATOM      2  C   UNL     1       0.898   9.176  21.430  0.00  0.00    +0.000 A 
ATOM      3  C   UNL     1       1.569   8.063  20.906  0.00  0.00    +0.000 A 
ATOM      4  C   UNL     1       1.914   7.978  19.542  0.00  0.00    +0.000 A 
ATOM      5  C   UNL     1       1.663   9.091  18.739  0.00  0.00    +0.000 A 
ATOM      6  C   UNL     1       1.007  10.216  19.260  0.00  0.00    +0.000 A 
ENDROOT
BRANCH   1  13
ATOM      7  C   UNL     1      -4.615  12.547  25.043  0.00  0.00    +0.000 C 
ATOM      8  C   UNL     1      -3.724  12.706  23.875  0.00  0.00    +0.000 A 
ATOM      9  C   UNL     1      -3.584  13.837  23.095  0.00  0.00    +0.000 A 
ATOM     10  S   UNL     1      -2.389  13.573  21.893  0.00  0.00    +0.000 S 
ATOM     11  C   UNL     1      -2.137  11.997  22.494  0.00  0.00    +0.000 A 
ATOM     12  N   UNL     1      -1.226  11.125  21.944  0.00  0.00    +0.000 N 
ATOM     13  C   UNL     1      -0.205  11.425  21.074  0.00  0.00    +0.000 C 
ATOM     14  O   UNL     1       0.124  12.543  20.694  0.00  0.00    +0.000 OA
ATOM     15  N   UNL     1      -2.913  11.644  23.496  0.00  0.00    +0.000 NA
ATOM     16  H   UNL     1      -1.287  10.201  22.362  0.00  0.00    +0.000 HD
ENDBRANCH   1  13
BRANCH   4  17
ATOM     17  N   UNL     1       2.295   6.757  18.925  0.00  0.00    +0.000 N 
ATOM     18  H   UNL     1       1.550   6.138  18.612  0.00  0.00    +0.000 HD
BRANCH  17  19
ATOM     19  C   UNL     1       3.585   6.364  18.590  0.00  0.00    +0.000 C 
ATOM     20  C   UNL     1       4.318   5.396  19.164  0.00  0.00    +0.000 C 
ATOM     21 CL   UNL     1       3.622   3.969  19.854  0.00  0.00    +0.000 Cl
ATOM     22  C   UNL     1       5.770   5.323  18.932  0.00  0.00    +0.000 C 
ATOM     23  O   UNL     1       6.597   5.194  19.822  0.00  0.00    +0.000 OA
ATOM     24  C   UNL     1       6.114   5.340  17.521  0.00  0.00    +0.000 A 
ATOM     25  C   UNL     1       7.151   4.529  17.065  0.00  0.00    +0.000 A 
ATOM     26  C   UNL     1       7.257   4.294  15.706  0.00  0.00    +0.000 A 
ATOM     27  C   UNL     1       6.348   4.897  14.825  0.00  0.00    +0.000 A 
ATOM     28  C   UNL     1       5.363   5.782  15.293  0.00  0.00    +0.000 A 
ATOM     29  C   UNL     1       5.243   6.005  16.663  0.00  0.00    +0.000 A 
ATOM     30  C   UNL     1       4.147   6.838  17.257  0.00  0.00    +0.000 C 
ATOM     31  O   UNL     1       3.636   7.760  16.631  0.00  0.00    +0.000 OA
ENDBRANCH  17  19
ENDBRANCH   4  17
TORSDOF 3
ENDMDL
MODEL 4
REMARK VINA RESULT:      -8.6      3.023      3.682
REMARK  Name = 
REMARK  4 active torsions:
REMARK  status: ('A' for Active; 'I' for Inactive)
REMARK    1  A    between atoms: C_1  and  C_2
REMARK    2  A    between atoms: C_7  and  C_9
REMARK    3  A    between atoms: C_12  and  N_13
REMARK    4  A    between atoms: N_13  and  C_14
REMARK                            x       y       z     vdW  Elec       q    Type
REMARK                         _______ _______ _______ _____ _____    ______ ____
ROOT
ATOM      1  C   UNL     1       0.470   9.972  21.058  0.00  0.00    +0.000 A 
ATOM      2  C   UNL     1       0.845   8.832  21.766  0.00  0.00    +0.000 A 
ATOM      3  C   UNL     1       1.536   7.802  21.113  0.00  0.00    +0.000 A 
ATOM      4  C   UNL     1       1.820   7.858  19.734  0.00  0.00    +0.000 A 
ATOM      5  C   UNL     1       1.488   9.027  19.050  0.00  0.00    +0.000 A 
ATOM      6  C   UNL     1       0.810  10.069  19.700  0.00  0.00    +0.000 A 
ENDROOT
BRANCH   1  13
ATOM      7  C   UNL     1      -5.313  14.237  20.317  0.00  0.00    +0.000 C 
ATOM      8  C   UNL     1      -4.031  13.864  20.953  0.00  0.00    +0.000 A 
ATOM      9  C   UNL     1      -3.460  14.455  22.062  0.00  0.00    +0.000 A 
ATOM     10  S   UNL     1      -2.005  13.644  22.471  0.00  0.00    +0.000 S 
ATOM     11  C   UNL     1      -2.241  12.569  21.168  0.00  0.00    +0.000 A 
ATOM     12  N   UNL     1      -1.361  11.555  20.867  0.00  0.00    +0.000 N 
ATOM     13  C   UNL     1      -0.364  11.051  21.668  0.00  0.00    +0.000 C 
ATOM     14  O   UNL     1      -0.135  11.366  22.831  0.00  0.00    +0.000 OA
ATOM     15  N   UNL     1      -3.302  12.804  20.427  0.00  0.00    +0.000 NA
ATOM     16  H   UNL     1      -1.606  11.086  20.000  0.00  0.00    +0.000 HD
ENDBRANCH   1  13
BRANCH   4  17
ATOM     17  N   UNL     1       2.222   6.716  18.991  0.00  0.00    +0.000 N 
ATOM     18  H   UNL     1       1.488   6.139  18.585  0.00  0.00    +0.000 HD
BRANCH  17  19
ATOM     19  C   UNL     1       3.522   6.362  18.652  0.00  0.00    +0.000 C 
ATOM     20  C   UNL     1       4.279   5.403  19.210  0.00  0.00    +0.000 C 
ATOM     21 CL   UNL     1       3.618   3.947  19.873  0.00  0.00    +0.000 Cl
ATOM     22  C   UNL     1       5.733   5.371  18.979  0.00  0.00    +0.000 C 
ATOM     23  O   UNL     1       6.562   5.248  19.869  0.00  0.00    +0.000 OA
ATOM     24  C   UNL     1       6.079   5.422  17.570  0.00  0.00    +0.000 A 
ATOM     25  C   UNL     1       7.138   4.646  17.102  0.00  0.00    +0.000 A 
ATOM     26  C   UNL     1       7.251   4.439  15.739  0.00  0.00    +0.000 A 
ATOM     27  C   UNL     1       6.329   5.034  14.867  0.00  0.00    +0.000 A 
ATOM     28  C   UNL     1       5.321   5.885  15.348  0.00  0.00    +0.000 A 
ATOM     29  C   UNL     1       5.193   6.080  16.722  0.00  0.00    +0.000 A 
ATOM     30  C   UNL     1       4.075   6.874  17.329  0.00  0.00    +0.000 C 
ATOM     31  O   UNL     1       3.542   7.794  16.718  0.00  0.00    +0.000 OA
ENDBRANCH  17  19
ENDBRANCH   4  17
TORSDOF 3
ENDMDL
MODEL 5
REMARK VINA RESULT:      -8.5      1.565      1.567
REMARK  Name = 
REMARK  4 active torsions:
REMARK  status: ('A' for Active; 'I' for Inactive)
REMARK    1  A    between atoms: C_1  and  C_2
REMARK    2  A    between atoms: C_7  and  C_9
REMARK    3  A    between atoms: C_12  and  N_13
REMARK    4  A    between atoms: N_13  and  C_14
REMARK                            x       y       z     vdW  Elec       q    Type
REMARK                         _______ _______ _______ _____ _____    ______ ____
ROOT
ATOM      1  C   UNL     1       0.987   9.389  19.845  0.00  0.00    +0.000 A 
ATOM      2  C   UNL     1       1.756   8.950  18.768  0.00  0.00    +0.000 A 
ATOM      3  C   UNL     1       2.361   7.686  18.814  0.00  0.00    +0.000 A 
ATOM      4  C   UNL     1       2.262   6.857  19.949  0.00  0.00    +0.000 A 
ATOM      5  C   UNL     1       1.447   7.286  20.997  0.00  0.00    +0.000 A 
ATOM      6  C   UNL     1       0.825   8.543  20.952  0.00  0.00    +0.000 A 
ENDROOT
BRANCH   1  13
ATOM      7  C   UNL     1       1.795  16.137  22.295  0.00  0.00    +0.000 C 
ATOM      8  C   UNL     1       0.991  15.039  21.717  0.00  0.00    +0.000 A 
ATOM      9  C   UNL     1      -0.306  15.124  21.253  0.00  0.00    +0.000 A 
ATOM     10  S   UNL     1      -0.799  13.610  20.615  0.00  0.00    +0.000 S 
ATOM     11  C   UNL     1       0.733  12.959  20.985  0.00  0.00    +0.000 A 
ATOM     12  N   UNL     1       1.072  11.651  20.724  0.00  0.00    +0.000 N 
ATOM     13  C   UNL     1       0.412  10.767  19.904  0.00  0.00    +0.000 C 
ATOM     14  O   UNL     1      -0.556  11.015  19.193  0.00  0.00    +0.000 OA
ATOM     15  N   UNL     1       1.565  13.779  21.591  0.00  0.00    +0.000 NA
ATOM     16  H   UNL     1       1.982  11.412  21.106  0.00  0.00    +0.000 HD
ENDBRANCH   1  13
BRANCH   4  17
ATOM     17  N   UNL     1       3.110   5.736  20.152  0.00  0.00    +0.000 N 
ATOM     18  H   UNL     1       3.234   5.410  21.109  0.00  0.00    +0.000 HD
BRANCH  17  19
ATOM     19  C   UNL     1       3.702   4.953  19.169  0.00  0.00    +0.000 C 
ATOM     20  C   UNL     1       3.085   4.177  18.263  0.00  0.00    +0.000 C 
ATOM     21 CL   UNL     1       1.527   4.549  17.607  0.00  0.00    +0.000 Cl
ATOM     22  C   UNL     1       3.840   3.157  17.517  0.00  0.00    +0.000 C 
ATOM     23  O   UNL     1       3.476   1.998  17.387  0.00  0.00    +0.000 OA
ATOM     24  C   UNL     1       5.031   3.694  16.881  0.00  0.00    +0.000 A 
ATOM     25  C   UNL     1       5.382   3.245  15.609  0.00  0.00    +0.000 A 
ATOM     26  C   UNL     1       6.299   3.981  14.880  0.00  0.00    +0.000 A 
ATOM     27  C   UNL     1       6.873   5.129  15.443  0.00  0.00    +0.000 A 
ATOM     28  C   UNL     1       6.574   5.518  16.760  0.00  0.00    +0.000 A 
ATOM     29  C   UNL     1       5.637   4.789  17.489  0.00  0.00    +0.000 A 
ATOM     30  C   UNL     1       5.170   5.201  18.853  0.00  0.00    +0.000 C 
ATOM     31  O   UNL     1       5.896   5.836  19.610  0.00  0.00    +0.000 OA
ENDBRANCH  17  19
ENDBRANCH   4  17
TORSDOF 3
ENDMDL
MODEL 6
REMARK VINA RESULT:      -8.3      2.872      3.532
REMARK  Name = 
REMARK  4 active torsions:
REMARK  status: ('A' for Active; 'I' for Inactive)
REMARK    1  A    between atoms: C_1  and  C_2
REMARK    2  A    between atoms: C_7  and  C_9
REMARK    3  A    between atoms: C_12  and  N_13
REMARK    4  A    between atoms: N_13  and  C_14
REMARK                            x       y       z     vdW  Elec       q    Type
REMARK                         _______ _______ _______ _____ _____    ______ ____
ROOT
ATOM      1  C   UNL     1       0.390  10.209  20.281  0.00  0.00    +0.000 A 
ATOM      2  C   UNL     1       0.729   9.254  21.238  0.00  0.00    +0.000 A 
ATOM      3  C   UNL     1       1.469   8.124  20.862  0.00  0.00    +0.000 A 
ATOM      4  C   UNL     1       1.840   7.892  19.523  0.00  0.00    +0.000 A 
ATOM      5  C   UNL     1       1.540   8.881  18.585  0.00  0.00    +0.000 A 
ATOM      6  C   UNL     1       0.814  10.022  18.957  0.00  0.00    +0.000 A 
ENDROOT
BRANCH   1  13
ATOM      7  C   UNL     1      -1.331  15.317  25.091  0.00  0.00    +0.000 C 
ATOM      8  C   UNL     1      -1.605  14.502  23.888  0.00  0.00    +0.000 A 
ATOM      9  C   UNL     1      -2.658  14.661  23.009  0.00  0.00    +0.000 A 
ATOM     10  S   UNL     1      -2.527  13.525  21.731  0.00  0.00    +0.000 S 
ATOM     11  C   UNL     1      -1.091  12.917  22.422  0.00  0.00    +0.000 A 
ATOM     12  N   UNL     1      -0.376  11.880  21.868  0.00  0.00    +0.000 N 
ATOM     13  C   UNL     1      -0.492  11.374  20.595  0.00  0.00    +0.000 C 
ATOM     14  O   UNL     1      -1.203  11.814  19.697  0.00  0.00    +0.000 OA
ATOM     15  N   UNL     1      -0.732  13.472  23.559  0.00  0.00    +0.000 NA
ATOM     16  H   UNL     1       0.387  11.583  22.468  0.00  0.00    +0.000 HD
ENDBRANCH   1  13
BRANCH   4  17
ATOM     17  N   UNL     1       2.298   6.628  19.065  0.00  0.00    +0.000 N 
ATOM     18  H   UNL     1       1.597   5.908  18.896  0.00  0.00    +0.000 HD
BRANCH  17  19
ATOM     19  C   UNL     1       3.599   6.296  18.706  0.00  0.00    +0.000 C 
ATOM     20  C   UNL     1       4.386   5.361  19.263  0.00  0.00    +0.000 C 
ATOM     21 CL   UNL     1       3.769   3.900  19.956  0.00  0.00    +0.000 Cl
ATOM     22  C   UNL     1       5.836   5.357  19.005  0.00  0.00    +0.000 C 
ATOM     23  O   UNL     1       6.683   5.263  19.880  0.00  0.00    +0.000 OA
ATOM     24  C   UNL     1       6.154   5.397  17.589  0.00  0.00    +0.000 A 
ATOM     25  C   UNL     1       7.221   4.638  17.111  0.00  0.00    +0.000 A 
ATOM     26  C   UNL     1       7.314   4.415  15.749  0.00  0.00    +0.000 A 
ATOM     27  C   UNL     1       6.363   4.979  14.887  0.00  0.00    +0.000 A 
ATOM     28  C   UNL     1       5.345   5.815  15.376  0.00  0.00    +0.000 A 
ATOM     29  C   UNL     1       5.239   6.026  16.749  0.00  0.00    +0.000 A 
ATOM     30  C   UNL     1       4.116   6.803  17.367  0.00  0.00    +0.000 C 
ATOM     31  O   UNL     1       3.552   7.703  16.755  0.00  0.00    +0.000 OA
ENDBRANCH  17  19
ENDBRANCH   4  17
TORSDOF 3
ENDMDL
MODEL 7
REMARK VINA RESULT:      -8.3      4.151      9.932
REMARK  Name = 
REMARK  4 active torsions:
REMARK  status: ('A' for Active; 'I' for Inactive)
REMARK    1  A    between atoms: C_1  and  C_2
REMARK    2  A    between atoms: C_7  and  C_9
REMARK    3  A    between atoms: C_12  and  N_13
REMARK    4  A    between atoms: N_13  and  C_14
REMARK                            x       y       z     vdW  Elec       q    Type
REMARK                         _______ _______ _______ _____ _____    ______ ____
ROOT
ATOM      1  C   UNL     1       2.899   7.333  18.546  0.00  0.00    +0.000 A 
ATOM      2  C   UNL     1       2.609   8.455  17.771  0.00  0.00    +0.000 A 
ATOM      3  C   UNL     1       1.720   9.425  18.255  0.00  0.00    +0.000 A 
ATOM      4  C   UNL     1       1.059   9.276  19.490  0.00  0.00    +0.000 A 
ATOM      5  C   UNL     1       1.398   8.176  20.279  0.00  0.00    +0.000 A 
ATOM      6  C   UNL     1       2.299   7.209  19.809  0.00  0.00    +0.000 A 
ENDROOT
BRANCH   1  13
ATOM      7  C   UNL     1       7.581   5.146  13.499  0.00  0.00    +0.000 C 
ATOM      8  C   UNL     1       6.624   4.894  14.598  0.00  0.00    +0.000 A 
ATOM      9  C   UNL     1       6.369   3.681  15.206  0.00  0.00    +0.000 A 
ATOM     10  S   UNL     1       5.231   3.890  16.471  0.00  0.00    +0.000 S 
ATOM     11  C   UNL     1       5.167   5.561  16.134  0.00  0.00    +0.000 A 
ATOM     12  N   UNL     1       4.367   6.434  16.834  0.00  0.00    +0.000 N 
ATOM     13  C   UNL     1       3.747   6.212  18.041  0.00  0.00    +0.000 C 
ATOM     14  O   UNL     1       3.864   5.217  18.749  0.00  0.00    +0.000 OA
ATOM     15  N   UNL     1       5.899   5.960  15.117  0.00  0.00    +0.000 NA
ATOM     16  H   UNL     1       4.378   7.365  16.429  0.00  0.00    +0.000 HD
ENDBRANCH   1  13
BRANCH   4  17
ATOM     17  N   UNL     1      -0.067  10.062  19.854  0.00  0.00    +0.000 N 
ATOM     18  H   UNL     1      -0.983   9.734  19.554  0.00  0.00    +0.000 HD
BRANCH  17  19
ATOM     19  C   UNL     1      -0.068  11.177  20.682  0.00  0.00    +0.000 C 
ATOM     20  C   UNL     1       0.181  12.451  20.336  0.00  0.00    +0.000 C 
ATOM     21 CL   UNL     1      -0.207  13.099  18.779  0.00  0.00    +0.000 Cl
ATOM     22  C   UNL     1       0.475  13.460  21.368  0.00  0.00    +0.000 C 
ATOM     23  O   UNL     1       1.417  14.236  21.313  0.00  0.00    +0.000 OA
ATOM     24  C   UNL     1      -0.522  13.490  22.423  0.00  0.00    +0.000 A 
ATOM     25  C   UNL     1      -0.911  14.718  22.954  0.00  0.00    +0.000 A 
ATOM     26  C   UNL     1      -2.073  14.775  23.702  0.00  0.00    +0.000 A 
ATOM     27  C   UNL     1      -2.807  13.603  23.935  0.00  0.00    +0.000 A 
ATOM     28  C   UNL     1      -2.353  12.358  23.467  0.00  0.00    +0.000 A 
ATOM     29  C   UNL     1      -1.193  12.302  22.698  0.00  0.00    +0.000 A 
ATOM     30  C   UNL     1      -0.703  11.038  22.059  0.00  0.00    +0.000 C 
ATOM     31  O   UNL     1      -0.936   9.941  22.555  0.00  0.00    +0.000 OA
ENDBRANCH  17  19
ENDBRANCH   4  17
TORSDOF 3
ENDMDL
MODEL 8
REMARK VINA RESULT:      -8.3      4.688      6.451
REMARK  Name = 
REMARK  4 active torsions:
REMARK  status: ('A' for Active; 'I' for Inactive)
REMARK    1  A    between atoms: C_1  and  C_2
REMARK    2  A    between atoms: C_7  and  C_9
REMARK    3  A    between atoms: C_12  and  N_13
REMARK    4  A    between atoms: N_13  and  C_14
REMARK                            x       y       z     vdW  Elec       q    Type
REMARK                         _______ _______ _______ _____ _____    ______ ____
ROOT
ATOM      1  C   UNL     1       8.507   9.054  18.478  0.00  0.00    +0.000 A 
ATOM      2  C   UNL     1       8.735   7.822  19.089  0.00  0.00    +0.000 A 
ATOM      3  C   UNL     1       7.968   6.709  18.719  0.00  0.00    +0.000 A 
ATOM      4  C   UNL     1       6.924   6.807  17.778  0.00  0.00    +0.000 A 
ATOM      5  C   UNL     1       6.742   8.032  17.136  0.00  0.00    +0.000 A 
ATOM      6  C   UNL     1       7.516   9.147  17.489  0.00  0.00    +0.000 A 
ENDROOT
BRANCH   1  13
ATOM      7  C   UNL     1       9.145  16.198  17.618  0.00  0.00    +0.000 C 
ATOM      8  C   UNL     1       9.628  14.887  18.101  0.00  0.00    +0.000 A 
ATOM      9  C   UNL     1      10.735  14.659  18.894  0.00  0.00    +0.000 A 
ATOM     10  S   UNL     1      10.863  12.986  19.250  0.00  0.00    +0.000 S 
ATOM     11  C   UNL     1       9.447  12.688  18.346  0.00  0.00    +0.000 A 
ATOM     12  N   UNL     1       8.915  11.430  18.184  0.00  0.00    +0.000 N 
ATOM     13  C   UNL     1       9.212  10.300  18.908  0.00  0.00    +0.000 C 
ATOM     14  O   UNL     1       9.951  10.233  19.885  0.00  0.00    +0.000 OA
ATOM     15  N   UNL     1       8.917  13.742  17.763  0.00  0.00    +0.000 NA
ATOM     16  H   UNL     1       8.137  11.429  17.532  0.00  0.00    +0.000 HD
ENDBRANCH   1  13
BRANCH   4  17
ATOM     17  N   UNL     1       5.938   5.796  17.623  0.00  0.00    +0.000 N 
ATOM     18  H   UNL     1       6.089   5.103  16.893  0.00  0.00    +0.000 HD
BRANCH  17  19
ATOM     19  C   UNL     1       4.838   5.576  18.443  0.00  0.00    +0.000 C 
ATOM     20  C   UNL     1       3.713   6.305  18.513  0.00  0.00    +0.000 C 
ATOM     21 CL   UNL     1       3.046   7.143  17.153  0.00  0.00    +0.000 Cl
ATOM     22  C   UNL     1       2.794   6.152  19.653  0.00  0.00    +0.000 C 
ATOM     23  O   UNL     1       2.336   7.088  20.290  0.00  0.00    +0.000 OA
ATOM     24  C   UNL     1       2.422   4.769  19.892  0.00  0.00    +0.000 A 
ATOM     25  C   UNL     1       1.112   4.472  20.262  0.00  0.00    +0.000 A 
ATOM     26  C   UNL     1       0.680   3.161  20.165  0.00  0.00    +0.000 A 
ATOM     27  C   UNL     1       1.569   2.167  19.731  0.00  0.00    +0.000 A 
ATOM     28  C   UNL     1       2.911   2.469  19.447  0.00  0.00    +0.000 A 
ATOM     29  C   UNL     1       3.344   3.791  19.527  0.00  0.00    +0.000 A 
ATOM     30  C   UNL     1       4.723   4.220  19.126  0.00  0.00    +0.000 C 
ATOM     31  O   UNL     1       5.678   3.456  19.211  0.00  0.00    +0.000 OA
ENDBRANCH  17  19
ENDBRANCH   4  17
TORSDOF 3
ENDMDL
MODEL 9
REMARK VINA RESULT:      -8.3      0.621      1.109
REMARK  Name = 
REMARK  4 active torsions:
REMARK  status: ('A' for Active; 'I' for Inactive)
REMARK    1  A    between atoms: C_1  and  C_2
REMARK    2  A    between atoms: C_7  and  C_9
REMARK    3  A    between atoms: C_12  and  N_13
REMARK    4  A    between atoms: N_13  and  C_14
REMARK                            x       y       z     vdW  Elec       q    Type
REMARK                         _______ _______ _______ _____ _____    ______ ____
ROOT
ATOM      1  C   UNL     1       1.154   9.624  19.555  0.00  0.00    +0.000 A 
ATOM      2  C   UNL     1       1.091   9.030  20.815  0.00  0.00    +0.000 A 
ATOM      3  C   UNL     1       1.667   7.768  21.019  0.00  0.00    +0.000 A 
ATOM      4  C   UNL     1       2.267   7.047  19.968  0.00  0.00    +0.000 A 
ATOM      5  C   UNL     1       2.371   7.675  18.727  0.00  0.00    +0.000 A 
ATOM      6  C   UNL     1       1.811   8.944  18.518  0.00  0.00    +0.000 A 
ENDROOT
BRANCH   1  13
ATOM      7  C   UNL     1       1.888  16.730  18.485  0.00  0.00    +0.000 C 
ATOM      8  C   UNL     1       1.082  15.521  18.760  0.00  0.00    +0.000 A 
ATOM      9  C   UNL     1      -0.295  15.447  18.822  0.00  0.00    +0.000 A 
ATOM     10  S   UNL     1      -0.780  13.826  19.105  0.00  0.00    +0.000 S 
ATOM     11  C   UNL     1       0.856  13.342  19.113  0.00  0.00    +0.000 A 
ATOM     12  N   UNL     1       1.248  12.038  19.314  0.00  0.00    +0.000 N 
ATOM     13  C   UNL     1       0.463  10.912  19.245  0.00  0.00    +0.000 C 
ATOM     14  O   UNL     1      -0.717  10.864  18.912  0.00  0.00    +0.000 OA
ATOM     15  N   UNL     1       1.733  14.311  18.966  0.00  0.00    +0.000 NA
ATOM     16  H   UNL     1       2.256  11.954  19.392  0.00  0.00    +0.000 HD
ENDBRANCH   1  13
BRANCH   4  17
ATOM     17  N   UNL     1       2.565   5.662  20.065  0.00  0.00    +0.000 N 
ATOM     18  H   UNL     1       2.163   5.150  20.848  0.00  0.00    +0.000 HD
BRANCH  17  19
ATOM     19  C   UNL     1       3.254   4.894  19.135  0.00  0.00    +0.000 C 
ATOM     20  C   UNL     1       2.733   4.103  18.182  0.00  0.00    +0.000 C 
ATOM     21 CL   UNL     1       1.226   4.438  17.400  0.00  0.00    +0.000 Cl
ATOM     22  C   UNL     1       3.572   3.102  17.503  0.00  0.00    +0.000 C 
ATOM     23  O   UNL     1       3.247   1.935  17.345  0.00  0.00    +0.000 OA
ATOM     24  C   UNL     1       4.797   3.668  16.965  0.00  0.00    +0.000 A 
ATOM     25  C   UNL     1       5.262   3.228  15.728  0.00  0.00    +0.000 A 
ATOM     26  C   UNL     1       6.218   3.985  15.076  0.00  0.00    +0.000 A 
ATOM     27  C   UNL     1       6.716   5.148  15.682  0.00  0.00    +0.000 A 
ATOM     28  C   UNL     1       6.301   5.529  16.969  0.00  0.00    +0.000 A 
ATOM     29  C   UNL     1       5.324   4.777  17.620  0.00  0.00    +0.000 A 
ATOM     30  C   UNL     1       4.738   5.177  18.940  0.00  0.00    +0.000 C 
ATOM     31  O   UNL     1       5.383   5.829  19.753  0.00  0.00    +0.000 OA
ENDBRANCH  17  19
ENDBRANCH   4  17
TORSDOF 3
ENDMDL
