MODEL 1
REMARK VINA RESULT:      -9.0      0.000      0.000
REMARK  Name = 
REMARK  10 active torsions:
REMARK  status: ('A' for Active; 'I' for Inactive)
REMARK    1  A    between atoms: C_1  and  C_2
REMARK    2  A    between atoms: C_4  and  C_5
REMARK    3  A    between atoms: C_6  and  C_7
REMARK    4  A    between atoms: C_7  and  N_8
REMARK    5  A    between atoms: N_11  and  C_12
REMARK    6  A    between atoms: C_12  and  C_13
REMARK    7  A    between atoms: C_13  and  C_14
REMARK    8  A    between atoms: N_16  and  C_17
REMARK    9  A    between atoms: C_17  and  C_18
REMARK   10  A    between atoms: C_35  and  C_36
REMARK                            x       y       z     vdW  Elec       q    Type
REMARK                         _______ _______ _______ _____ _____    ______ ____
ROOT
ATOM      1  N   UNL     1       3.962   5.560  19.156  0.00  0.00    +0.000 N 
ATOM      2  C   UNL     1       3.340   6.789  18.925  0.00  0.00    +0.000 A 
ATOM      3  O   UNL     1       3.762   7.578  18.078  0.00  0.00    +0.000 OA
ATOM      4  N   UNL     1       2.228   7.082  19.713  0.00  0.00    +0.000 N 
ATOM      5  C   UNL     1       1.555   6.149  20.490  0.00  0.00    +0.000 A 
ATOM      6  O   UNL     1       0.510   6.384  21.091  0.00  0.00    +0.000 OA
ATOM      7  C   UNL     1       2.162   4.819  20.604  0.00  0.00    +0.000 A 
ATOM      8  C   UNL     1       1.490   3.814  21.322  0.00  0.00    +0.000 A 
ATOM      9  C   UNL     1       2.043   2.543  21.426  0.00  0.00    +0.000 A 
ATOM     10  C   UNL     1       3.286   2.289  20.862  0.00  0.00    +0.000 A 
ATOM     11  C   UNL     1       3.971   3.304  20.185  0.00  0.00    +0.000 A 
ATOM     12  C   UNL     1       3.394   4.572  20.007  0.00  0.00    +0.000 A 
ENDROOT
BRANCH   1  13
ATOM     13  C   UNL     1       5.298   5.399  18.591  0.00  0.00    +0.000 C 
BRANCH  13  19
ATOM     14  C   UNL     1       6.776   3.971  13.093  0.00  0.00    +0.000 C 
ATOM     15  C   UNL     1       6.333   4.415  14.454  0.00  0.00    +0.000 A 
ATOM     16  C   UNL     1       7.007   5.398  15.162  0.00  0.00    +0.000 A 
ATOM     17  C   UNL     1       6.609   5.759  16.464  0.00  0.00    +0.000 A 
ATOM     18  C   UNL     1       7.417   6.840  17.147  0.00  0.00    +0.000 C 
ATOM     19  C   UNL     1       5.490   5.123  17.095  0.00  0.00    +0.000 A 
ATOM     20  C   UNL     1       4.762   4.179  16.328  0.00  0.00    +0.000 A 
ATOM     21  C   UNL     1       3.522   3.442  16.749  0.00  0.00    +0.000 C 
ATOM     22  C   UNL     1       5.222   3.820  15.041  0.00  0.00    +0.000 A 
ENDBRANCH  13  19
ENDBRANCH   1  13
BRANCH   4  23
ATOM     23  C   UNL     1       1.676   8.437  19.650  0.00  0.00    +0.000 C 
BRANCH  23  24
ATOM     24  C   UNL     1       1.603   9.138  21.011  0.00  0.00    +0.000 C 
BRANCH  24  25
ATOM     25  C   UNL     1       0.634  10.299  21.014  0.00  0.00    +0.000 C 
ATOM     26  O   UNL     1       0.645  11.179  21.867  0.00  0.00    +0.000 OA
ATOM     27  N   UNL     1      -0.214  10.295  19.935  0.00  0.00    +0.000 N 
ATOM     28  H   UNL     1      -0.180   9.544  19.259  0.00  0.00    +0.000 HD
BRANCH  27  29
ATOM     29  C   UNL     1      -1.201  11.334  19.734  0.00  0.00    +0.000 C 
BRANCH  29  30
ATOM     30  C   UNL     1      -2.211  11.060  18.642  0.00  0.00    +0.000 A 
ATOM     31  C   UNL     1      -3.460  11.720  18.538  0.00  0.00    +0.000 A 
ATOM     32  C   UNL     1      -4.255  11.586  17.393  0.00  0.00    +0.000 A 
ATOM     33  C   UNL     1      -3.762  10.806  16.371  0.00  0.00    +0.000 A 
ATOM     34  C   UNL     1      -2.595  10.091  16.504  0.00  0.00    +0.000 A 
ATOM     35  C   UNL     1      -1.822  10.162  17.635  0.00  0.00    +0.000 A 
ATOM     36  O   UNL     1      -2.261   9.429  15.361  0.00  0.00    +0.000 OA
ATOM     37  C   UNL     1      -3.147  10.099  14.446  0.00  0.00    +0.000 C 
ATOM     38  O   UNL     1      -4.277  10.703  15.114  0.00  0.00    +0.000 OA
ENDBRANCH  29  30
ENDBRANCH  27  29
ENDBRANCH  24  25
ENDBRANCH  23  24
ENDBRANCH   4  23
TORSDOF 7
ENDMDL
MODEL 2
REMARK VINA RESULT:      -8.7      1.598      2.202
REMARK  Name = 
REMARK  10 active torsions:
REMARK  status: ('A' for Active; 'I' for Inactive)
REMARK    1  A    between atoms: C_1  and  C_2
REMARK    2  A    between atoms: C_4  and  C_5
REMARK    3  A    between atoms: C_6  and  C_7
REMARK    4  A    between atoms: C_7  and  N_8
REMARK    5  A    between atoms: N_11  and  C_12
REMARK    6  A    between atoms: C_12  and  C_13
REMARK    7  A    between atoms: C_13  and  C_14
REMARK    8  A    between atoms: N_16  and  C_17
REMARK    9  A    between atoms: C_17  and  C_18
REMARK   10  A    between atoms: C_35  and  C_36
REMARK                            x       y       z     vdW  Elec       q    Type
REMARK                         _______ _______ _______ _____ _____    ______ ____
ROOT
ATOM      1  N   UNL     1       3.967   5.569  19.056  0.00  0.00    +0.000 N 
ATOM      2  C   UNL     1       3.423   6.825  18.777  0.00  0.00    +0.000 A 
ATOM      3  O   UNL     1       3.886   7.548  17.893  0.00  0.00    +0.000 OA
ATOM      4  N   UNL     1       2.339   7.222  19.558  0.00  0.00    +0.000 N 
ATOM      5  C   UNL     1       1.615   6.369  20.379  0.00  0.00    +0.000 A 
ATOM      6  O   UNL     1       0.593   6.696  20.976  0.00  0.00    +0.000 OA
ATOM      7  C   UNL     1       2.136   5.008  20.547  0.00  0.00    +0.000 A 
ATOM      8  C   UNL     1       1.408   4.081  21.312  0.00  0.00    +0.000 A 
ATOM      9  C   UNL     1       1.879   2.782  21.467  0.00  0.00    +0.000 A 
ATOM     10  C   UNL     1       3.098   2.424  20.906  0.00  0.00    +0.000 A 
ATOM     11  C   UNL     1       3.840   3.363  20.181  0.00  0.00    +0.000 A 
ATOM     12  C   UNL     1       3.344   4.657  19.953  0.00  0.00    +0.000 A 
ENDROOT
BRANCH   1  13
ATOM     13  C   UNL     1       5.283   5.298  18.490  0.00  0.00    +0.000 C 
BRANCH  13  19
ATOM     14  C   UNL     1       6.692   3.949  12.954  0.00  0.00    +0.000 C 
ATOM     15  C   UNL     1       6.265   4.372  14.326  0.00  0.00    +0.000 A 
ATOM     16  C   UNL     1       6.939   5.356  15.035  0.00  0.00    +0.000 A 
ATOM     17  C   UNL     1       6.557   5.697  16.347  0.00  0.00    +0.000 A 
ATOM     18  C   UNL     1       7.363   6.780  17.029  0.00  0.00    +0.000 C 
ATOM     19  C   UNL     1       5.455   5.041  16.988  0.00  0.00    +0.000 A 
ATOM     20  C   UNL     1       4.727   4.096  16.222  0.00  0.00    +0.000 A 
ATOM     21  C   UNL     1       3.502   3.340  16.654  0.00  0.00    +0.000 C 
ATOM     22  C   UNL     1       5.170   3.758  14.924  0.00  0.00    +0.000 A 
ENDBRANCH  13  19
ENDBRANCH   1  13
BRANCH   4  23
ATOM     23  C   UNL     1       1.875   8.606  19.440  0.00  0.00    +0.000 C 
BRANCH  23  24
ATOM     24  C   UNL     1       0.867   8.826  18.307  0.00  0.00    +0.000 C 
BRANCH  24  25
ATOM     25  C   UNL     1       0.202  10.182  18.377  0.00  0.00    +0.000 C 
ATOM     26  O   UNL     1       0.621  11.098  19.075  0.00  0.00    +0.000 OA
ATOM     27  N   UNL     1      -0.877  10.296  17.537  0.00  0.00    +0.000 N 
ATOM     28  H   UNL     1      -1.180   9.509  16.981  0.00  0.00    +0.000 HD
BRANCH  27  29
ATOM     29  C   UNL     1      -1.638  11.523  17.432  0.00  0.00    +0.000 C 
BRANCH  29  30
ATOM     30  C   UNL     1      -2.847  11.611  18.336  0.00  0.00    +0.000 A 
ATOM     31  C   UNL     1      -2.859  12.298  19.574  0.00  0.00    +0.000 A 
ATOM     32  C   UNL     1      -4.058  12.531  20.259  0.00  0.00    +0.000 A 
ATOM     33  C   UNL     1      -5.218  12.083  19.670  0.00  0.00    +0.000 A 
ATOM     34  C   UNL     1      -5.203  11.336  18.515  0.00  0.00    +0.000 A 
ATOM     35  C   UNL     1      -4.039  11.048  17.849  0.00  0.00    +0.000 A 
ATOM     36  O   UNL     1      -6.458  11.041  18.073  0.00  0.00    +0.000 OA
ATOM     37  C   UNL     1      -7.204  11.972  18.877  0.00  0.00    +0.000 C 
ATOM     38  O   UNL     1      -6.490  12.372  20.067  0.00  0.00    +0.000 OA
ENDBRANCH  29  30
ENDBRANCH  27  29
ENDBRANCH  24  25
ENDBRANCH  23  24
ENDBRANCH   4  23
TORSDOF 7
ENDMDL
MODEL 3
REMARK VINA RESULT:      -8.7      1.474      2.037
REMARK  Name = 
REMARK  10 active torsions:
REMARK  status: ('A' for Active; 'I' for Inactive)
REMARK    1  A    between atoms: C_1  and  C_2
REMARK    2  A    between atoms: C_4  and  C_5
REMARK    3  A    between atoms: C_6  and  C_7
REMARK    4  A    between atoms: C_7  and  N_8
REMARK    5  A    between atoms: N_11  and  C_12
REMARK    6  A    between atoms: C_12  and  C_13
REMARK    7  A    between atoms: C_13  and  C_14
REMARK    8  A    between atoms: N_16  and  C_17
REMARK    9  A    between atoms: C_17  and  C_18
REMARK   10  A    between atoms: C_35  and  C_36
REMARK                            x       y       z     vdW  Elec       q    Type
REMARK                         _______ _______ _______ _____ _____    ______ ____
ROOT
ATOM      1  N   UNL     1       3.977   5.518  19.022  0.00  0.00    +0.000 N 
ATOM      2  C   UNL     1       3.502   6.807  18.765  0.00  0.00    +0.000 A 
ATOM      3  O   UNL     1       4.015   7.525  17.905  0.00  0.00    +0.000 OA
ATOM      4  N   UNL     1       2.430   7.242  19.542  0.00  0.00    +0.000 N 
ATOM      5  C   UNL     1       1.652   6.409  20.334  0.00  0.00    +0.000 A 
ATOM      6  O   UNL     1       0.640   6.776  20.926  0.00  0.00    +0.000 OA
ATOM      7  C   UNL     1       2.099   5.019  20.476  0.00  0.00    +0.000 A 
ATOM      8  C   UNL     1       1.313   4.114  21.209  0.00  0.00    +0.000 A 
ATOM      9  C   UNL     1       1.714   2.789  21.340  0.00  0.00    +0.000 A 
ATOM     10  C   UNL     1       2.920   2.381  20.786  0.00  0.00    +0.000 A 
ATOM     11  C   UNL     1       3.720   3.297  20.093  0.00  0.00    +0.000 A 
ATOM     12  C   UNL     1       3.295   4.620  19.889  0.00  0.00    +0.000 A 
ENDROOT
BRANCH   1  13
ATOM     13  C   UNL     1       5.285   5.192  18.466  0.00  0.00    +0.000 C 
BRANCH  13  19
ATOM     14  C   UNL     1       6.705   3.883  12.924  0.00  0.00    +0.000 C 
ATOM     15  C   UNL     1       6.277   4.298  14.298  0.00  0.00    +0.000 A 
ATOM     16  C   UNL     1       6.964   5.260  15.022  0.00  0.00    +0.000 A 
ATOM     17  C   UNL     1       6.579   5.593  16.336  0.00  0.00    +0.000 A 
ATOM     18  C   UNL     1       7.401   6.653  17.037  0.00  0.00    +0.000 C 
ATOM     19  C   UNL     1       5.462   4.950  16.963  0.00  0.00    +0.000 A 
ATOM     20  C   UNL     1       4.721   4.028  16.180  0.00  0.00    +0.000 A 
ATOM     21  C   UNL     1       3.480   3.289  16.595  0.00  0.00    +0.000 C 
ATOM     22  C   UNL     1       5.167   3.697  14.881  0.00  0.00    +0.000 A 
ENDBRANCH  13  19
ENDBRANCH   1  13
BRANCH   4  23
ATOM     23  C   UNL     1       2.040   8.651  19.452  0.00  0.00    +0.000 C 
BRANCH  23  24
ATOM     24  C   UNL     1       0.869   8.907  18.496  0.00  0.00    +0.000 C 
BRANCH  24  25
ATOM     25  C   UNL     1      -0.079   9.967  19.012  0.00  0.00    +0.000 C 
ATOM     26  O   UNL     1      -0.558   9.945  20.140  0.00  0.00    +0.000 OA
ATOM     27  N   UNL     1      -0.297  10.978  18.112  0.00  0.00    +0.000 N 
ATOM     28  H   UNL     1       0.124  10.947  17.193  0.00  0.00    +0.000 HD
BRANCH  27  29
ATOM     29  C   UNL     1      -1.152  12.105  18.419  0.00  0.00    +0.000 C 
BRANCH  29  30
ATOM     30  C   UNL     1      -2.624  11.889  18.149  0.00  0.00    +0.000 A 
ATOM     31  C   UNL     1      -3.131  11.276  16.977  0.00  0.00    +0.000 A 
ATOM     32  C   UNL     1      -4.478  10.907  16.880  0.00  0.00    +0.000 A 
ATOM     33  C   UNL     1      -5.278  11.146  17.974  0.00  0.00    +0.000 A 
ATOM     34  C   UNL     1      -4.813  11.823  19.078  0.00  0.00    +0.000 A 
ATOM     35  C   UNL     1      -3.511  12.242  19.179  0.00  0.00    +0.000 A 
ATOM     36  O   UNL     1      -5.748  11.905  20.065  0.00  0.00    +0.000 OA
ATOM     37  C   UNL     1      -6.676  10.919  19.580  0.00  0.00    +0.000 C 
ATOM     38  O   UNL     1      -6.551  10.694  18.158  0.00  0.00    +0.000 OA
ENDBRANCH  29  30
ENDBRANCH  27  29
ENDBRANCH  24  25
ENDBRANCH  23  24
ENDBRANCH   4  23
TORSDOF 7
ENDMDL
MODEL 4
REMARK VINA RESULT:      -8.6      2.954      3.965
REMARK  Name = 
REMARK  10 active torsions:
REMARK  status: ('A' for Active; 'I' for Inactive)
REMARK    1  A    between atoms: C_1  and  C_2
REMARK    2  A    between atoms: C_4  and  C_5
REMARK    3  A    between atoms: C_6  and  C_7
REMARK    4  A    between atoms: C_7  and  N_8
REMARK    5  A    between atoms: N_11  and  C_12
REMARK    6  A    between atoms: C_12  and  C_13
REMARK    7  A    between atoms: C_13  and  C_14
REMARK    8  A    between atoms: N_16  and  C_17
REMARK    9  A    between atoms: C_17  and  C_18
REMARK   10  A    between atoms: C_35  and  C_36
REMARK                            x       y       z     vdW  Elec       q    Type
REMARK                         _______ _______ _______ _____ _____    ______ ____
ROOT
ATOM      1  N   UNL     1       4.067   5.444  19.009  0.00  0.00    +0.000 N 
ATOM      2  C   UNL     1       3.523   6.696  18.711  0.00  0.00    +0.000 A 
ATOM      3  O   UNL     1       3.982   7.402  17.812  0.00  0.00    +0.000 OA
ATOM      4  N   UNL     1       2.447   7.109  19.494  0.00  0.00    +0.000 N 
ATOM      5  C   UNL     1       1.727   6.272  20.335  0.00  0.00    +0.000 A 
ATOM      6  O   UNL     1       0.711   6.613  20.934  0.00  0.00    +0.000 OA
ATOM      7  C   UNL     1       2.247   4.913  20.523  0.00  0.00    +0.000 A 
ATOM      8  C   UNL     1       1.522   4.001  21.310  0.00  0.00    +0.000 A 
ATOM      9  C   UNL     1       1.991   2.704  21.484  0.00  0.00    +0.000 A 
ATOM     10  C   UNL     1       3.205   2.334  20.920  0.00  0.00    +0.000 A 
ATOM     11  C   UNL     1       3.944   3.258  20.174  0.00  0.00    +0.000 A 
ATOM     12  C   UNL     1       3.449   4.549  19.926  0.00  0.00    +0.000 A 
ENDROOT
BRANCH   1  13
ATOM     13  C   UNL     1       5.379   5.160  18.438  0.00  0.00    +0.000 C 
BRANCH  13  19
ATOM     14  C   UNL     1       6.778   3.957  12.866  0.00  0.00    +0.000 C 
ATOM     15  C   UNL     1       6.354   4.345  14.249  0.00  0.00    +0.000 A 
ATOM     16  C   UNL     1       7.036   5.302  14.986  0.00  0.00    +0.000 A 
ATOM     17  C   UNL     1       6.656   5.609  16.307  0.00  0.00    +0.000 A 
ATOM     18  C   UNL     1       7.472   6.664  17.021  0.00  0.00    +0.000 C 
ATOM     19  C   UNL     1       5.549   4.945  16.929  0.00  0.00    +0.000 A 
ATOM     20  C   UNL     1       4.812   4.029  16.136  0.00  0.00    +0.000 A 
ATOM     21  C   UNL     1       3.581   3.272  16.545  0.00  0.00    +0.000 C 
ATOM     22  C   UNL     1       5.253   3.724  14.829  0.00  0.00    +0.000 A 
ENDBRANCH  13  19
ENDBRANCH   1  13
BRANCH   4  23
ATOM     23  C   UNL     1       1.985   8.492  19.355  0.00  0.00    +0.000 C 
BRANCH  23  24
ATOM     24  C   UNL     1       1.358   8.800  17.991  0.00  0.00    +0.000 C 
BRANCH  24  25
ATOM     25  C   UNL     1       0.400   9.970  18.044  0.00  0.00    +0.000 C 
ATOM     26  O   UNL     1      -0.762   9.902  17.662  0.00  0.00    +0.000 OA
ATOM     27  N   UNL     1       0.950  11.089  18.615  0.00  0.00    +0.000 N 
ATOM     28  H   UNL     1       1.915  11.091  18.914  0.00  0.00    +0.000 HD
BRANCH  27  29
ATOM     29  C   UNL     1       0.193  12.311  18.786  0.00  0.00    +0.000 C 
BRANCH  29  30
ATOM     30  C   UNL     1       1.006  13.585  18.740  0.00  0.00    +0.000 A 
ATOM     31  C   UNL     1       2.382  13.632  18.407  0.00  0.00    +0.000 A 
ATOM     32  C   UNL     1       3.027  14.851  18.167  0.00  0.00    +0.000 A 
ATOM     33  C   UNL     1       2.264  15.994  18.248  0.00  0.00    +0.000 A 
ATOM     34  C   UNL     1       0.951  15.962  18.660  0.00  0.00    +0.000 A 
ATOM     35  C   UNL     1       0.309  14.786  18.951  0.00  0.00    +0.000 A 
ATOM     36  O   UNL     1       0.366  17.191  18.618  0.00  0.00    +0.000 OA
ATOM     37  C   UNL     1       1.345  17.880  17.819  0.00  0.00    +0.000 C 
ATOM     38  O   UNL     1       2.642  17.247  17.867  0.00  0.00    +0.000 OA
ENDBRANCH  29  30
ENDBRANCH  27  29
ENDBRANCH  24  25
ENDBRANCH  23  24
ENDBRANCH   4  23
TORSDOF 7
ENDMDL
MODEL 5
REMARK VINA RESULT:      -8.5      3.957      8.836
REMARK  Name = 
REMARK  10 active torsions:
REMARK  status: ('A' for Active; 'I' for Inactive)
REMARK    1  A    between atoms: C_1  and  C_2
REMARK    2  A    between atoms: C_4  and  C_5
REMARK    3  A    between atoms: C_6  and  C_7
REMARK    4  A    between atoms: C_7  and  N_8
REMARK    5  A    between atoms: N_11  and  C_12
REMARK    6  A    between atoms: C_12  and  C_13
REMARK    7  A    between atoms: C_13  and  C_14
REMARK    8  A    between atoms: N_16  and  C_17
REMARK    9  A    between atoms: C_17  and  C_18
REMARK   10  A    between atoms: C_35  and  C_36
REMARK                            x       y       z     vdW  Elec       q    Type
REMARK                         _______ _______ _______ _____ _____    ______ ____
ROOT
ATOM      1  N   UNL     1       2.876   6.161  17.691  0.00  0.00    +0.000 N 
ATOM      2  C   UNL     1       4.098   6.728  17.323  0.00  0.00    +0.000 A 
ATOM      3  O   UNL     1       4.311   7.936  17.440  0.00  0.00    +0.000 OA
ATOM      4  N   UNL     1       5.057   5.859  16.804  0.00  0.00    +0.000 N 
ATOM      5  C   UNL     1       4.981   4.476  16.884  0.00  0.00    +0.000 A 
ATOM      6  O   UNL     1       5.880   3.719  16.529  0.00  0.00    +0.000 OA
ATOM      7  C   UNL     1       3.733   3.909  17.406  0.00  0.00    +0.000 A 
ATOM      8  C   UNL     1       3.626   2.517  17.574  0.00  0.00    +0.000 A 
ATOM      9  C   UNL     1       2.456   1.964  18.083  0.00  0.00    +0.000 A 
ATOM     10  C   UNL     1       1.378   2.790  18.373  0.00  0.00    +0.000 A 
ATOM     11  C   UNL     1       1.475   4.170  18.164  0.00  0.00    +0.000 A 
ATOM     12  C   UNL     1       2.673   4.753  17.720  0.00  0.00    +0.000 A 
ENDROOT
BRANCH   1  13
ATOM     13  C   UNL     1       1.774   7.091  17.907  0.00  0.00    +0.000 C 
BRANCH  13  19
ATOM     14  C   UNL     1       0.254   9.912  22.825  0.00  0.00    +0.000 C 
ATOM     15  C   UNL     1       0.747   9.217  21.594  0.00  0.00    +0.000 A 
ATOM     16  C   UNL     1       0.894   9.879  20.384  0.00  0.00    +0.000 A 
ATOM     17  C   UNL     1       1.304   9.194  19.224  0.00  0.00    +0.000 A 
ATOM     18  C   UNL     1       1.426  10.012  17.957  0.00  0.00    +0.000 C 
ATOM     19  C   UNL     1       1.588   7.789  19.260  0.00  0.00    +0.000 A 
ATOM     20  C   UNL     1       1.513   7.143  20.520  0.00  0.00    +0.000 A 
ATOM     21  C   UNL     1       1.831   5.705  20.814  0.00  0.00    +0.000 C 
ATOM     22  C   UNL     1       1.059   7.863  21.648  0.00  0.00    +0.000 A 
ENDBRANCH  13  19
ENDBRANCH   1  13
BRANCH   4  23
ATOM     23  C   UNL     1       6.266   6.439  16.214  0.00  0.00    +0.000 C 
BRANCH  23  24
ATOM     24  C   UNL     1       7.558   6.034  16.932  0.00  0.00    +0.000 C 
BRANCH  24  25
ATOM     25  C   UNL     1       7.857   6.912  18.127  0.00  0.00    +0.000 C 
ATOM     26  O   UNL     1       7.809   6.507  19.283  0.00  0.00    +0.000 OA
ATOM     27  N   UNL     1       8.242   8.181  17.780  0.00  0.00    +0.000 N 
ATOM     28  H   UNL     1       8.265   8.463  16.809  0.00  0.00    +0.000 HD
BRANCH  27  29
ATOM     29  C   UNL     1       8.599   9.172  18.773  0.00  0.00    +0.000 C 
BRANCH  29  30
ATOM     30  C   UNL     1       8.971  10.531  18.224  0.00  0.00    +0.000 A 
ATOM     31  C   UNL     1       8.031  11.466  17.727  0.00  0.00    +0.000 A 
ATOM     32  C   UNL     1       8.407  12.783  17.436  0.00  0.00    +0.000 A 
ATOM     33  C   UNL     1       9.718  13.131  17.673  0.00  0.00    +0.000 A 
ATOM     34  C   UNL     1      10.654  12.204  18.067  0.00  0.00    +0.000 A 
ATOM     35  C   UNL     1      10.325  10.895  18.310  0.00  0.00    +0.000 A 
ATOM     36  O   UNL     1      11.874  12.766  18.296  0.00  0.00    +0.000 OA
ATOM     37  C   UNL     1      11.481  14.150  18.337  0.00  0.00    +0.000 C 
ATOM     38  O   UNL     1      10.237  14.391  17.643  0.00  0.00    +0.000 OA
ENDBRANCH  29  30
ENDBRANCH  27  29
ENDBRANCH  24  25
ENDBRANCH  23  24
ENDBRANCH   4  23
TORSDOF 7
ENDMDL
MODEL 6
REMARK VINA RESULT:      -8.4      2.861     10.784
REMARK  Name = 
REMARK  10 active torsions:
REMARK  status: ('A' for Active; 'I' for Inactive)
REMARK    1  A    between atoms: C_1  and  C_2
REMARK    2  A    between atoms: C_4  and  C_5
REMARK    3  A    between atoms: C_6  and  C_7
REMARK    4  A    between atoms: C_7  and  N_8
REMARK    5  A    between atoms: N_11  and  C_12
REMARK    6  A    between atoms: C_12  and  C_13
REMARK    7  A    between atoms: C_13  and  C_14
REMARK    8  A    between atoms: N_16  and  C_17
REMARK    9  A    between atoms: C_17  and  C_18
REMARK   10  A    between atoms: C_35  and  C_36
REMARK                            x       y       z     vdW  Elec       q    Type
REMARK                         _______ _______ _______ _____ _____    ______ ____
ROOT
ATOM      1  N   UNL     1      -1.546  12.363  19.982  0.00  0.00    +0.000 N 
ATOM      2  C   UNL     1      -0.283  11.766  19.986  0.00  0.00    +0.000 A 
ATOM      3  O   UNL     1       0.561  12.046  20.839  0.00  0.00    +0.000 OA
ATOM      4  N   UNL     1      -0.024  10.851  18.967  0.00  0.00    +0.000 N 
ATOM      5  C   UNL     1      -0.997  10.305  18.142  0.00  0.00    +0.000 A 
ATOM      6  O   UNL     1      -0.781   9.416  17.324  0.00  0.00    +0.000 OA
ATOM      7  C   UNL     1      -2.351  10.858  18.257  0.00  0.00    +0.000 A 
ATOM      8  C   UNL     1      -3.391  10.297  17.496  0.00  0.00    +0.000 A 
ATOM      9  C   UNL     1      -4.684  10.798  17.605  0.00  0.00    +0.000 A 
ATOM     10  C   UNL     1      -4.928  11.888  18.430  0.00  0.00    +0.000 A 
ATOM     11  C   UNL     1      -3.881  12.470  19.153  0.00  0.00    +0.000 A 
ATOM     12  C   UNL     1      -2.585  11.931  19.111  0.00  0.00    +0.000 A 
ENDROOT
BRANCH   1  13
ATOM     13  C   UNL     1      -1.701  13.547  20.820  0.00  0.00    +0.000 C 
BRANCH  13  19
ATOM     14  C   UNL     1      -6.485  13.662  24.219  0.00  0.00    +0.000 C 
ATOM     15  C   UNL     1      -5.213  13.695  23.428  0.00  0.00    +0.000 A 
ATOM     16  C   UNL     1      -4.957  14.684  22.490  0.00  0.00    +0.000 A 
ATOM     17  C   UNL     1      -3.781  14.664  21.715  0.00  0.00    +0.000 A 
ATOM     18  C   UNL     1      -3.604  15.788  20.718  0.00  0.00    +0.000 C 
ATOM     19  C   UNL     1      -2.809  13.623  21.877  0.00  0.00    +0.000 A 
ATOM     20  C   UNL     1      -3.047  12.665  22.896  0.00  0.00    +0.000 A 
ATOM     21  C   UNL     1      -2.143  11.533  23.294  0.00  0.00    +0.000 C 
ATOM     22  C   UNL     1      -4.258  12.703  23.621  0.00  0.00    +0.000 A 
ENDBRANCH  13  19
ENDBRANCH   1  13
BRANCH   4  23
ATOM     23  C   UNL     1       1.349  10.364  18.811  0.00  0.00    +0.000 C 
BRANCH  23  24
ATOM     24  C   UNL     1       1.689   9.176  19.719  0.00  0.00    +0.000 C 
BRANCH  24  25
ATOM     25  C   UNL     1       2.024   7.926  18.936  0.00  0.00    +0.000 C 
ATOM     26  O   UNL     1       1.891   7.841  17.720  0.00  0.00    +0.000 OA
ATOM     27  N   UNL     1       2.543   6.925  19.717  0.00  0.00    +0.000 N 
ATOM     28  H   UNL     1       2.631   7.048  20.716  0.00  0.00    +0.000 HD
BRANCH  27  29
ATOM     29  C   UNL     1       2.954   5.655  19.159  0.00  0.00    +0.000 C 
BRANCH  29  30
ATOM     30  C   UNL     1       4.322   5.647  18.513  0.00  0.00    +0.000 A 
ATOM     31  C   UNL     1       5.531   5.464  19.227  0.00  0.00    +0.000 A 
ATOM     32  C   UNL     1       6.741   5.249  18.556  0.00  0.00    +0.000 A 
ATOM     33  C   UNL     1       6.699   5.202  17.181  0.00  0.00    +0.000 A 
ATOM     34  C   UNL     1       5.545   5.470  16.481  0.00  0.00    +0.000 A 
ATOM     35  C   UNL     1       4.357   5.735  17.112  0.00  0.00    +0.000 A 
ATOM     36  O   UNL     1       5.708   5.317  15.137  0.00  0.00    +0.000 OA
ATOM     37  C   UNL     1       6.958   4.603  15.141  0.00  0.00    +0.000 C 
ATOM     38  O   UNL     1       7.712   4.816  16.355  0.00  0.00    +0.000 OA
ENDBRANCH  29  30
ENDBRANCH  27  29
ENDBRANCH  24  25
ENDBRANCH  23  24
ENDBRANCH   4  23
TORSDOF 7
ENDMDL
MODEL 7
REMARK VINA RESULT:      -8.4      4.079      8.057
REMARK  Name = 
REMARK  10 active torsions:
REMARK  status: ('A' for Active; 'I' for Inactive)
REMARK    1  A    between atoms: C_1  and  C_2
REMARK    2  A    between atoms: C_4  and  C_5
REMARK    3  A    between atoms: C_6  and  C_7
REMARK    4  A    between atoms: C_7  and  N_8
REMARK    5  A    between atoms: N_11  and  C_12
REMARK    6  A    between atoms: C_12  and  C_13
REMARK    7  A    between atoms: C_13  and  C_14
REMARK    8  A    between atoms: N_16  and  C_17
REMARK    9  A    between atoms: C_17  and  C_18
REMARK   10  A    between atoms: C_35  and  C_36
REMARK                            x       y       z     vdW  Elec       q    Type
REMARK                         _______ _______ _______ _____ _____    ______ ____
ROOT
ATOM      1  N   UNL     1      -0.173  11.419  19.845  0.00  0.00    +0.000 N 
ATOM      2  C   UNL     1      -0.236  12.276  20.946  0.00  0.00    +0.000 A 
ATOM      3  O   UNL     1       0.777  12.615  21.560  0.00  0.00    +0.000 OA
ATOM      4  N   UNL     1      -1.505  12.715  21.322  0.00  0.00    +0.000 N 
ATOM      5  C   UNL     1      -2.640  12.585  20.534  0.00  0.00    +0.000 A 
ATOM      6  O   UNL     1      -3.730  13.074  20.817  0.00  0.00    +0.000 OA
ATOM      7  C   UNL     1      -2.509  11.791  19.307  0.00  0.00    +0.000 A 
ATOM      8  C   UNL     1      -3.608  11.683  18.437  0.00  0.00    +0.000 A 
ATOM      9  C   UNL     1      -3.496  10.948  17.262  0.00  0.00    +0.000 A 
ATOM     10  C   UNL     1      -2.311  10.280  16.982  0.00  0.00    +0.000 A 
ATOM     11  C   UNL     1      -1.235  10.356  17.873  0.00  0.00    +0.000 A 
ATOM     12  C   UNL     1      -1.306  11.153  19.027  0.00  0.00    +0.000 A 
ENDROOT
BRANCH   1  13
ATOM     13  C   UNL     1       1.082  10.699  19.662  0.00  0.00    +0.000 C 
BRANCH  13  19
ATOM     14  C   UNL     1       2.253   5.041  20.696  0.00  0.00    +0.000 C 
ATOM     15  C   UNL     1       1.859   6.452  20.384  0.00  0.00    +0.000 A 
ATOM     16  C   UNL     1       2.214   7.068  19.193  0.00  0.00    +0.000 A 
ATOM     17  C   UNL     1       1.884   8.415  18.945  0.00  0.00    +0.000 A 
ATOM     18  C   UNL     1       2.324   8.988  17.616  0.00  0.00    +0.000 C 
ATOM     19  C   UNL     1       1.166   9.189  19.914  0.00  0.00    +0.000 A 
ATOM     20  C   UNL     1       0.740   8.522  21.091  0.00  0.00    +0.000 A 
ATOM     21  C   UNL     1      -0.080   9.103  22.207  0.00  0.00    +0.000 C 
ATOM     22  C   UNL     1       1.127   7.182  21.314  0.00  0.00    +0.000 A 
ENDBRANCH  13  19
ENDBRANCH   1  13
BRANCH   4  23
ATOM     23  C   UNL     1      -1.637  13.441  22.587  0.00  0.00    +0.000 C 
BRANCH  23  24
ATOM     24  C   UNL     1      -1.642  14.965  22.428  0.00  0.00    +0.000 C 
BRANCH  24  25
ATOM     25  C   UNL     1      -0.265  15.569  22.592  0.00  0.00    +0.000 C 
ATOM     26  O   UNL     1       0.208  15.872  23.682  0.00  0.00    +0.000 OA
ATOM     27  N   UNL     1       0.415  15.686  21.407  0.00  0.00    +0.000 N 
ATOM     28  H   UNL     1      -0.022  15.421  20.536  0.00  0.00    +0.000 HD
BRANCH  27  29
ATOM     29  C   UNL     1       1.761  16.216  21.347  0.00  0.00    +0.000 C 
BRANCH  29  30
ATOM     30  C   UNL     1       2.670  15.554  20.335  0.00  0.00    +0.000 A 
ATOM     31  C   UNL     1       2.262  15.185  19.029  0.00  0.00    +0.000 A 
ATOM     32  C   UNL     1       3.196  14.779  18.069  0.00  0.00    +0.000 A 
ATOM     33  C   UNL     1       4.521  14.773  18.441  0.00  0.00    +0.000 A 
ATOM     34  C   UNL     1       4.913  15.041  19.732  0.00  0.00    +0.000 A 
ATOM     35  C   UNL     1       4.014  15.392  20.707  0.00  0.00    +0.000 A 
ATOM     36  O   UNL     1       6.268  15.034  19.873  0.00  0.00    +0.000 OA
ATOM     37  C   UNL     1       6.639  15.083  18.484  0.00  0.00    +0.000 C 
ATOM     38  O   UNL     1       5.591  14.602  17.614  0.00  0.00    +0.000 OA
ENDBRANCH  29  30
ENDBRANCH  27  29
ENDBRANCH  24  25
ENDBRANCH  23  24
ENDBRANCH   4  23
TORSDOF 7
ENDMDL
MODEL 8
REMARK VINA RESULT:      -8.3      2.377     10.333
REMARK  Name = 
REMARK  10 active torsions:
REMARK  status: ('A' for Active; 'I' for Inactive)
REMARK    1  A    between atoms: C_1  and  C_2
REMARK    2  A    between atoms: C_4  and  C_5
REMARK    3  A    between atoms: C_6  and  C_7
REMARK    4  A    between atoms: C_7  and  N_8
REMARK    5  A    between atoms: N_11  and  C_12
REMARK    6  A    between atoms: C_12  and  C_13
REMARK    7  A    between atoms: C_13  and  C_14
REMARK    8  A    between atoms: N_16  and  C_17
REMARK    9  A    between atoms: C_17  and  C_18
REMARK   10  A    between atoms: C_35  and  C_36
REMARK                            x       y       z     vdW  Elec       q    Type
REMARK                         _______ _______ _______ _____ _____    ______ ____
ROOT
ATOM      1  N   UNL     1      -1.002  11.935  18.860  0.00  0.00    +0.000 N 
ATOM      2  C   UNL     1      -0.783  10.600  19.209  0.00  0.00    +0.000 A 
ATOM      3  O   UNL     1      -1.351   9.677  18.622  0.00  0.00    +0.000 OA
ATOM      4  N   UNL     1       0.099  10.369  20.263  0.00  0.00    +0.000 N 
ATOM      5  C   UNL     1       0.956  11.326  20.787  0.00  0.00    +0.000 A 
ATOM      6  O   UNL     1       1.810  11.089  21.637  0.00  0.00    +0.000 OA
ATOM      7  C   UNL     1       0.795  12.700  20.299  0.00  0.00    +0.000 A 
ATOM      8  C   UNL     1       1.680  13.698  20.744  0.00  0.00    +0.000 A 
ATOM      9  C   UNL     1       1.552  15.002  20.279  0.00  0.00    +0.000 A 
ATOM     10  C   UNL     1       0.512  15.321  19.414  0.00  0.00    +0.000 A 
ATOM     11  C   UNL     1      -0.391  14.333  19.008  0.00  0.00    +0.000 A 
ATOM     12  C   UNL     1      -0.233  12.997  19.410  0.00  0.00    +0.000 A 
ENDROOT
BRANCH   1  13
ATOM     13  C   UNL     1      -2.157  12.195  18.008  0.00  0.00    +0.000 C 
BRANCH  13  19
ATOM     14  C   UNL     1      -7.433  10.810  20.174  0.00  0.00    +0.000 C 
ATOM     15  C   UNL     1      -6.134  11.254  19.576  0.00  0.00    +0.000 A 
ATOM     16  C   UNL     1      -5.737  10.862  18.306  0.00  0.00    +0.000 A 
ATOM     17  C   UNL     1      -4.484  11.243  17.786  0.00  0.00    +0.000 A 
ATOM     18  C   UNL     1      -4.151  10.756  16.393  0.00  0.00    +0.000 C 
ATOM     19  C   UNL     1      -3.583  12.053  18.552  0.00  0.00    +0.000 A 
ATOM     20  C   UNL     1      -4.037  12.512  19.815  0.00  0.00    +0.000 A 
ATOM     21  C   UNL     1      -3.302  13.423  20.757  0.00  0.00    +0.000 C 
ATOM     22  C   UNL     1      -5.284  12.073  20.312  0.00  0.00    +0.000 A 
ENDBRANCH  13  19
ENDBRANCH   1  13
BRANCH   4  23
ATOM     23  C   UNL     1       0.196   9.007  20.795  0.00  0.00    +0.000 C 
BRANCH  23  24
ATOM     24  C   UNL     1       1.594   8.393  20.670  0.00  0.00    +0.000 C 
BRANCH  24  25
ATOM     25  C   UNL     1       1.826   7.749  19.321  0.00  0.00    +0.000 C 
ATOM     26  O   UNL     1       1.836   8.381  18.271  0.00  0.00    +0.000 OA
ATOM     27  N   UNL     1       2.079   6.404  19.404  0.00  0.00    +0.000 N 
ATOM     28  H   UNL     1       2.059   5.932  20.297  0.00  0.00    +0.000 HD
BRANCH  27  29
ATOM     29  C   UNL     1       2.354   5.604  18.229  0.00  0.00    +0.000 C 
BRANCH  29  30
ATOM     30  C   UNL     1       3.789   5.149  18.081  0.00  0.00    +0.000 A 
ATOM     31  C   UNL     1       4.344   4.667  16.870  0.00  0.00    +0.000 A 
ATOM     32  C   UNL     1       5.723   4.468  16.736  0.00  0.00    +0.000 A 
ATOM     33  C   UNL     1       6.513   4.779  17.820  0.00  0.00    +0.000 A 
ATOM     34  C   UNL     1       5.972   5.159  19.026  0.00  0.00    +0.000 A 
ATOM     35  C   UNL     1       4.620   5.312  19.202  0.00  0.00    +0.000 A 
ATOM     36  O   UNL     1       6.927   5.470  19.946  0.00  0.00    +0.000 OA
ATOM     37  C   UNL     1       8.062   5.574  19.067  0.00  0.00    +0.000 C 
ATOM     38  O   UNL     1       7.874   4.843  17.835  0.00  0.00    +0.000 OA
ENDBRANCH  29  30
ENDBRANCH  27  29
ENDBRANCH  24  25
ENDBRANCH  23  24
ENDBRANCH   4  23
TORSDOF 7
ENDMDL
MODEL 9
REMARK VINA RESULT:      -8.1      2.344     10.207
REMARK  Name = 
REMARK  10 active torsions:
REMARK  status: ('A' for Active; 'I' for Inactive)
REMARK    1  A    between atoms: C_1  and  C_2
REMARK    2  A    between atoms: C_4  and  C_5
REMARK    3  A    between atoms: C_6  and  C_7
REMARK    4  A    between atoms: C_7  and  N_8
REMARK    5  A    between atoms: N_11  and  C_12
REMARK    6  A    between atoms: C_12  and  C_13
REMARK    7  A    between atoms: C_13  and  C_14
REMARK    8  A    between atoms: N_16  and  C_17
REMARK    9  A    between atoms: C_17  and  C_18
REMARK   10  A    between atoms: C_35  and  C_36
REMARK                            x       y       z     vdW  Elec       q    Type
REMARK                         _______ _______ _______ _____ _____    ______ ____
ROOT
ATOM      1  N   UNL     1      -1.082  11.950  18.960  0.00  0.00    +0.000 N 
ATOM      2  C   UNL     1      -0.877  10.636  19.384  0.00  0.00    +0.000 A 
ATOM      3  O   UNL     1      -1.453   9.687  18.848  0.00  0.00    +0.000 OA
ATOM      4  N   UNL     1      -0.001  10.455  20.452  0.00  0.00    +0.000 N 
ATOM      5  C   UNL     1       0.864  11.433  20.925  0.00  0.00    +0.000 A 
ATOM      6  O   UNL     1       1.714  11.236  21.789  0.00  0.00    +0.000 OA
ATOM      7  C   UNL     1       0.718  12.778  20.360  0.00  0.00    +0.000 A 
ATOM      8  C   UNL     1       1.611  13.791  20.751  0.00  0.00    +0.000 A 
ATOM      9  C   UNL     1       1.497  15.068  20.213  0.00  0.00    +0.000 A 
ATOM     10  C   UNL     1       0.463  15.348  19.328  0.00  0.00    +0.000 A 
ATOM     11  C   UNL     1      -0.449  14.348  18.975  0.00  0.00    +0.000 A 
ATOM     12  C   UNL     1      -0.304  13.035  19.452  0.00  0.00    +0.000 A 
ENDROOT
BRANCH   1  13
ATOM     13  C   UNL     1      -2.233  12.174  18.090  0.00  0.00    +0.000 C 
BRANCH  13  19
ATOM     14  C   UNL     1      -7.518  10.912  20.310  0.00  0.00    +0.000 C 
ATOM     15  C   UNL     1      -6.216  11.321  19.692  0.00  0.00    +0.000 A 
ATOM     16  C   UNL     1      -5.809  10.848  18.453  0.00  0.00    +0.000 A 
ATOM     17  C   UNL     1      -4.555  11.199  17.917  0.00  0.00    +0.000 A 
ATOM     18  C   UNL     1      -4.210  10.623  16.562  0.00  0.00    +0.000 C 
ATOM     19  C   UNL     1      -3.662  12.062  18.634  0.00  0.00    +0.000 A 
ATOM     20  C   UNL     1      -4.126  12.602  19.860  0.00  0.00    +0.000 A 
ATOM     21  C   UNL     1      -3.401  13.575  20.746  0.00  0.00    +0.000 C 
ATOM     22  C   UNL     1      -5.374  12.191  20.378  0.00  0.00    +0.000 A 
ENDBRANCH  13  19
ENDBRANCH   1  13
BRANCH   4  23
ATOM     23  C   UNL     1       0.081   9.125  21.060  0.00  0.00    +0.000 C 
BRANCH  23  24
ATOM     24  C   UNL     1       1.499   8.543  21.084  0.00  0.00    +0.000 C 
BRANCH  24  25
ATOM     25  C   UNL     1       1.817   7.743  19.840  0.00  0.00    +0.000 C 
ATOM     26  O   UNL     1       1.810   8.226  18.713  0.00  0.00    +0.000 OA
ATOM     27  N   UNL     1       2.170   6.446  20.111  0.00  0.00    +0.000 N 
ATOM     28  H   UNL     1       2.161   6.099  21.060  0.00  0.00    +0.000 HD
BRANCH  27  29
ATOM     29  C   UNL     1       2.539   5.519  19.062  0.00  0.00    +0.000 C 
BRANCH  29  30
ATOM     30  C   UNL     1       3.973   5.616  18.591  0.00  0.00    +0.000 A 
ATOM     31  C   UNL     1       5.093   5.301  19.398  0.00  0.00    +0.000 A 
ATOM     32  C   UNL     1       6.376   5.200  18.847  0.00  0.00    +0.000 A 
ATOM     33  C   UNL     1       6.496   5.399  17.490  0.00  0.00    +0.000 A 
ATOM     34  C   UNL     1       5.428   5.794  16.718  0.00  0.00    +0.000 A 
ATOM     35  C   UNL     1       4.170   5.952  17.241  0.00  0.00    +0.000 A 
ATOM     36  O   UNL     1       5.750   5.882  15.397  0.00  0.00    +0.000 OA
ATOM     37  C   UNL     1       7.000   5.169  15.421  0.00  0.00    +0.000 C 
ATOM     38  O   UNL     1       7.604   5.158  16.733  0.00  0.00    +0.000 OA
ENDBRANCH  29  30
ENDBRANCH  27  29
ENDBRANCH  24  25
ENDBRANCH  23  24
ENDBRANCH   4  23
TORSDOF 7
ENDMDL
