MODEL 1
REMARK VINA RESULT:      -8.4      0.000      0.000
REMARK  Name = 
REMARK  7 active torsions:
REMARK  status: ('A' for Active; 'I' for Inactive)
REMARK    1  A    between atoms: C_1  and  C_2
REMARK    2  A    between atoms: C_2  and  O_3
REMARK    3  A    between atoms: O_3  and  C_4
REMARK    4  A    between atoms: C_7  and  C_8
REMARK    5  A    between atoms: C_9  and  C_10
REMARK    6  A    between atoms: C_10  and  C_12
REMARK    7  A    between atoms: C_13  and  O_14
REMARK                            x       y       z     vdW  Elec       q    Type
REMARK                         _______ _______ _______ _____ _____    ______ ____
ROOT
ATOM      1  C   UNL     1       7.347   6.748  17.315  0.00  0.00    +0.000 C 
ATOM      2  O   UNL     1       7.708   6.423  16.182  0.00  0.00    +0.000 OA
ENDROOT
BRANCH   1   3
ATOM      3  C   UNL     1       6.244   6.006  17.993  0.00  0.00    +0.000 A 
ATOM      4  C   UNL     1       5.087   5.837  17.315  0.00  0.00    +0.000 A 
ATOM      5  C   UNL     1       3.993   5.072  17.909  0.00  0.00    +0.000 A 
ATOM      6  C   UNL     1       2.909   4.568  17.183  0.00  0.00    +0.000 A 
ATOM      7  C   UNL     1       1.890   3.859  17.832  0.00  0.00    +0.000 A 
ATOM      8  C   UNL     1       1.930   3.677  19.215  0.00  0.00    +0.000 A 
ATOM      9  C   UNL     1       3.006   4.168  19.946  0.00  0.00    +0.000 A 
ATOM     10  C   UNL     1       4.033   4.830  19.276  0.00  0.00    +0.000 A 
ATOM     11  O   UNL     1       5.153   5.188  20.032  0.00  0.00    +0.000 OA
ATOM     12  C   UNL     1       6.345   5.452  19.371  0.00  0.00    +0.000 A 
ATOM     13  O   UNL     1       7.409   5.294  19.957  0.00  0.00    +0.000 OA
BRANCH   4  14
ATOM     14  O   UNL     1       4.822   6.350  16.059  0.00  0.00    +0.000 OA
ATOM     15  H   UNL     1       4.555   7.293  16.152  0.00  0.00    +0.000 HD
ENDBRANCH   4  14
ENDBRANCH   1   3
BRANCH   1  17
ATOM     16  C   UNL     1       7.981   9.122  17.608  0.00  0.00    +0.000 C 
ATOM     17  C   UNL     1       8.041   7.848  18.039  0.00  0.00    +0.000 C 
BRANCH  16  21
ATOM     18  C   UNL     1       9.920  12.389  19.605  0.00  0.00    +0.000 A 
ATOM     19  C   UNL     1       9.291  12.569  18.373  0.00  0.00    +0.000 A 
ATOM     20  C   UNL     1       8.663  11.498  17.729  0.00  0.00    +0.000 A 
ATOM     21  C   UNL     1       8.675  10.220  18.300  0.00  0.00    +0.000 A 
ATOM     22  C   UNL     1       9.321  10.046  19.534  0.00  0.00    +0.000 A 
ATOM     23  C   UNL     1       9.953  11.118  20.174  0.00  0.00    +0.000 A 
BRANCH  18  24
ATOM     24  O   UNL     1      10.467  13.515  20.151  0.00  0.00    +0.000 OA
BRANCH  24  26
ATOM     25  C   UNL     1       9.756  14.719  22.079  0.00  0.00    +0.000 C 
ATOM     26  C   UNL     1       9.546  14.514  20.590  0.00  0.00    +0.000 C 
ENDBRANCH  24  26
ENDBRANCH  18  24
ENDBRANCH  16  21
ENDBRANCH   1  17
TORSDOF 6
ENDMDL
MODEL 2
REMARK VINA RESULT:      -8.4      4.841      6.893
REMARK  Name = 
REMARK  7 active torsions:
REMARK  status: ('A' for Active; 'I' for Inactive)
REMARK    1  A    between atoms: C_1  and  C_2
REMARK    2  A    between atoms: C_2  and  O_3
REMARK    3  A    between atoms: O_3  and  C_4
REMARK    4  A    between atoms: C_7  and  C_8
REMARK    5  A    between atoms: C_9  and  C_10
REMARK    6  A    between atoms: C_10  and  C_12
REMARK    7  A    between atoms: C_13  and  O_14
REMARK                            x       y       z     vdW  Elec       q    Type
REMARK                         _______ _______ _______ _____ _____    ______ ____
ROOT
ATOM      1  C   UNL     1       5.499   4.961  18.397  0.00  0.00    +0.000 C 
ATOM      2  O   UNL     1       5.831   4.027  19.130  0.00  0.00    +0.000 OA
ENDROOT
BRANCH   1   3
ATOM      3  C   UNL     1       6.026   5.046  17.003  0.00  0.00    +0.000 A 
ATOM      4  C   UNL     1       5.667   4.076  16.133  0.00  0.00    +0.000 A 
ATOM      5  C   UNL     1       6.110   4.137  14.741  0.00  0.00    +0.000 A 
ATOM      6  C   UNL     1       5.541   3.387  13.708  0.00  0.00    +0.000 A 
ATOM      7  C   UNL     1       6.036   3.490  12.402  0.00  0.00    +0.000 A 
ATOM      8  C   UNL     1       7.125   4.319  12.125  0.00  0.00    +0.000 A 
ATOM      9  C   UNL     1       7.695   5.074  13.144  0.00  0.00    +0.000 A 
ATOM     10  C   UNL     1       7.158   4.993  14.427  0.00  0.00    +0.000 A 
ATOM     11  O   UNL     1       7.677   5.867  15.387  0.00  0.00    +0.000 OA
ATOM     12  C   UNL     1       6.926   6.130  16.524  0.00  0.00    +0.000 A 
ATOM     13  O   UNL     1       7.082   7.188  17.121  0.00  0.00    +0.000 OA
BRANCH   4  14
ATOM     14  O   UNL     1       4.895   2.974  16.449  0.00  0.00    +0.000 OA
ATOM     15  H   UNL     1       4.930   2.831  17.422  0.00  0.00    +0.000 HD
ENDBRANCH   4  14
ENDBRANCH   1   3
BRANCH   1  17
ATOM     16  C   UNL     1       3.593   6.504  18.060  0.00  0.00    +0.000 C 
ATOM     17  C   UNL     1       4.530   5.986  18.875  0.00  0.00    +0.000 C 
BRANCH  16  21
ATOM     18  C   UNL     1       0.866   9.506  19.464  0.00  0.00    +0.000 A 
ATOM     19  C   UNL     1       1.297   8.476  20.300  0.00  0.00    +0.000 A 
ATOM     20  C   UNL     1       2.184   7.501  19.833  0.00  0.00    +0.000 A 
ATOM     21  C   UNL     1       2.639   7.530  18.510  0.00  0.00    +0.000 A 
ATOM     22  C   UNL     1       2.191   8.563  17.672  0.00  0.00    +0.000 A 
ATOM     23  C   UNL     1       1.299   9.535  18.140  0.00  0.00    +0.000 A 
BRANCH  18  24
ATOM     24  O   UNL     1       0.029  10.417  20.043  0.00  0.00    +0.000 OA
BRANCH  24  26
ATOM     25  C   UNL     1      -1.666  11.827  19.144  0.00  0.00    +0.000 C 
ATOM     26  C   UNL     1      -0.172  11.634  19.324  0.00  0.00    +0.000 C 
ENDBRANCH  24  26
ENDBRANCH  18  24
ENDBRANCH  16  21
ENDBRANCH   1  17
TORSDOF 6
ENDMDL
MODEL 3
REMARK VINA RESULT:      -8.4      4.652      6.605
REMARK  Name = 
REMARK  7 active torsions:
REMARK  status: ('A' for Active; 'I' for Inactive)
REMARK    1  A    between atoms: C_1  and  C_2
REMARK    2  A    between atoms: C_2  and  O_3
REMARK    3  A    between atoms: O_3  and  C_4
REMARK    4  A    between atoms: C_7  and  C_8
REMARK    5  A    between atoms: C_9  and  C_10
REMARK    6  A    between atoms: C_10  and  C_12
REMARK    7  A    between atoms: C_13  and  O_14
REMARK                            x       y       z     vdW  Elec       q    Type
REMARK                         _______ _______ _______ _____ _____    ______ ____
ROOT
ATOM      1  C   UNL     1       5.540   4.921  18.425  0.00  0.00    +0.000 C 
ATOM      2  O   UNL     1       5.883   3.987  19.153  0.00  0.00    +0.000 OA
ENDROOT
BRANCH   1   3
ATOM      3  C   UNL     1       6.053   5.010  17.026  0.00  0.00    +0.000 A 
ATOM      4  C   UNL     1       5.665   4.057  16.150  0.00  0.00    +0.000 A 
ATOM      5  C   UNL     1       6.093   4.125  14.754  0.00  0.00    +0.000 A 
ATOM      6  C   UNL     1       5.497   3.397  13.719  0.00  0.00    +0.000 A 
ATOM      7  C   UNL     1       5.979   3.505  12.408  0.00  0.00    +0.000 A 
ATOM      8  C   UNL     1       7.082   4.315  12.128  0.00  0.00    +0.000 A 
ATOM      9  C   UNL     1       7.679   5.047  13.149  0.00  0.00    +0.000 A 
ATOM     10  C   UNL     1       7.154   4.962  14.437  0.00  0.00    +0.000 A 
ATOM     11  O   UNL     1       7.703   5.815  15.399  0.00  0.00    +0.000 OA
ATOM     12  C   UNL     1       6.970   6.081  16.548  0.00  0.00    +0.000 A 
ATOM     13  O   UNL     1       7.154   7.129  17.154  0.00  0.00    +0.000 OA
BRANCH   4  14
ATOM     14  O   UNL     1       4.874   2.967  16.462  0.00  0.00    +0.000 OA
ATOM     15  H   UNL     1       3.997   3.078  16.028  0.00  0.00    +0.000 HD
ENDBRANCH   4  14
ENDBRANCH   1   3
BRANCH   1  17
ATOM     16  C   UNL     1       3.657   6.492  18.097  0.00  0.00    +0.000 C 
ATOM     17  C   UNL     1       4.573   5.941  18.915  0.00  0.00    +0.000 C 
BRANCH  16  21
ATOM     18  C   UNL     1       0.825   9.463  19.352  0.00  0.00    +0.000 A 
ATOM     19  C   UNL     1       1.365   9.480  18.065  0.00  0.00    +0.000 A 
ATOM     20  C   UNL     1       2.288   8.508  17.666  0.00  0.00    +0.000 A 
ATOM     21  C   UNL     1       2.704   7.515  18.559  0.00  0.00    +0.000 A 
ATOM     22  C   UNL     1       2.166   7.513  19.856  0.00  0.00    +0.000 A 
ATOM     23  C   UNL     1       1.245   8.489  20.255  0.00  0.00    +0.000 A 
BRANCH  18  24
ATOM     24  O   UNL     1      -0.092  10.441  19.613  0.00  0.00    +0.000 OA
BRANCH  24  26
ATOM     25  C   UNL     1       1.114  12.221  20.637  0.00  0.00    +0.000 C 
ATOM     26  C   UNL     1       0.343  11.785  19.404  0.00  0.00    +0.000 C 
ENDBRANCH  24  26
ENDBRANCH  18  24
ENDBRANCH  16  21
ENDBRANCH   1  17
TORSDOF 6
ENDMDL
MODEL 4
REMARK VINA RESULT:      -8.3      0.570      1.043
REMARK  Name = 
REMARK  7 active torsions:
REMARK  status: ('A' for Active; 'I' for Inactive)
REMARK    1  A    between atoms: C_1  and  C_2
REMARK    2  A    between atoms: C_2  and  O_3
REMARK    3  A    between atoms: O_3  and  C_4
REMARK    4  A    between atoms: C_7  and  C_8
REMARK    5  A    between atoms: C_9  and  C_10
REMARK    6  A    between atoms: C_10  and  C_12
REMARK    7  A    between atoms: C_13  and  O_14
REMARK                            x       y       z     vdW  Elec       q    Type
REMARK                         _______ _______ _______ _____ _____    ______ ____
ROOT
ATOM      1  C   UNL     1       7.303   6.719  17.286  0.00  0.00    +0.000 C 
ATOM      2  O   UNL     1       7.582   6.409  16.125  0.00  0.00    +0.000 OA
ENDROOT
BRANCH   1   3
ATOM      3  C   UNL     1       6.178   6.039  17.994  0.00  0.00    +0.000 A 
ATOM      4  C   UNL     1       4.987   5.965  17.360  0.00  0.00    +0.000 A 
ATOM      5  C   UNL     1       3.866   5.264  17.983  0.00  0.00    +0.000 A 
ATOM      6  C   UNL     1       2.722   4.851  17.291  0.00  0.00    +0.000 A 
ATOM      7  C   UNL     1       1.683   4.200  17.967  0.00  0.00    +0.000 A 
ATOM      8  C   UNL     1       1.764   3.984  19.344  0.00  0.00    +0.000 A 
ATOM      9  C   UNL     1       2.900   4.385  20.041  0.00  0.00    +0.000 A 
ATOM     10  C   UNL     1       3.943   4.990  19.342  0.00  0.00    +0.000 A 
ATOM     11  O   UNL     1       5.114   5.254  20.058  0.00  0.00    +0.000 OA
ATOM     12  C   UNL     1       6.294   5.450  19.355  0.00  0.00    +0.000 A 
ATOM     13  O   UNL     1       7.367   5.207  19.894  0.00  0.00    +0.000 OA
BRANCH   4  14
ATOM     14  O   UNL     1       4.710   6.522  16.125  0.00  0.00    +0.000 OA
ATOM     15  H   UNL     1       4.856   5.840  15.430  0.00  0.00    +0.000 HD
ENDBRANCH   4  14
ENDBRANCH   1   3
BRANCH   1  17
ATOM     16  C   UNL     1       8.068   9.039  17.679  0.00  0.00    +0.000 C 
ATOM     17  C   UNL     1       8.115   7.735  18.010  0.00  0.00    +0.000 C 
BRANCH  16  21
ATOM     18  C   UNL     1      10.465  11.926  19.763  0.00  0.00    +0.000 A 
ATOM     19  C   UNL     1       9.727  10.966  20.457  0.00  0.00    +0.000 A 
ATOM     20  C   UNL     1       8.948  10.031  19.769  0.00  0.00    +0.000 A 
ATOM     21  C   UNL     1       8.877  10.055  18.372  0.00  0.00    +0.000 A 
ATOM     22  C   UNL     1       9.613  11.032  17.683  0.00  0.00    +0.000 A 
ATOM     23  C   UNL     1      10.389  11.970  18.373  0.00  0.00    +0.000 A 
BRANCH  18  24
ATOM     24  O   UNL     1      11.214  12.761  20.541  0.00  0.00    +0.000 OA
BRANCH  24  26
ATOM     25  C   UNL     1      10.017  14.540  21.577  0.00  0.00    +0.000 C 
ATOM     26  C   UNL     1      10.928  14.155  20.426  0.00  0.00    +0.000 C 
ENDBRANCH  24  26
ENDBRANCH  18  24
ENDBRANCH  16  21
ENDBRANCH   1  17
TORSDOF 6
ENDMDL
MODEL 5
REMARK VINA RESULT:      -8.3      0.915      1.377
REMARK  Name = 
REMARK  7 active torsions:
REMARK  status: ('A' for Active; 'I' for Inactive)
REMARK    1  A    between atoms: C_1  and  C_2
REMARK    2  A    between atoms: C_2  and  O_3
REMARK    3  A    between atoms: O_3  and  C_4
REMARK    4  A    between atoms: C_7  and  C_8
REMARK    5  A    between atoms: C_9  and  C_10
REMARK    6  A    between atoms: C_10  and  C_12
REMARK    7  A    between atoms: C_13  and  O_14
REMARK                            x       y       z     vdW  Elec       q    Type
REMARK                         _______ _______ _______ _____ _____    ______ ____
ROOT
ATOM      1  C   UNL     1       7.139   6.658  17.118  0.00  0.00    +0.000 C 
ATOM      2  O   UNL     1       7.777   6.048  16.258  0.00  0.00    +0.000 OA
ENDROOT
BRANCH   1   3
ATOM      3  C   UNL     1       6.067   5.964  17.891  0.00  0.00    +0.000 A 
ATOM      4  C   UNL     1       4.890   5.733  17.269  0.00  0.00    +0.000 A 
ATOM      5  C   UNL     1       3.824   5.009  17.960  0.00  0.00    +0.000 A 
ATOM      6  C   UNL     1       2.722   4.441  17.313  0.00  0.00    +0.000 A 
ATOM      7  C   UNL     1       1.733   3.778  18.052  0.00  0.00    +0.000 A 
ATOM      8  C   UNL     1       1.822   3.706  19.443  0.00  0.00    +0.000 A 
ATOM      9  C   UNL     1       2.917   4.263  20.095  0.00  0.00    +0.000 A 
ATOM     10  C   UNL     1       3.913   4.877  19.339  0.00  0.00    +0.000 A 
ATOM     11  O   UNL     1       5.055   5.303  20.025  0.00  0.00    +0.000 OA
ATOM     12  C   UNL     1       6.221   5.523  19.304  0.00  0.00    +0.000 A 
ATOM     13  O   UNL     1       7.306   5.420  19.863  0.00  0.00    +0.000 OA
BRANCH   4  14
ATOM     14  O   UNL     1       4.577   6.142  15.986  0.00  0.00    +0.000 OA
ATOM     15  H   UNL     1       3.819   5.606  15.659  0.00  0.00    +0.000 HD
ENDBRANCH   4  14
ENDBRANCH   1   3
BRANCH   1  17
ATOM     16  C   UNL     1       8.466   8.400  18.271  0.00  0.00    +0.000 C 
ATOM     17  C   UNL     1       7.465   8.077  17.432  0.00  0.00    +0.000 C 
BRANCH  16  21
ATOM     18  C   UNL     1       9.510  12.437  19.290  0.00  0.00    +0.000 A 
ATOM     19  C   UNL     1       9.717  11.390  20.189  0.00  0.00    +0.000 A 
ATOM     20  C   UNL     1       9.373  10.078  19.848  0.00  0.00    +0.000 A 
ATOM     21  C   UNL     1       8.792   9.795  18.607  0.00  0.00    +0.000 A 
ATOM     22  C   UNL     1       8.575  10.857  17.714  0.00  0.00    +0.000 A 
ATOM     23  C   UNL     1       8.916  12.170  18.058  0.00  0.00    +0.000 A 
BRANCH  18  24
ATOM     24  O   UNL     1       9.918  13.666  19.721  0.00  0.00    +0.000 OA
BRANCH  24  26
ATOM     25  C   UNL     1      12.162  13.969  18.983  0.00  0.00    +0.000 C 
ATOM     26  C   UNL     1      10.722  14.418  18.812  0.00  0.00    +0.000 C 
ENDBRANCH  24  26
ENDBRANCH  18  24
ENDBRANCH  16  21
ENDBRANCH   1  17
TORSDOF 6
ENDMDL
MODEL 6
REMARK VINA RESULT:      -7.9      1.090      2.127
REMARK  Name = 
REMARK  7 active torsions:
REMARK  status: ('A' for Active; 'I' for Inactive)
REMARK    1  A    between atoms: C_1  and  C_2
REMARK    2  A    between atoms: C_2  and  O_3
REMARK    3  A    between atoms: O_3  and  C_4
REMARK    4  A    between atoms: C_7  and  C_8
REMARK    5  A    between atoms: C_9  and  C_10
REMARK    6  A    between atoms: C_10  and  C_12
REMARK    7  A    between atoms: C_13  and  O_14
REMARK                            x       y       z     vdW  Elec       q    Type
REMARK                         _______ _______ _______ _____ _____    ______ ____
ROOT
ATOM      1  C   UNL     1       6.994   6.597  17.180  0.00  0.00    +0.000 C 
ATOM      2  O   UNL     1       7.554   6.181  16.164  0.00  0.00    +0.000 OA
ENDROOT
BRANCH   1   3
ATOM      3  C   UNL     1       5.717   5.976  17.641  0.00  0.00    +0.000 A 
ATOM      4  C   UNL     1       5.781   4.752  18.211  0.00  0.00    +0.000 A 
ATOM      5  C   UNL     1       4.569   4.120  18.729  0.00  0.00    +0.000 A 
ATOM      6  C   UNL     1       4.572   3.033  19.610  0.00  0.00    +0.000 A 
ATOM      7  C   UNL     1       3.365   2.473  20.047  0.00  0.00    +0.000 A 
ATOM      8  C   UNL     1       2.147   2.972  19.581  0.00  0.00    +0.000 A 
ATOM      9  C   UNL     1       2.133   4.055  18.708  0.00  0.00    +0.000 A 
ATOM     10  C   UNL     1       3.343   4.629  18.323  0.00  0.00    +0.000 A 
ATOM     11  O   UNL     1       3.273   5.794  17.554  0.00  0.00    +0.000 OA
ATOM     12  C   UNL     1       4.384   6.624  17.501  0.00  0.00    +0.000 A 
ATOM     13  O   UNL     1       4.238   7.818  17.271  0.00  0.00    +0.000 OA
BRANCH   4  14
ATOM     14  O   UNL     1       6.932   4.000  18.349  0.00  0.00    +0.000 OA
ATOM     15  H   UNL     1       7.512   4.163  17.569  0.00  0.00    +0.000 HD
ENDBRANCH   4  14
ENDBRANCH   1   3
BRANCH   1  17
ATOM     16  C   UNL     1       7.940   8.869  17.434  0.00  0.00    +0.000 C 
ATOM     17  C   UNL     1       7.609   7.687  17.986  0.00  0.00    +0.000 C 
BRANCH  16  21
ATOM     18  C   UNL     1       9.846  11.961  19.721  0.00  0.00    +0.000 A 
ATOM     19  C   UNL     1       9.770  10.653  20.200  0.00  0.00    +0.000 A 
ATOM     20  C   UNL     1       9.146   9.653  19.448  0.00  0.00    +0.000 A 
ATOM     21  C   UNL     1       8.565   9.952  18.211  0.00  0.00    +0.000 A 
ATOM     22  C   UNL     1       8.635  11.273  17.743  0.00  0.00    +0.000 A 
ATOM     23  C   UNL     1       9.256  12.274  18.498  0.00  0.00    +0.000 A 
BRANCH  18  24
ATOM     24  O   UNL     1      10.510  12.841  20.527  0.00  0.00    +0.000 OA
BRANCH  24  26
ATOM     25  C   UNL     1       9.235  13.939  22.213  0.00  0.00    +0.000 C 
ATOM     26  C   UNL     1       9.830  14.062  20.822  0.00  0.00    +0.000 C 
ENDBRANCH  24  26
ENDBRANCH  18  24
ENDBRANCH  16  21
ENDBRANCH   1  17
TORSDOF 6
ENDMDL
MODEL 7
REMARK VINA RESULT:      -7.9      1.396      2.141
REMARK  Name = 
REMARK  7 active torsions:
REMARK  status: ('A' for Active; 'I' for Inactive)
REMARK    1  A    between atoms: C_1  and  C_2
REMARK    2  A    between atoms: C_2  and  O_3
REMARK    3  A    between atoms: O_3  and  C_4
REMARK    4  A    between atoms: C_7  and  C_8
REMARK    5  A    between atoms: C_9  and  C_10
REMARK    6  A    between atoms: C_10  and  C_12
REMARK    7  A    between atoms: C_13  and  O_14
REMARK                            x       y       z     vdW  Elec       q    Type
REMARK                         _______ _______ _______ _____ _____    ______ ____
ROOT
ATOM      1  C   UNL     1       6.682   6.685  17.096  0.00  0.00    +0.000 C 
ATOM      2  O   UNL     1       7.412   6.063  16.321  0.00  0.00    +0.000 OA
ENDROOT
BRANCH   1   3
ATOM      3  C   UNL     1       5.449   6.045  17.642  0.00  0.00    +0.000 A 
ATOM      4  C   UNL     1       5.573   4.835  18.230  0.00  0.00    +0.000 A 
ATOM      5  C   UNL     1       4.408   4.187  18.830  0.00  0.00    +0.000 A 
ATOM      6  C   UNL     1       4.487   3.119  19.730  0.00  0.00    +0.000 A 
ATOM      7  C   UNL     1       3.320   2.541  20.246  0.00  0.00    +0.000 A 
ATOM      8  C   UNL     1       2.067   3.003  19.841  0.00  0.00    +0.000 A 
ATOM      9  C   UNL     1       1.977   4.068  18.951  0.00  0.00    +0.000 A 
ATOM     10  C   UNL     1       3.149   4.660  18.485  0.00  0.00    +0.000 A 
ATOM     11  O   UNL     1       3.009   5.808  17.700  0.00  0.00    +0.000 OA
ATOM     12  C   UNL     1       4.096   6.660  17.566  0.00  0.00    +0.000 A 
ATOM     13  O   UNL     1       3.909   7.846  17.323  0.00  0.00    +0.000 OA
BRANCH   4  14
ATOM     14  O   UNL     1       6.748   4.112  18.315  0.00  0.00    +0.000 OA
ATOM     15  H   UNL     1       7.374   4.593  18.905  0.00  0.00    +0.000 HD
ENDBRANCH   4  14
ENDBRANCH   1   3
BRANCH   1  17
ATOM     16  C   UNL     1       8.297   8.358  17.942  0.00  0.00    +0.000 C 
ATOM     17  C   UNL     1       7.049   8.059  17.536  0.00  0.00    +0.000 C 
BRANCH  16  21
ATOM     18  C   UNL     1       9.300  12.325  19.238  0.00  0.00    +0.000 A 
ATOM     19  C   UNL     1       8.687  12.103  18.004  0.00  0.00    +0.000 A 
ATOM     20  C   UNL     1       8.366  10.807  17.590  0.00  0.00    +0.000 A 
ATOM     21  C   UNL     1       8.674   9.706  18.397  0.00  0.00    +0.000 A 
ATOM     22  C   UNL     1       9.301   9.938  19.631  0.00  0.00    +0.000 A 
ATOM     23  C   UNL     1       9.626  11.236  20.042  0.00  0.00    +0.000 A 
BRANCH  18  24
ATOM     24  O   UNL     1       9.532  13.635  19.547  0.00  0.00    +0.000 OA
BRANCH  24  26
ATOM     25  C   UNL     1      11.778  14.123  18.924  0.00  0.00    +0.000 C 
ATOM     26  C   UNL     1      10.315  14.374  18.609  0.00  0.00    +0.000 C 
ENDBRANCH  24  26
ENDBRANCH  18  24
ENDBRANCH  16  21
ENDBRANCH   1  17
TORSDOF 6
ENDMDL
MODEL 8
REMARK VINA RESULT:      -7.8      1.203      2.379
REMARK  Name = 
REMARK  7 active torsions:
REMARK  status: ('A' for Active; 'I' for Inactive)
REMARK    1  A    between atoms: C_1  and  C_2
REMARK    2  A    between atoms: C_2  and  O_3
REMARK    3  A    between atoms: O_3  and  C_4
REMARK    4  A    between atoms: C_7  and  C_8
REMARK    5  A    between atoms: C_9  and  C_10
REMARK    6  A    between atoms: C_10  and  C_12
REMARK    7  A    between atoms: C_13  and  O_14
REMARK                            x       y       z     vdW  Elec       q    Type
REMARK                         _______ _______ _______ _____ _____    ______ ____
ROOT
ATOM      1  C   UNL     1       7.312   6.311  17.635  0.00  0.00    +0.000 C 
ATOM      2  O   UNL     1       8.210   5.467  17.614  0.00  0.00    +0.000 OA
ENDROOT
BRANCH   1   3
ATOM      3  C   UNL     1       5.882   5.885  17.692  0.00  0.00    +0.000 A 
ATOM      4  C   UNL     1       5.434   5.331  18.840  0.00  0.00    +0.000 A 
ATOM      5  C   UNL     1       4.030   4.945  18.970  0.00  0.00    +0.000 A 
ATOM      6  C   UNL     1       3.405   4.679  20.192  0.00  0.00    +0.000 A 
ATOM      7  C   UNL     1       2.058   4.296  20.229  0.00  0.00    +0.000 A 
ATOM      8  C   UNL     1       1.335   4.145  19.044  0.00  0.00    +0.000 A 
ATOM      9  C   UNL     1       1.946   4.413  17.823  0.00  0.00    +0.000 A 
ATOM     10  C   UNL     1       3.273   4.838  17.811  0.00  0.00    +0.000 A 
ATOM     11  O   UNL     1       3.802   5.222  16.575  0.00  0.00    +0.000 OA
ATOM     12  C   UNL     1       4.931   6.029  16.556  0.00  0.00    +0.000 A 
ATOM     13  O   UNL     1       5.138   6.758  15.594  0.00  0.00    +0.000 OA
BRANCH   4  14
ATOM     14  O   UNL     1       6.213   5.073  19.952  0.00  0.00    +0.000 OA
ATOM     15  H   UNL     1       5.621   4.899  20.720  0.00  0.00    +0.000 HD
ENDBRANCH   4  14
ENDBRANCH   1   3
BRANCH   1  17
ATOM     16  C   UNL     1       8.460   8.284  18.590  0.00  0.00    +0.000 C 
ATOM     17  C   UNL     1       7.643   7.762  17.656  0.00  0.00    +0.000 C 
BRANCH  16  21
ATOM     18  C   UNL     1       9.307  12.490  18.703  0.00  0.00    +0.000 A 
ATOM     19  C   UNL     1       8.563  11.933  17.663  0.00  0.00    +0.000 A 
ATOM     20  C   UNL     1       8.294  10.561  17.634  0.00  0.00    +0.000 A 
ATOM     21  C   UNL     1       8.786   9.719  18.638  0.00  0.00    +0.000 A 
ATOM     22  C   UNL     1       9.544  10.287  19.674  0.00  0.00    +0.000 A 
ATOM     23  C   UNL     1       9.816  11.659  19.699  0.00  0.00    +0.000 A 
BRANCH  18  24
ATOM     24  O   UNL     1       9.474  13.844  18.641  0.00  0.00    +0.000 OA
BRANCH  24  26
ATOM     25  C   UNL     1      11.482  14.158  17.399  0.00  0.00    +0.000 C 
ATOM     26  C   UNL     1      10.816  14.320  18.754  0.00  0.00    +0.000 C 
ENDBRANCH  24  26
ENDBRANCH  18  24
ENDBRANCH  16  21
ENDBRANCH   1  17
TORSDOF 6
ENDMDL
MODEL 9
REMARK VINA RESULT:      -7.8      1.261      2.543
REMARK  Name = 
REMARK  7 active torsions:
REMARK  status: ('A' for Active; 'I' for Inactive)
REMARK    1  A    between atoms: C_1  and  C_2
REMARK    2  A    between atoms: C_2  and  O_3
REMARK    3  A    between atoms: O_3  and  C_4
REMARK    4  A    between atoms: C_7  and  C_8
REMARK    5  A    between atoms: C_9  and  C_10
REMARK    6  A    between atoms: C_10  and  C_12
REMARK    7  A    between atoms: C_13  and  O_14
REMARK                            x       y       z     vdW  Elec       q    Type
REMARK                         _______ _______ _______ _____ _____    ______ ____
ROOT
ATOM      1  C   UNL     1       7.386   5.496  17.722  0.00  0.00    +0.000 C 
ATOM      2  O   UNL     1       8.173   4.646  17.298  0.00  0.00    +0.000 OA
ENDROOT
BRANCH   1   3
ATOM      3  C   UNL     1       5.920   5.215  17.749  0.00  0.00    +0.000 A 
ATOM      4  C   UNL     1       5.378   4.809  18.918  0.00  0.00    +0.000 A 
ATOM      5  C   UNL     1       3.939   4.571  19.016  0.00  0.00    +0.000 A 
ATOM      6  C   UNL     1       3.245   4.473  20.227  0.00  0.00    +0.000 A 
ATOM      7  C   UNL     1       1.867   4.226  20.235  0.00  0.00    +0.000 A 
ATOM      8  C   UNL     1       1.177   4.043  19.035  0.00  0.00    +0.000 A 
ATOM      9  C   UNL     1       1.856   4.144  17.825  0.00  0.00    +0.000 A 
ATOM     10  C   UNL     1       3.218   4.437  17.837  0.00  0.00    +0.000 A 
ATOM     11  O   UNL     1       3.827   4.660  16.599  0.00  0.00    +0.000 OA
ATOM     12  C   UNL     1       5.030   5.350  16.564  0.00  0.00    +0.000 A 
ATOM     13  O   UNL     1       5.343   5.970  15.555  0.00  0.00    +0.000 OA
BRANCH   4  14
ATOM     14  O   UNL     1       6.086   4.574  20.082  0.00  0.00    +0.000 OA
ATOM     15  H   UNL     1       5.509   4.083  20.710  0.00  0.00    +0.000 HD
ENDBRANCH   4  14
ENDBRANCH   1   3
BRANCH   1  17
ATOM     16  C   UNL     1       7.772   7.935  17.561  0.00  0.00    +0.000 C 
ATOM     17  C   UNL     1       7.893   6.790  18.257  0.00  0.00    +0.000 C 
BRANCH  16  21
ATOM     18  C   UNL     1       9.354  11.635  19.055  0.00  0.00    +0.000 A 
ATOM     19  C   UNL     1       9.544  10.438  19.746  0.00  0.00    +0.000 A 
ATOM     20  C   UNL     1       9.024   9.238  19.252  0.00  0.00    +0.000 A 
ATOM     21  C   UNL     1       8.282   9.220  18.065  0.00  0.00    +0.000 A 
ATOM     22  C   UNL     1       8.084  10.431  17.383  0.00  0.00    +0.000 A 
ATOM     23  C   UNL     1       8.602  11.632  17.882  0.00  0.00    +0.000 A 
BRANCH  18  24
ATOM     24  O   UNL     1       9.939  12.733  19.617  0.00  0.00    +0.000 OA
BRANCH  24  26
ATOM     25  C   UNL     1      11.848  13.723  18.594  0.00  0.00    +0.000 C 
ATOM     26  C   UNL     1      10.336  13.767  18.716  0.00  0.00    +0.000 C 
ENDBRANCH  24  26
ENDBRANCH  18  24
ENDBRANCH  16  21
ENDBRANCH   1  17
TORSDOF 6
ENDMDL
