MODEL 1
REMARK VINA RESULT:      -7.1      0.000      0.000
REMARK  Name = 
REMARK  10 active torsions:
REMARK  status: ('A' for Active; 'I' for Inactive)
REMARK    1  A    between atoms: C_1  and  C_2
REMARK    2  A    between atoms: C_2  and  N_3
REMARK    3  A    between atoms: C_4  and  C_5
REMARK    4  A    between atoms: C_4  and  C_7
REMARK    5  A    between atoms: C_7  and  C_9
REMARK    6  A    between atoms: C_9  and  S_10
REMARK    7  A    between atoms: S_10  and  C_11
REMARK    8  A    between atoms: C_13  and  C_14
REMARK    9  A    between atoms: C_17  and  C_18
REMARK   10  A    between atoms: C_20  and  C_21
REMARK                            x       y       z     vdW  Elec       q    Type
REMARK                         _______ _______ _______ _____ _____    ______ ____
ROOT
ATOM      1  C   UNL     1       3.447   5.535  18.005  0.00  0.00    +0.000 A 
ATOM      2  C   UNL     1       3.187   4.700  19.080  0.00  0.00    +0.000 A 
ATOM      3  C   UNL     1       2.453   5.192  20.165  0.00  0.00    +0.000 A 
ATOM      4  C   UNL     1       2.159   4.276  21.322  0.00  0.00    +0.000 C 
ATOM      5  C   UNL     1       2.000   6.531  20.134  0.00  0.00    +0.000 A 
ATOM      6  C   UNL     1       1.268   7.116  21.195  0.00  0.00    +0.000 A 
ATOM      7  C   UNL     1       0.824   8.438  21.137  0.00  0.00    +0.000 A 
ATOM      8  C   UNL     1       0.064   9.051  22.276  0.00  0.00    +0.000 C 
ATOM      9  C   UNL     1       1.103   9.184  19.995  0.00  0.00    +0.000 A 
ATOM     10  C   UNL     1       1.831   8.624  18.931  0.00  0.00    +0.000 A 
ATOM     11  C   UNL     1       2.092   9.460  17.704  0.00  0.00    +0.000 C 
ATOM     12  C   UNL     1       2.299   7.304  18.986  0.00  0.00    +0.000 A 
ATOM     13  N   UNL     1       3.011   6.808  17.951  0.00  0.00    +0.000 NA
ENDROOT
BRANCH   1  14
ATOM     14  S   UNL     1       4.385   4.895  16.624  0.00  0.00    +0.000 S 
BRANCH  14  15
ATOM     15  C   UNL     1       5.192   6.415  16.033  0.00  0.00    +0.000 C 
BRANCH  15  16
ATOM     16  C   UNL     1       6.702   6.269  16.160  0.00  0.00    +0.000 C 
ATOM     17  O   UNL     1       7.357   5.809  15.217  0.00  0.00    +0.000 OA
BRANCH  16  20
ATOM     18  C   UNL     1       7.375   4.317  18.353  0.00  0.00    +0.000 C 
ATOM     19  C   UNL     1       7.662   5.802  18.456  0.00  0.00    +0.000 C 
ATOM     20  C   UNL     1       7.371   6.669  17.449  0.00  0.00    +0.000 C 
BRANCH  19  21
ATOM     21  N   UNL     1       8.219   6.183  19.675  0.00  0.00    +0.000 N 
ATOM     22  H   UNL     1       8.882   6.956  19.630  0.00  0.00    +0.000 HD
ATOM     23  H   UNL     1       7.596   6.251  20.478  0.00  0.00    +0.000 HD
ENDBRANCH  19  21
BRANCH  20  24
ATOM     24  C   UNL     1       7.727   8.134  17.644  0.00  0.00    +0.000 C 
ATOM     25  N   UNL     1       8.023   9.350  17.805  0.00  0.00    +0.000 NA
ENDBRANCH  20  24
ENDBRANCH  16  20
ENDBRANCH  15  16
ENDBRANCH  14  15
ENDBRANCH   1  14
TORSDOF 6
ENDMDL
MODEL 2
REMARK VINA RESULT:      -6.8      3.161      6.560
REMARK  Name = 
REMARK  10 active torsions:
REMARK  status: ('A' for Active; 'I' for Inactive)
REMARK    1  A    between atoms: C_1  and  C_2
REMARK    2  A    between atoms: C_2  and  N_3
REMARK    3  A    between atoms: C_4  and  C_5
REMARK    4  A    between atoms: C_4  and  C_7
REMARK    5  A    between atoms: C_7  and  C_9
REMARK    6  A    between atoms: C_9  and  S_10
REMARK    7  A    between atoms: S_10  and  C_11
REMARK    8  A    between atoms: C_13  and  C_14
REMARK    9  A    between atoms: C_17  and  C_18
REMARK   10  A    between atoms: C_20  and  C_21
REMARK                            x       y       z     vdW  Elec       q    Type
REMARK                         _______ _______ _______ _____ _____    ______ ____
ROOT
ATOM      1  C   UNL     1       4.998   4.033  18.009  0.00  0.00    +0.000 A 
ATOM      2  C   UNL     1       4.553   4.756  16.914  0.00  0.00    +0.000 A 
ATOM      3  C   UNL     1       5.177   5.966  16.595  0.00  0.00    +0.000 A 
ATOM      4  C   UNL     1       4.701   6.739  15.395  0.00  0.00    +0.000 C 
ATOM      5  C   UNL     1       6.245   6.419  17.404  0.00  0.00    +0.000 A 
ATOM      6  C   UNL     1       6.921   7.640  17.166  0.00  0.00    +0.000 A 
ATOM      7  C   UNL     1       7.978   8.062  17.973  0.00  0.00    +0.000 A 
ATOM      8  C   UNL     1       8.675   9.366  17.720  0.00  0.00    +0.000 C 
ATOM      9  C   UNL     1       8.377   7.245  19.028  0.00  0.00    +0.000 A 
ATOM     10  C   UNL     1       7.718   6.030  19.284  0.00  0.00    +0.000 A 
ATOM     11  C   UNL     1       8.196   5.165  20.422  0.00  0.00    +0.000 C 
ATOM     12  C   UNL     1       6.642   5.605  18.492  0.00  0.00    +0.000 A 
ATOM     13  N   UNL     1       6.023   4.441  18.782  0.00  0.00    +0.000 NA
ENDROOT
BRANCH   1  14
ATOM     14  S   UNL     1       4.192   2.487  18.407  0.00  0.00    +0.000 S 
BRANCH  14  15
ATOM     15  C   UNL     1       2.605   2.703  17.544  0.00  0.00    +0.000 C 
BRANCH  15  16
ATOM     16  C   UNL     1       1.487   2.846  18.568  0.00  0.00    +0.000 C 
ATOM     17  O   UNL     1       0.404   2.280  18.379  0.00  0.00    +0.000 OA
BRANCH  16  20
ATOM     18  C   UNL     1       1.851   5.834  18.457  0.00  0.00    +0.000 C 
ATOM     19  C   UNL     1       1.903   5.046  19.750  0.00  0.00    +0.000 C 
ATOM     20  C   UNL     1       1.717   3.699  19.788  0.00  0.00    +0.000 C 
BRANCH  19  21
ATOM     21  N   UNL     1       2.181   5.825  20.871  0.00  0.00    +0.000 N 
ATOM     22  H   UNL     1       2.271   6.826  20.697  0.00  0.00    +0.000 HD
ATOM     23  H   UNL     1       1.664   5.624  21.725  0.00  0.00    +0.000 HD
ENDBRANCH  19  21
BRANCH  20  24
ATOM     24  C   UNL     1       1.759   3.011  21.143  0.00  0.00    +0.000 C 
ATOM     25  N   UNL     1       1.794   2.439  22.267  0.00  0.00    +0.000 NA
ENDBRANCH  20  24
ENDBRANCH  16  20
ENDBRANCH  15  16
ENDBRANCH  14  15
ENDBRANCH   1  14
TORSDOF 6
ENDMDL
MODEL 3
REMARK VINA RESULT:      -6.7      1.260      3.340
REMARK  Name = 
REMARK  10 active torsions:
REMARK  status: ('A' for Active; 'I' for Inactive)
REMARK    1  A    between atoms: C_1  and  C_2
REMARK    2  A    between atoms: C_2  and  N_3
REMARK    3  A    between atoms: C_4  and  C_5
REMARK    4  A    between atoms: C_4  and  C_7
REMARK    5  A    between atoms: C_7  and  C_9
REMARK    6  A    between atoms: C_9  and  S_10
REMARK    7  A    between atoms: S_10  and  C_11
REMARK    8  A    between atoms: C_13  and  C_14
REMARK    9  A    between atoms: C_17  and  C_18
REMARK   10  A    between atoms: C_20  and  C_21
REMARK                            x       y       z     vdW  Elec       q    Type
REMARK                         _______ _______ _______ _____ _____    ______ ____
ROOT
ATOM      1  C   UNL     1       3.674   6.449  17.704  0.00  0.00    +0.000 A 
ATOM      2  C   UNL     1       3.028   7.250  18.633  0.00  0.00    +0.000 A 
ATOM      3  C   UNL     1       2.374   6.650  19.714  0.00  0.00    +0.000 A 
ATOM      4  C   UNL     1       1.689   7.525  20.729  0.00  0.00    +0.000 C 
ATOM      5  C   UNL     1       2.387   5.240  19.826  0.00  0.00    +0.000 A 
ATOM      6  C   UNL     1       1.736   4.549  20.876  0.00  0.00    +0.000 A 
ATOM      7  C   UNL     1       1.771   3.158  20.969  0.00  0.00    +0.000 A 
ATOM      8  C   UNL     1       1.061   2.437  22.078  0.00  0.00    +0.000 C 
ATOM      9  C   UNL     1       2.479   2.444  20.007  0.00  0.00    +0.000 A 
ATOM     10  C   UNL     1       3.131   3.109  18.954  0.00  0.00    +0.000 A 
ATOM     11  C   UNL     1       3.905   2.299  17.946  0.00  0.00    +0.000 C 
ATOM     12  C   UNL     1       3.087   4.505  18.838  0.00  0.00    +0.000 A 
ATOM     13  N   UNL     1       3.709   5.105  17.802  0.00  0.00    +0.000 NA
ENDROOT
BRANCH   1  14
ATOM     14  S   UNL     1       4.507   7.226  16.326  0.00  0.00    +0.000 S 
BRANCH  14  15
ATOM     15  C   UNL     1       5.438   5.814  15.656  0.00  0.00    +0.000 C 
BRANCH  15  16
ATOM     16  C   UNL     1       6.920   5.999  15.952  0.00  0.00    +0.000 C 
ATOM     17  O   UNL     1       7.757   5.765  15.071  0.00  0.00    +0.000 OA
BRANCH  16  20
ATOM     18  C   UNL     1       7.088   4.140  18.316  0.00  0.00    +0.000 C 
ATOM     19  C   UNL     1       7.403   5.620  18.408  0.00  0.00    +0.000 C 
ATOM     20  C   UNL     1       7.342   6.444  17.328  0.00  0.00    +0.000 C 
BRANCH  19  21
ATOM     21  N   UNL     1       7.729   6.045  19.694  0.00  0.00    +0.000 N 
ATOM     22  H   UNL     1       7.320   6.934  19.979  0.00  0.00    +0.000 HD
ATOM     23  H   UNL     1       7.708   5.351  20.440  0.00  0.00    +0.000 HD
ENDBRANCH  19  21
BRANCH  20  24
ATOM     24  C   UNL     1       7.708   7.906  17.524  0.00  0.00    +0.000 C 
ATOM     25  N   UNL     1       8.012   9.120  17.687  0.00  0.00    +0.000 NA
ENDBRANCH  20  24
ENDBRANCH  16  20
ENDBRANCH  15  16
ENDBRANCH  14  15
ENDBRANCH   1  14
TORSDOF 6
ENDMDL
MODEL 4
REMARK VINA RESULT:      -6.7      3.306      4.910
REMARK  Name = 
REMARK  10 active torsions:
REMARK  status: ('A' for Active; 'I' for Inactive)
REMARK    1  A    between atoms: C_1  and  C_2
REMARK    2  A    between atoms: C_2  and  N_3
REMARK    3  A    between atoms: C_4  and  C_5
REMARK    4  A    between atoms: C_4  and  C_7
REMARK    5  A    between atoms: C_7  and  C_9
REMARK    6  A    between atoms: C_9  and  S_10
REMARK    7  A    between atoms: S_10  and  C_11
REMARK    8  A    between atoms: C_13  and  C_14
REMARK    9  A    between atoms: C_17  and  C_18
REMARK   10  A    between atoms: C_20  and  C_21
REMARK                            x       y       z     vdW  Elec       q    Type
REMARK                         _______ _______ _______ _____ _____    ______ ____
ROOT
ATOM      1  C   UNL     1       1.853   6.662  20.360  0.00  0.00    +0.000 A 
ATOM      2  C   UNL     1       2.315   7.055  19.114  0.00  0.00    +0.000 A 
ATOM      3  C   UNL     1       2.079   8.364  18.681  0.00  0.00    +0.000 A 
ATOM      4  C   UNL     1       2.597   8.791  17.334  0.00  0.00    +0.000 C 
ATOM      5  C   UNL     1       1.372   9.249  19.528  0.00  0.00    +0.000 A 
ATOM      6  C   UNL     1       1.073  10.583  19.163  0.00  0.00    +0.000 A 
ATOM      7  C   UNL     1       0.381  11.440  20.020  0.00  0.00    +0.000 A 
ATOM      8  C   UNL     1       0.056  12.847  19.613  0.00  0.00    +0.000 C 
ATOM      9  C   UNL     1      -0.007  10.961  21.268  0.00  0.00    +0.000 A 
ATOM     10  C   UNL     1       0.276   9.638  21.650  0.00  0.00    +0.000 A 
ATOM     11  C   UNL     1      -0.143   9.168  23.019  0.00  0.00    +0.000 C 
ATOM     12  C   UNL     1       0.953   8.762  20.790  0.00  0.00    +0.000 A 
ATOM     13  N   UNL     1       1.190   7.494  21.186  0.00  0.00    +0.000 NA
ENDROOT
BRANCH   1  14
ATOM     14  S   UNL     1       2.160   4.986  20.904  0.00  0.00    +0.000 S 
BRANCH  14  15
ATOM     15  C   UNL     1       1.412   4.047  19.537  0.00  0.00    +0.000 C 
BRANCH  15  16
ATOM     16  C   UNL     1       2.272   2.828  19.230  0.00  0.00    +0.000 C 
ATOM     17  O   UNL     1       1.735   1.742  18.985  0.00  0.00    +0.000 OA
BRANCH  16  20
ATOM     18  C   UNL     1       3.817   4.485  17.244  0.00  0.00    +0.000 C 
ATOM     19  C   UNL     1       4.484   3.694  18.352  0.00  0.00    +0.000 C 
ATOM     20  C   UNL     1       3.772   2.966  19.254  0.00  0.00    +0.000 C 
BRANCH  19  21
ATOM     21  N   UNL     1       5.875   3.768  18.334  0.00  0.00    +0.000 N 
ATOM     22  H   UNL     1       6.355   2.910  18.067  0.00  0.00    +0.000 HD
ATOM     23  H   UNL     1       6.297   4.597  17.918  0.00  0.00    +0.000 HD
ENDBRANCH  19  21
BRANCH  20  24
ATOM     24  C   UNL     1       4.539   2.235  20.344  0.00  0.00    +0.000 C 
ATOM     25  N   UNL     1       5.175   1.628  21.248  0.00  0.00    +0.000 NA
ENDBRANCH  20  24
ENDBRANCH  16  20
ENDBRANCH  15  16
ENDBRANCH  14  15
ENDBRANCH   1  14
TORSDOF 6
ENDMDL
MODEL 5
REMARK VINA RESULT:      -6.7      3.168      5.502
REMARK  Name = 
REMARK  10 active torsions:
REMARK  status: ('A' for Active; 'I' for Inactive)
REMARK    1  A    between atoms: C_1  and  C_2
REMARK    2  A    between atoms: C_2  and  N_3
REMARK    3  A    between atoms: C_4  and  C_5
REMARK    4  A    between atoms: C_4  and  C_7
REMARK    5  A    between atoms: C_7  and  C_9
REMARK    6  A    between atoms: C_9  and  S_10
REMARK    7  A    between atoms: S_10  and  C_11
REMARK    8  A    between atoms: C_13  and  C_14
REMARK    9  A    between atoms: C_17  and  C_18
REMARK   10  A    between atoms: C_20  and  C_21
REMARK                            x       y       z     vdW  Elec       q    Type
REMARK                         _______ _______ _______ _____ _____    ______ ____
ROOT
ATOM      1  C   UNL     1       1.056   9.251  18.981  0.00  0.00    +0.000 A 
ATOM      2  C   UNL     1       0.285  10.067  18.168  0.00  0.00    +0.000 A 
ATOM      3  C   UNL     1      -0.641  10.935  18.755  0.00  0.00    +0.000 A 
ATOM      4  C   UNL     1      -1.463  11.832  17.869  0.00  0.00    +0.000 C 
ATOM      5  C   UNL     1      -0.767  10.952  20.164  0.00  0.00    +0.000 A 
ATOM      6  C   UNL     1      -1.691  11.784  20.840  0.00  0.00    +0.000 A 
ATOM      7  C   UNL     1      -1.791  11.789  22.231  0.00  0.00    +0.000 A 
ATOM      8  C   UNL     1      -2.786  12.664  22.935  0.00  0.00    +0.000 C 
ATOM      9  C   UNL     1      -0.944  10.960  22.962  0.00  0.00    +0.000 A 
ATOM     10  C   UNL     1      -0.022  10.122  22.311  0.00  0.00    +0.000 A 
ATOM     11  C   UNL     1       0.891   9.257  23.141  0.00  0.00    +0.000 C 
ATOM     12  C   UNL     1       0.074  10.094  20.913  0.00  0.00    +0.000 A 
ATOM     13  N   UNL     1       0.960   9.263  20.325  0.00  0.00    +0.000 NA
ENDROOT
BRANCH   1  14
ATOM     14  S   UNL     1       2.237   8.144  18.220  0.00  0.00    +0.000 S 
BRANCH  14  15
ATOM     15  C   UNL     1       2.417   6.894  19.528  0.00  0.00    +0.000 C 
BRANCH  15  16
ATOM     16  C   UNL     1       2.413   5.504  18.905  0.00  0.00    +0.000 C 
ATOM     17  O   UNL     1       1.768   5.296  17.870  0.00  0.00    +0.000 OA
BRANCH  16  20
ATOM     18  C   UNL     1       5.024   4.427  17.858  0.00  0.00    +0.000 C 
ATOM     19  C   UNL     1       4.352   3.888  19.105  0.00  0.00    +0.000 C 
ATOM     20  C   UNL     1       3.183   4.398  19.578  0.00  0.00    +0.000 C 
BRANCH  19  21
ATOM     21  N   UNL     1       5.029   2.821  19.690  0.00  0.00    +0.000 N 
ATOM     22  H   UNL     1       4.455   2.009  19.917  0.00  0.00    +0.000 HD
ATOM     23  H   UNL     1       5.931   2.560  19.294  0.00  0.00    +0.000 HD
ENDBRANCH  19  21
BRANCH  20  24
ATOM     24  C   UNL     1       2.610   3.804  20.854  0.00  0.00    +0.000 C 
ATOM     25  N   UNL     1       2.134   3.310  21.913  0.00  0.00    +0.000 NA
ENDBRANCH  20  24
ENDBRANCH  16  20
ENDBRANCH  15  16
ENDBRANCH  14  15
ENDBRANCH   1  14
TORSDOF 6
ENDMDL
MODEL 6
REMARK VINA RESULT:      -6.6      4.014      6.099
REMARK  Name = 
REMARK  10 active torsions:
REMARK  status: ('A' for Active; 'I' for Inactive)
REMARK    1  A    between atoms: C_1  and  C_2
REMARK    2  A    between atoms: C_2  and  N_3
REMARK    3  A    between atoms: C_4  and  C_5
REMARK    4  A    between atoms: C_4  and  C_7
REMARK    5  A    between atoms: C_7  and  C_9
REMARK    6  A    between atoms: C_9  and  S_10
REMARK    7  A    between atoms: S_10  and  C_11
REMARK    8  A    between atoms: C_13  and  C_14
REMARK    9  A    between atoms: C_17  and  C_18
REMARK   10  A    between atoms: C_20  and  C_21
REMARK                            x       y       z     vdW  Elec       q    Type
REMARK                         _______ _______ _______ _____ _____    ______ ____
ROOT
ATOM      1  C   UNL     1       1.095   9.125  19.474  0.00  0.00    +0.000 A 
ATOM      2  C   UNL     1       0.556   9.985  18.531  0.00  0.00    +0.000 A 
ATOM      3  C   UNL     1      -0.347  10.970  18.943  0.00  0.00    +0.000 A 
ATOM      4  C   UNL     1      -0.917  11.913  17.917  0.00  0.00    +0.000 C 
ATOM      5  C   UNL     1      -0.687  11.058  20.313  0.00  0.00    +0.000 A 
ATOM      6  C   UNL     1      -1.605  12.011  20.815  0.00  0.00    +0.000 A 
ATOM      7  C   UNL     1      -1.918  12.083  22.172  0.00  0.00    +0.000 A 
ATOM      8  C   UNL     1      -2.907  13.087  22.689  0.00  0.00    +0.000 C 
ATOM      9  C   UNL     1      -1.293  11.198  23.047  0.00  0.00    +0.000 A 
ATOM     10  C   UNL     1      -0.380  10.241  22.570  0.00  0.00    +0.000 A 
ATOM     11  C   UNL     1       0.291   9.317  23.554  0.00  0.00    +0.000 C 
ATOM     12  C   UNL     1      -0.073  10.146  21.206  0.00  0.00    +0.000 A 
ATOM     13  N   UNL     1       0.795   9.202  20.785  0.00  0.00    +0.000 NA
ENDROOT
BRANCH   1  14
ATOM     14  S   UNL     1       2.249   7.869  18.936  0.00  0.00    +0.000 S 
BRANCH  14  15
ATOM     15  C   UNL     1       1.944   6.577  20.179  0.00  0.00    +0.000 C 
BRANCH  15  16
ATOM     16  C   UNL     1       2.825   5.371  19.883  0.00  0.00    +0.000 C 
ATOM     17  O   UNL     1       4.032   5.531  19.661  0.00  0.00    +0.000 OA
BRANCH  16  20
ATOM     18  C   UNL     1       2.009   3.995  17.330  0.00  0.00    +0.000 C 
ATOM     19  C   UNL     1       1.810   3.376  18.699  0.00  0.00    +0.000 C 
ATOM     20  C   UNL     1       2.202   4.000  19.843  0.00  0.00    +0.000 C 
BRANCH  19  21
ATOM     21  N   UNL     1       1.173   2.137  18.667  0.00  0.00    +0.000 N 
ATOM     22  H   UNL     1       0.966   1.728  19.578  0.00  0.00    +0.000 HD
ATOM     23  H   UNL     1       0.409   2.017  18.004  0.00  0.00    +0.000 HD
ENDBRANCH  19  21
BRANCH  20  24
ATOM     24  C   UNL     1       1.983   3.277  21.161  0.00  0.00    +0.000 C 
ATOM     25  N   UNL     1       1.801   2.676  22.256  0.00  0.00    +0.000 NA
ENDBRANCH  20  24
ENDBRANCH  16  20
ENDBRANCH  15  16
ENDBRANCH  14  15
ENDBRANCH   1  14
TORSDOF 6
ENDMDL
MODEL 7
REMARK VINA RESULT:      -6.6      3.171      5.462
REMARK  Name = 
REMARK  10 active torsions:
REMARK  status: ('A' for Active; 'I' for Inactive)
REMARK    1  A    between atoms: C_1  and  C_2
REMARK    2  A    between atoms: C_2  and  N_3
REMARK    3  A    between atoms: C_4  and  C_5
REMARK    4  A    between atoms: C_4  and  C_7
REMARK    5  A    between atoms: C_7  and  C_9
REMARK    6  A    between atoms: C_9  and  S_10
REMARK    7  A    between atoms: S_10  and  C_11
REMARK    8  A    between atoms: C_13  and  C_14
REMARK    9  A    between atoms: C_17  and  C_18
REMARK   10  A    between atoms: C_20  and  C_21
REMARK                            x       y       z     vdW  Elec       q    Type
REMARK                         _______ _______ _______ _____ _____    ______ ____
ROOT
ATOM      1  C   UNL     1       1.758   9.235  18.804  0.00  0.00    +0.000 A 
ATOM      2  C   UNL     1       2.045  10.471  18.247  0.00  0.00    +0.000 A 
ATOM      3  C   UNL     1       1.576  11.628  18.877  0.00  0.00    +0.000 A 
ATOM      4  C   UNL     1       1.904  12.970  18.278  0.00  0.00    +0.000 C 
ATOM      5  C   UNL     1       0.819  11.502  20.065  0.00  0.00    +0.000 A 
ATOM      6  C   UNL     1       0.289  12.618  20.758  0.00  0.00    +0.000 A 
ATOM      7  C   UNL     1      -0.448  12.468  21.933  0.00  0.00    +0.000 A 
ATOM      8  C   UNL     1      -1.018  13.658  22.648  0.00  0.00    +0.000 C 
ATOM      9  C   UNL     1      -0.648  11.185  22.434  0.00  0.00    +0.000 A 
ATOM     10  C   UNL     1      -0.135  10.063  21.761  0.00  0.00    +0.000 A 
ATOM     11  C   UNL     1      -0.356   8.693  22.349  0.00  0.00    +0.000 C 
ATOM     12  C   UNL     1       0.590  10.199  20.569  0.00  0.00    +0.000 A 
ATOM     13  N   UNL     1       1.051   9.096  19.942  0.00  0.00    +0.000 NA
ENDROOT
BRANCH   1  14
ATOM     14  S   UNL     1       2.363   7.762  17.990  0.00  0.00    +0.000 S 
BRANCH  14  15
ATOM     15  C   UNL     1       2.434   6.607  19.393  0.00  0.00    +0.000 C 
BRANCH  15  16
ATOM     16  C   UNL     1       2.374   5.176  18.875  0.00  0.00    +0.000 C 
ATOM     17  O   UNL     1       1.668   4.906  17.896  0.00  0.00    +0.000 OA
BRANCH  16  20
ATOM     18  C   UNL     1       5.039   4.163  17.902  0.00  0.00    +0.000 C 
ATOM     19  C   UNL     1       4.358   3.626  19.145  0.00  0.00    +0.000 C 
ATOM     20  C   UNL     1       3.163   4.107  19.584  0.00  0.00    +0.000 C 
BRANCH  19  21
ATOM     21  N   UNL     1       5.055   2.592  19.765  0.00  0.00    +0.000 N 
ATOM     22  H   UNL     1       6.008   2.446  19.432  0.00  0.00    +0.000 HD
ATOM     23  H   UNL     1       4.981   2.514  20.778  0.00  0.00    +0.000 HD
ENDBRANCH  19  21
BRANCH  20  24
ATOM     24  C   UNL     1       2.583   3.519  20.860  0.00  0.00    +0.000 C 
ATOM     25  N   UNL     1       2.101   3.031  21.919  0.00  0.00    +0.000 NA
ENDBRANCH  20  24
ENDBRANCH  16  20
ENDBRANCH  15  16
ENDBRANCH  14  15
ENDBRANCH   1  14
TORSDOF 6
ENDMDL
MODEL 8
REMARK VINA RESULT:      -6.5      3.685      7.293
REMARK  Name = 
REMARK  10 active torsions:
REMARK  status: ('A' for Active; 'I' for Inactive)
REMARK    1  A    between atoms: C_1  and  C_2
REMARK    2  A    between atoms: C_2  and  N_3
REMARK    3  A    between atoms: C_4  and  C_5
REMARK    4  A    between atoms: C_4  and  C_7
REMARK    5  A    between atoms: C_7  and  C_9
REMARK    6  A    between atoms: C_9  and  S_10
REMARK    7  A    between atoms: S_10  and  C_11
REMARK    8  A    between atoms: C_13  and  C_14
REMARK    9  A    between atoms: C_17  and  C_18
REMARK   10  A    between atoms: C_20  and  C_21
REMARK                            x       y       z     vdW  Elec       q    Type
REMARK                         _______ _______ _______ _____ _____    ______ ____
ROOT
ATOM      1  C   UNL     1       2.823   7.514  18.073  0.00  0.00    +0.000 A 
ATOM      2  C   UNL     1       3.827   7.245  17.157  0.00  0.00    +0.000 A 
ATOM      3  C   UNL     1       4.287   5.933  17.014  0.00  0.00    +0.000 A 
ATOM      4  C   UNL     1       5.366   5.643  16.005  0.00  0.00    +0.000 C 
ATOM      5  C   UNL     1       3.715   4.916  17.814  0.00  0.00    +0.000 A 
ATOM      6  C   UNL     1       4.133   3.565  17.749  0.00  0.00    +0.000 A 
ATOM      7  C   UNL     1       3.548   2.578  18.542  0.00  0.00    +0.000 A 
ATOM      8  C   UNL     1       4.012   1.152  18.476  0.00  0.00    +0.000 C 
ATOM      9  C   UNL     1       2.518   2.942  19.405  0.00  0.00    +0.000 A 
ATOM     10  C   UNL     1       2.090   4.278  19.489  0.00  0.00    +0.000 A 
ATOM     11  C   UNL     1       0.956   4.625  20.420  0.00  0.00    +0.000 C 
ATOM     12  C   UNL     1       2.683   5.282  18.711  0.00  0.00    +0.000 A 
ATOM     13  N   UNL     1       2.256   6.556  18.833  0.00  0.00    +0.000 NA
ENDROOT
BRANCH   1  14
ATOM     14  S   UNL     1       2.242   9.196  18.248  0.00  0.00    +0.000 S 
BRANCH  14  15
ATOM     15  C   UNL     1       1.143   9.025  19.687  0.00  0.00    +0.000 C 
BRANCH  15  16
ATOM     16  C   UNL     1       0.547  10.383  20.034  0.00  0.00    +0.000 C 
ATOM     17  O   UNL     1       0.732  10.867  21.157  0.00  0.00    +0.000 OA
BRANCH  16  20
ATOM     18  C   UNL     1       1.179  13.158  19.046  0.00  0.00    +0.000 C 
ATOM     19  C   UNL     1      -0.019  12.365  18.563  0.00  0.00    +0.000 C 
ATOM     20  C   UNL     1      -0.281  11.104  19.002  0.00  0.00    +0.000 C 
BRANCH  19  21
ATOM     21  N   UNL     1      -0.821  13.056  17.658  0.00  0.00    +0.000 N 
ATOM     22  H   UNL     1      -1.169  13.958  17.982  0.00  0.00    +0.000 HD
ATOM     23  H   UNL     1      -0.521  13.082  16.685  0.00  0.00    +0.000 HD
ENDBRANCH  19  21
BRANCH  20  24
ATOM     24  C   UNL     1      -1.491  10.386  18.429  0.00  0.00    +0.000 C 
ATOM     25  N   UNL     1      -2.497   9.790  17.954  0.00  0.00    +0.000 NA
ENDBRANCH  20  24
ENDBRANCH  16  20
ENDBRANCH  15  16
ENDBRANCH  14  15
ENDBRANCH   1  14
TORSDOF 6
ENDMDL
MODEL 9
REMARK VINA RESULT:      -6.5      3.678      6.986
REMARK  Name = 
REMARK  10 active torsions:
REMARK  status: ('A' for Active; 'I' for Inactive)
REMARK    1  A    between atoms: C_1  and  C_2
REMARK    2  A    between atoms: C_2  and  N_3
REMARK    3  A    between atoms: C_4  and  C_5
REMARK    4  A    between atoms: C_4  and  C_7
REMARK    5  A    between atoms: C_7  and  C_9
REMARK    6  A    between atoms: C_9  and  S_10
REMARK    7  A    between atoms: S_10  and  C_11
REMARK    8  A    between atoms: C_13  and  C_14
REMARK    9  A    between atoms: C_17  and  C_18
REMARK   10  A    between atoms: C_20  and  C_21
REMARK                            x       y       z     vdW  Elec       q    Type
REMARK                         _______ _______ _______ _____ _____    ______ ____
ROOT
ATOM      1  C   UNL     1       2.801   7.597  18.000  0.00  0.00    +0.000 A 
ATOM      2  C   UNL     1       3.828   7.302  17.117  0.00  0.00    +0.000 A 
ATOM      3  C   UNL     1       4.282   5.983  17.015  0.00  0.00    +0.000 A 
ATOM      4  C   UNL     1       5.386   5.665  16.042  0.00  0.00    +0.000 C 
ATOM      5  C   UNL     1       3.682   4.987  17.821  0.00  0.00    +0.000 A 
ATOM      6  C   UNL     1       4.092   3.633  17.796  0.00  0.00    +0.000 A 
ATOM      7  C   UNL     1       3.478   2.667  18.594  0.00  0.00    +0.000 A 
ATOM      8  C   UNL     1       3.933   1.237  18.570  0.00  0.00    +0.000 C 
ATOM      9  C   UNL     1       2.428   3.057  19.421  0.00  0.00    +0.000 A 
ATOM     10  C   UNL     1       2.007   4.397  19.464  0.00  0.00    +0.000 A 
ATOM     11  C   UNL     1       0.852   4.772  20.356  0.00  0.00    +0.000 C 
ATOM     12  C   UNL     1       2.628   5.380  18.682  0.00  0.00    +0.000 A 
ATOM     13  N   UNL     1       2.208   6.660  18.765  0.00  0.00    +0.000 NA
ENDROOT
BRANCH   1  14
ATOM     14  S   UNL     1       2.228   9.286  18.123  0.00  0.00    +0.000 S 
BRANCH  14  15
ATOM     15  C   UNL     1       1.200   9.185  19.620  0.00  0.00    +0.000 C 
BRANCH  15  16
ATOM     16  C   UNL     1       0.920  10.589  20.138  0.00  0.00    +0.000 C 
ATOM     17  O   UNL     1       0.973  10.819  21.352  0.00  0.00    +0.000 OA
BRANCH  16  20
ATOM     18  C   UNL     1      -1.799  10.828  18.862  0.00  0.00    +0.000 C 
ATOM     19  C   UNL     1      -0.659  11.780  18.557  0.00  0.00    +0.000 C 
ATOM     20  C   UNL     1       0.557  11.673  19.156  0.00  0.00    +0.000 C 
BRANCH  19  21
ATOM     21  N   UNL     1      -0.973  12.742  17.599  0.00  0.00    +0.000 N 
ATOM     22  H   UNL     1      -1.949  12.763  17.304  0.00  0.00    +0.000 HD
ATOM     23  H   UNL     1      -0.585  13.676  17.724  0.00  0.00    +0.000 HD
ENDBRANCH  19  21
BRANCH  20  24
ATOM     24  C   UNL     1       1.621  12.699  18.800  0.00  0.00    +0.000 C 
ATOM     25  N   UNL     1       2.503  13.551  18.505  0.00  0.00    +0.000 NA
ENDBRANCH  20  24
ENDBRANCH  16  20
ENDBRANCH  15  16
ENDBRANCH  14  15
ENDBRANCH   1  14
TORSDOF 6
ENDMDL
