MODEL 1
REMARK VINA RESULT:      -8.0      0.000      0.000
REMARK  Name = 
REMARK  7 active torsions:
REMARK  status: ('A' for Active; 'I' for Inactive)
REMARK    1  A    between atoms: C_1  and  O_2
REMARK    2  A    between atoms: O_2  and  C_3
REMARK    3  A    between atoms: C_8  and  S_9
REMARK    4  A    between atoms: S_9  and  C_10
REMARK    5  A    between atoms: C_10  and  C_11
REMARK    6  A    between atoms: C_15  and  O_16
REMARK    7  A    between atoms: O_16  and  C_17
REMARK                            x       y       z     vdW  Elec       q    Type
REMARK                         _______ _______ _______ _____ _____    ______ ____
ROOT
ATOM      1  C   UNL     1       6.629   7.761  17.293  0.00  0.00    +0.000 C 
ENDROOT
BRANCH   1   2
ATOM      2  C   UNL     1       5.852   6.471  17.182  0.00  0.00    +0.000 A 
ATOM      3  C   UNL     1       6.398   5.346  16.552  0.00  0.00    +0.000 A 
ATOM      4  C   UNL     1       5.634   4.186  16.387  0.00  0.00    +0.000 A 
ATOM      5  C   UNL     1       4.307   4.155  16.815  0.00  0.00    +0.000 A 
ATOM      6  C   UNL     1       3.750   5.275  17.430  0.00  0.00    +0.000 A 
ATOM      7  C   UNL     1       4.546   6.398  17.683  0.00  0.00    +0.000 A 
BRANCH   6   8
ATOM      8  O   UNL     1       2.415   5.205  17.766  0.00  0.00    +0.000 OA
BRANCH   8   9
ATOM      9  C   UNL     1       2.055   4.510  18.904  0.00  0.00    +0.000 A 
ATOM     10  C   UNL     1       2.395   4.900  20.205  0.00  0.00    +0.000 A 
ATOM     11  C   UNL     1       2.061   4.092  21.292  0.00  0.00    +0.000 A 
ATOM     12  C   UNL     1       1.327   2.926  21.090  0.00  0.00    +0.000 A 
ATOM     13  C   UNL     1       0.917   2.575  19.803  0.00  0.00    +0.000 A 
ATOM     14  C   UNL     1       1.282   3.365  18.711  0.00  0.00    +0.000 A 
ENDBRANCH   8   9
ENDBRANCH   6   8
ENDBRANCH   1   2
BRANCH   1  15
ATOM     15  S   UNL     1       8.110   7.574  18.312  0.00  0.00    +0.000 S 
BRANCH  15  21
ATOM     16  C   UNL     1       9.903  13.521  18.557  0.00  0.00    +0.000 A 
ATOM     17  C   UNL     1      10.521  13.103  19.741  0.00  0.00    +0.000 A 
ATOM     18  C   UNL     1      10.405  11.783  20.198  0.00  0.00    +0.000 A 
ATOM     19  C   UNL     1       9.651  10.912  19.415  0.00  0.00    +0.000 A 
ATOM     20  N   UNL     1       9.351   9.582  19.543  0.00  0.00    +0.000 N 
ATOM     21  C   UNL     1       8.594   9.221  18.470  0.00  0.00    +0.000 A 
ATOM     22  N   UNL     1       8.350  10.227  17.669  0.00  0.00    +0.000 NA
ATOM     23  C   UNL     1       9.010  11.295  18.240  0.00  0.00    +0.000 A 
ATOM     24  C   UNL     1       9.121  12.627  17.810  0.00  0.00    +0.000 A 
ATOM     25  H   UNL     1       9.649   8.960  20.279  0.00  0.00    +0.000 HD
BRANCH  16  27
ATOM     26  C   UNL     1       8.737  15.501  17.992  0.00  0.00    +0.000 C 
ATOM     27  O   UNL     1       9.971  14.795  18.054  0.00  0.00    +0.000 OA
ENDBRANCH  16  27
ENDBRANCH  15  21
ENDBRANCH   1  15
TORSDOF 6
ENDMDL
MODEL 2
REMARK VINA RESULT:      -7.9      1.114      1.179
REMARK  Name = 
REMARK  7 active torsions:
REMARK  status: ('A' for Active; 'I' for Inactive)
REMARK    1  A    between atoms: C_1  and  O_2
REMARK    2  A    between atoms: O_2  and  C_3
REMARK    3  A    between atoms: C_8  and  S_9
REMARK    4  A    between atoms: S_9  and  C_10
REMARK    5  A    between atoms: C_10  and  C_11
REMARK    6  A    between atoms: C_15  and  O_16
REMARK    7  A    between atoms: O_16  and  C_17
REMARK                            x       y       z     vdW  Elec       q    Type
REMARK                         _______ _______ _______ _____ _____    ______ ____
ROOT
ATOM      1  C   UNL     1       7.074   7.666  17.245  0.00  0.00    +0.000 C 
ENDROOT
BRANCH   1   2
ATOM      2  C   UNL     1       6.363   6.340  17.122  0.00  0.00    +0.000 A 
ATOM      3  C   UNL     1       5.858   5.896  15.893  0.00  0.00    +0.000 A 
ATOM      4  C   UNL     1       5.132   4.704  15.814  0.00  0.00    +0.000 A 
ATOM      5  C   UNL     1       4.871   3.966  16.968  0.00  0.00    +0.000 A 
ATOM      6  C   UNL     1       5.357   4.406  18.198  0.00  0.00    +0.000 A 
ATOM      7  C   UNL     1       6.167   5.546  18.259  0.00  0.00    +0.000 A 
BRANCH   6   8
ATOM      8  O   UNL     1       5.005   3.670  19.309  0.00  0.00    +0.000 OA
BRANCH   8   9
ATOM      9  C   UNL     1       3.693   3.710  19.740  0.00  0.00    +0.000 A 
ATOM     10  C   UNL     1       3.010   4.885  20.075  0.00  0.00    +0.000 A 
ATOM     11  C   UNL     1       1.712   4.825  20.582  0.00  0.00    +0.000 A 
ATOM     12  C   UNL     1       1.067   3.595  20.692  0.00  0.00    +0.000 A 
ATOM     13  C   UNL     1       1.715   2.429  20.284  0.00  0.00    +0.000 A 
ATOM     14  C   UNL     1       3.028   2.486  19.810  0.00  0.00    +0.000 A 
ENDBRANCH   8   9
ENDBRANCH   6   8
ENDBRANCH   1   2
BRANCH   1  15
ATOM     15  S   UNL     1       8.287   7.663  18.586  0.00  0.00    +0.000 S 
BRANCH  15  21
ATOM     16  C   UNL     1       9.873  13.671  18.430  0.00  0.00    +0.000 A 
ATOM     17  C   UNL     1      10.456  13.368  19.666  0.00  0.00    +0.000 A 
ATOM     18  C   UNL     1      10.365  12.084  20.221  0.00  0.00    +0.000 A 
ATOM     19  C   UNL     1       9.672  11.128  19.480  0.00  0.00    +0.000 A 
ATOM     20  N   UNL     1       9.410   9.803  19.701  0.00  0.00    +0.000 N 
ATOM     21  C   UNL     1       8.710   9.333  18.632  0.00  0.00    +0.000 A 
ATOM     22  N   UNL     1       8.465  10.265  17.746  0.00  0.00    +0.000 NA
ATOM     23  C   UNL     1       9.066  11.396  18.256  0.00  0.00    +0.000 A 
ATOM     24  C   UNL     1       9.151  12.694  17.727  0.00  0.00    +0.000 A 
ATOM     25  H   UNL     1       9.698   9.251  20.494  0.00  0.00    +0.000 HD
BRANCH  16  27
ATOM     26  C   UNL     1       9.648  16.013  18.682  0.00  0.00    +0.000 C 
ATOM     27  O   UNL     1       9.920  14.904  17.832  0.00  0.00    +0.000 OA
ENDBRANCH  16  27
ENDBRANCH  15  21
ENDBRANCH   1  15
TORSDOF 6
ENDMDL
MODEL 3
REMARK VINA RESULT:      -7.7      7.001      9.597
REMARK  Name = 
REMARK  7 active torsions:
REMARK  status: ('A' for Active; 'I' for Inactive)
REMARK    1  A    between atoms: C_1  and  O_2
REMARK    2  A    between atoms: O_2  and  C_3
REMARK    3  A    between atoms: C_8  and  S_9
REMARK    4  A    between atoms: S_9  and  C_10
REMARK    5  A    between atoms: C_10  and  C_11
REMARK    6  A    between atoms: C_15  and  O_16
REMARK    7  A    between atoms: O_16  and  C_17
REMARK                            x       y       z     vdW  Elec       q    Type
REMARK                         _______ _______ _______ _____ _____    ______ ____
ROOT
ATOM      1  C   UNL     1       0.368   9.822  20.555  0.00  0.00    +0.000 C 
ENDROOT
BRANCH   1   2
ATOM      2  C   UNL     1       1.307   8.967  19.739  0.00  0.00    +0.000 A 
ATOM      3  C   UNL     1       1.577   9.260  18.396  0.00  0.00    +0.000 A 
ATOM      4  C   UNL     1       2.386   8.411  17.634  0.00  0.00    +0.000 A 
ATOM      5  C   UNL     1       2.897   7.241  18.195  0.00  0.00    +0.000 A 
ATOM      6  C   UNL     1       2.622   6.932  19.526  0.00  0.00    +0.000 A 
ATOM      7  C   UNL     1       1.896   7.833  20.314  0.00  0.00    +0.000 A 
BRANCH   6   8
ATOM      8  O   UNL     1       3.097   5.729  20.000  0.00  0.00    +0.000 OA
BRANCH   8   9
ATOM      9  C   UNL     1       2.474   4.565  19.592  0.00  0.00    +0.000 A 
ATOM     10  C   UNL     1       3.026   3.655  18.683  0.00  0.00    +0.000 A 
ATOM     11  C   UNL     1       2.289   2.547  18.262  0.00  0.00    +0.000 A 
ATOM     12  C   UNL     1       1.027   2.308  18.800  0.00  0.00    +0.000 A 
ATOM     13  C   UNL     1       0.507   3.169  19.767  0.00  0.00    +0.000 A 
ATOM     14  C   UNL     1       1.228   4.298  20.162  0.00  0.00    +0.000 A 
ENDBRANCH   8   9
ENDBRANCH   6   8
ENDBRANCH   1   2
BRANCH   1  15
ATOM     15  S   UNL     1       0.378  11.547  20.011  0.00  0.00    +0.000 S 
BRANCH  15  21
ATOM     16  C   UNL     1      -5.385  11.844  17.704  0.00  0.00    +0.000 A 
ATOM     17  C   UNL     1      -4.753  11.394  16.538  0.00  0.00    +0.000 A 
ATOM     18  C   UNL     1      -3.369  11.177  16.496  0.00  0.00    +0.000 A 
ATOM     19  C   UNL     1      -2.659  11.427  17.669  0.00  0.00    +0.000 A 
ATOM     20  N   UNL     1      -1.333  11.307  17.986  0.00  0.00    +0.000 N 
ATOM     21  C   UNL     1      -1.184  11.660  19.293  0.00  0.00    +0.000 A 
ATOM     22  N   UNL     1      -2.312  12.035  19.841  0.00  0.00    +0.000 NA
ATOM     23  C   UNL     1      -3.250  11.889  18.841  0.00  0.00    +0.000 A 
ATOM     24  C   UNL     1      -4.635  12.120  18.857  0.00  0.00    +0.000 A 
ATOM     25  H   UNL     1      -0.590  10.991  17.383  0.00  0.00    +0.000 HD
BRANCH  16  27
ATOM     26  C   UNL     1      -7.328  11.688  19.046  0.00  0.00    +0.000 C 
ATOM     27  O   UNL     1      -6.732  12.080  17.814  0.00  0.00    +0.000 OA
ENDBRANCH  16  27
ENDBRANCH  15  21
ENDBRANCH   1  15
TORSDOF 6
ENDMDL
MODEL 4
REMARK VINA RESULT:      -7.6      5.814      7.785
REMARK  Name = 
REMARK  7 active torsions:
REMARK  status: ('A' for Active; 'I' for Inactive)
REMARK    1  A    between atoms: C_1  and  O_2
REMARK    2  A    between atoms: O_2  and  C_3
REMARK    3  A    between atoms: C_8  and  S_9
REMARK    4  A    between atoms: S_9  and  C_10
REMARK    5  A    between atoms: C_10  and  C_11
REMARK    6  A    between atoms: C_15  and  O_16
REMARK    7  A    between atoms: O_16  and  C_17
REMARK                            x       y       z     vdW  Elec       q    Type
REMARK                         _______ _______ _______ _____ _____    ______ ____
ROOT
ATOM      1  C   UNL     1       1.346   5.932  20.581  0.00  0.00    +0.000 C 
ENDROOT
BRANCH   1   2
ATOM      2  C   UNL     1       1.544   4.679  19.764  0.00  0.00    +0.000 A 
ATOM      3  C   UNL     1       1.080   3.436  20.213  0.00  0.00    +0.000 A 
ATOM      4  C   UNL     1       1.343   2.275  19.480  0.00  0.00    +0.000 A 
ATOM      5  C   UNL     1       2.107   2.339  18.315  0.00  0.00    +0.000 A 
ATOM      6  C   UNL     1       2.586   3.569  17.867  0.00  0.00    +0.000 A 
ATOM      7  C   UNL     1       2.237   4.742  18.548  0.00  0.00    +0.000 A 
BRANCH   6   8
ATOM      8  O   UNL     1       3.392   3.557  16.750  0.00  0.00    +0.000 OA
BRANCH   8   9
ATOM      9  C   UNL     1       4.708   3.957  16.880  0.00  0.00    +0.000 A 
ATOM     10  C   UNL     1       5.330   4.231  18.104  0.00  0.00    +0.000 A 
ATOM     11  C   UNL     1       6.640   4.711  18.136  0.00  0.00    +0.000 A 
ATOM     12  C   UNL     1       7.355   4.854  16.950  0.00  0.00    +0.000 A 
ATOM     13  C   UNL     1       6.766   4.506  15.734  0.00  0.00    +0.000 A 
ATOM     14  C   UNL     1       5.443   4.059  15.698  0.00  0.00    +0.000 A 
ENDBRANCH   8   9
ENDBRANCH   6   8
ENDBRANCH   1   2
BRANCH   1  15
ATOM     15  S   UNL     1       2.178   7.359  19.847  0.00  0.00    +0.000 S 
BRANCH  15  21
ATOM     16  C   UNL     1      -1.091  12.202  21.967  0.00  0.00    +0.000 A 
ATOM     17  C   UNL     1      -1.279  11.366  23.074  0.00  0.00    +0.000 A 
ATOM     18  C   UNL     1      -0.746  10.071  23.109  0.00  0.00    +0.000 A 
ATOM     19  C   UNL     1      -0.020   9.661  21.992  0.00  0.00    +0.000 A 
ATOM     20  N   UNL     1       0.642   8.499  21.699  0.00  0.00    +0.000 N 
ATOM     21  C   UNL     1       1.212   8.643  20.470  0.00  0.00    +0.000 A 
ATOM     22  N   UNL     1       0.939   9.802  19.926  0.00  0.00    +0.000 NA
ATOM     23  C   UNL     1       0.175  10.458  20.867  0.00  0.00    +0.000 A 
ATOM     24  C   UNL     1      -0.385  11.745  20.844  0.00  0.00    +0.000 A 
ATOM     25  H   UNL     1       0.726   7.683  22.285  0.00  0.00    +0.000 HD
BRANCH  16  27
ATOM     26  C   UNL     1      -0.654  14.523  22.118  0.00  0.00    +0.000 C 
ATOM     27  O   UNL     1      -1.586  13.477  21.865  0.00  0.00    +0.000 OA
ENDBRANCH  16  27
ENDBRANCH  15  21
ENDBRANCH   1  15
TORSDOF 6
ENDMDL
MODEL 5
REMARK VINA RESULT:      -7.6      5.684      8.366
REMARK  Name = 
REMARK  7 active torsions:
REMARK  status: ('A' for Active; 'I' for Inactive)
REMARK    1  A    between atoms: C_1  and  O_2
REMARK    2  A    between atoms: O_2  and  C_3
REMARK    3  A    between atoms: C_8  and  S_9
REMARK    4  A    between atoms: S_9  and  C_10
REMARK    5  A    between atoms: C_10  and  C_11
REMARK    6  A    between atoms: C_15  and  O_16
REMARK    7  A    between atoms: O_16  and  C_17
REMARK                            x       y       z     vdW  Elec       q    Type
REMARK                         _______ _______ _______ _____ _____    ______ ____
ROOT
ATOM      1  C   UNL     1       1.277   6.149  20.887  0.00  0.00    +0.000 C 
ENDROOT
BRANCH   1   2
ATOM      2  C   UNL     1       1.909   4.872  20.388  0.00  0.00    +0.000 A 
ATOM      3  C   UNL     1       1.238   3.645  20.477  0.00  0.00    +0.000 A 
ATOM      4  C   UNL     1       1.871   2.462  20.084  0.00  0.00    +0.000 A 
ATOM      5  C   UNL     1       3.191   2.489  19.636  0.00  0.00    +0.000 A 
ATOM      6  C   UNL     1       3.872   3.702  19.557  0.00  0.00    +0.000 A 
ATOM      7  C   UNL     1       3.205   4.896  19.857  0.00  0.00    +0.000 A 
BRANCH   6   8
ATOM      8  O   UNL     1       5.195   3.653  19.175  0.00  0.00    +0.000 OA
BRANCH   8   9
ATOM      9  C   UNL     1       5.549   4.184  17.950  0.00  0.00    +0.000 A 
ATOM     10  C   UNL     1       4.900   3.887  16.746  0.00  0.00    +0.000 A 
ATOM     11  C   UNL     1       5.379   4.404  15.542  0.00  0.00    +0.000 A 
ATOM     12  C   UNL     1       6.466   5.275  15.545  0.00  0.00    +0.000 A 
ATOM     13  C   UNL     1       7.066   5.638  16.751  0.00  0.00    +0.000 A 
ATOM     14  C   UNL     1       6.609   5.092  17.953  0.00  0.00    +0.000 A 
ENDBRANCH   8   9
ENDBRANCH   6   8
ENDBRANCH   1   2
BRANCH   1  15
ATOM     15  S   UNL     1       1.978   7.610  20.084  0.00  0.00    +0.000 S 
BRANCH  15  21
ATOM     16  C   UNL     1      -1.816  11.830  22.620  0.00  0.00    +0.000 A 
ATOM     17  C   UNL     1      -1.874  12.309  21.306  0.00  0.00    +0.000 A 
ATOM     18  C   UNL     1      -1.140  11.706  20.276  0.00  0.00    +0.000 A 
ATOM     19  C   UNL     1      -0.357  10.607  20.624  0.00  0.00    +0.000 A 
ATOM     20  N   UNL     1       0.453   9.783  19.890  0.00  0.00    +0.000 N 
ATOM     21  C   UNL     1       0.963   8.842  20.733  0.00  0.00    +0.000 A 
ATOM     22  N   UNL     1       0.572   9.015  21.970  0.00  0.00    +0.000 NA
ATOM     23  C   UNL     1      -0.262  10.112  21.922  0.00  0.00    +0.000 A 
ATOM     24  C   UNL     1      -0.990  10.743  22.943  0.00  0.00    +0.000 A 
ATOM     25  H   UNL     1       0.632   9.832  18.899  0.00  0.00    +0.000 HD
BRANCH  16  27
ATOM     26  C   UNL     1      -2.686  13.784  23.631  0.00  0.00    +0.000 C 
ATOM     27  O   UNL     1      -2.504  12.373  23.675  0.00  0.00    +0.000 OA
ENDBRANCH  16  27
ENDBRANCH  15  21
ENDBRANCH   1  15
TORSDOF 6
ENDMDL
MODEL 6
REMARK VINA RESULT:      -7.5      5.254      7.517
REMARK  Name = 
REMARK  7 active torsions:
REMARK  status: ('A' for Active; 'I' for Inactive)
REMARK    1  A    between atoms: C_1  and  O_2
REMARK    2  A    between atoms: O_2  and  C_3
REMARK    3  A    between atoms: C_8  and  S_9
REMARK    4  A    between atoms: S_9  and  C_10
REMARK    5  A    between atoms: C_10  and  C_11
REMARK    6  A    between atoms: C_15  and  O_16
REMARK    7  A    between atoms: O_16  and  C_17
REMARK                            x       y       z     vdW  Elec       q    Type
REMARK                         _______ _______ _______ _____ _____    ______ ____
ROOT
ATOM      1  C   UNL     1       3.767   3.934  18.185  0.00  0.00    +0.000 C 
ENDROOT
BRANCH   1   2
ATOM      2  C   UNL     1       5.141   4.548  18.063  0.00  0.00    +0.000 A 
ATOM      3  C   UNL     1       5.830   5.019  19.187  0.00  0.00    +0.000 A 
ATOM      4  C   UNL     1       7.066   5.658  19.045  0.00  0.00    +0.000 A 
ATOM      5  C   UNL     1       7.604   5.867  17.775  0.00  0.00    +0.000 A 
ATOM      6  C   UNL     1       6.919   5.414  16.649  0.00  0.00    +0.000 A 
ATOM      7  C   UNL     1       5.732   4.688  16.800  0.00  0.00    +0.000 A 
BRANCH   6   8
ATOM      8  O   UNL     1       7.469   5.714  15.421  0.00  0.00    +0.000 OA
BRANCH   8   9
ATOM      9  C   UNL     1       7.033   5.013  14.313  0.00  0.00    +0.000 A 
ATOM     10  C   UNL     1       5.882   4.216  14.289  0.00  0.00    +0.000 A 
ATOM     11  C   UNL     1       5.563   3.475  13.151  0.00  0.00    +0.000 A 
ATOM     12  C   UNL     1       6.354   3.582  12.009  0.00  0.00    +0.000 A 
ATOM     13  C   UNL     1       7.456   4.438  12.003  0.00  0.00    +0.000 A 
ATOM     14  C   UNL     1       7.797   5.152  13.154  0.00  0.00    +0.000 A 
ENDBRANCH   8   9
ENDBRANCH   6   8
ENDBRANCH   1   2
BRANCH   1  15
ATOM     15  S   UNL     1       3.076   4.145  19.842  0.00  0.00    +0.000 S 
BRANCH  15  21
ATOM     16  C   UNL     1       1.176  10.033  19.250  0.00  0.00    +0.000 A 
ATOM     17  C   UNL     1       0.837   9.875  20.599  0.00  0.00    +0.000 A 
ATOM     18  C   UNL     1       1.039   8.658  21.264  0.00  0.00    +0.000 A 
ATOM     19  C   UNL     1       1.596   7.621  20.519  0.00  0.00    +0.000 A 
ATOM     20  N   UNL     1       1.943   6.336  20.842  0.00  0.00    +0.000 N 
ATOM     21  C   UNL     1       2.478   5.757  19.732  0.00  0.00    +0.000 A 
ATOM     22  N   UNL     1       2.474   6.560  18.698  0.00  0.00    +0.000 NA
ATOM     23  C   UNL     1       1.932   7.736  19.173  0.00  0.00    +0.000 A 
ATOM     24  C   UNL     1       1.702   8.957  18.519  0.00  0.00    +0.000 A 
ATOM     25  H   UNL     1       1.850   5.890  21.741  0.00  0.00    +0.000 HD
BRANCH  16  27
ATOM     26  C   UNL     1      -0.197  11.910  18.811  0.00  0.00    +0.000 C 
ATOM     27  O   UNL     1       1.002  11.192  18.537  0.00  0.00    +0.000 OA
ENDBRANCH  16  27
ENDBRANCH  15  21
ENDBRANCH   1  15
TORSDOF 6
ENDMDL
MODEL 7
REMARK VINA RESULT:      -7.5      8.020     10.202
REMARK  Name = 
REMARK  7 active torsions:
REMARK  status: ('A' for Active; 'I' for Inactive)
REMARK    1  A    between atoms: C_1  and  O_2
REMARK    2  A    between atoms: O_2  and  C_3
REMARK    3  A    between atoms: C_8  and  S_9
REMARK    4  A    between atoms: S_9  and  C_10
REMARK    5  A    between atoms: C_10  and  C_11
REMARK    6  A    between atoms: C_15  and  O_16
REMARK    7  A    between atoms: O_16  and  C_17
REMARK                            x       y       z     vdW  Elec       q    Type
REMARK                         _______ _______ _______ _____ _____    ______ ____
ROOT
ATOM      1  C   UNL     1      -0.055  10.200  20.874  0.00  0.00    +0.000 C 
ENDROOT
BRANCH   1   2
ATOM      2  C   UNL     1       0.848   9.453  19.921  0.00  0.00    +0.000 A 
ATOM      3  C   UNL     1       0.965   9.835  18.579  0.00  0.00    +0.000 A 
ATOM      4  C   UNL     1       1.743   9.083  17.693  0.00  0.00    +0.000 A 
ATOM      5  C   UNL     1       2.376   7.921  18.131  0.00  0.00    +0.000 A 
ATOM      6  C   UNL     1       2.254   7.523  19.462  0.00  0.00    +0.000 A 
ATOM      7  C   UNL     1       1.558   8.331  20.368  0.00  0.00    +0.000 A 
BRANCH   6   8
ATOM      8  O   UNL     1       2.845   6.329  19.815  0.00  0.00    +0.000 OA
BRANCH   8   9
ATOM      9  C   UNL     1       2.145   5.158  19.605  0.00  0.00    +0.000 A 
ATOM     10  C   UNL     1       1.417   4.488  20.596  0.00  0.00    +0.000 A 
ATOM     11  C   UNL     1       0.808   3.264  20.317  0.00  0.00    +0.000 A 
ATOM     12  C   UNL     1       0.867   2.739  19.028  0.00  0.00    +0.000 A 
ATOM     13  C   UNL     1       1.523   3.442  18.018  0.00  0.00    +0.000 A 
ATOM     14  C   UNL     1       2.163   4.650  18.306  0.00  0.00    +0.000 A 
ENDBRANCH   8   9
ENDBRANCH   6   8
ENDBRANCH   1   2
BRANCH   1  15
ATOM     15  S   UNL     1      -0.392  11.883  20.307  0.00  0.00    +0.000 S 
BRANCH  15  21
ATOM     16  C   UNL     1      -5.794  13.280  23.046  0.00  0.00    +0.000 A 
ATOM     17  C   UNL     1      -5.117  12.862  24.197  0.00  0.00    +0.000 A 
ATOM     18  C   UNL     1      -3.798  12.392  24.139  0.00  0.00    +0.000 A 
ATOM     19  C   UNL     1      -3.197  12.366  22.881  0.00  0.00    +0.000 A 
ATOM     20  N   UNL     1      -1.946  11.996  22.465  0.00  0.00    +0.000 N 
ATOM     21  C   UNL     1      -1.879  12.197  21.120  0.00  0.00    +0.000 A 
ATOM     22  N   UNL     1      -3.006  12.639  20.623  0.00  0.00    +0.000 NA
ATOM     23  C   UNL     1      -3.844  12.758  21.713  0.00  0.00    +0.000 A 
ATOM     24  C   UNL     1      -5.172  13.207  21.790  0.00  0.00    +0.000 A 
ATOM     25  H   UNL     1      -1.190  11.657  23.040  0.00  0.00    +0.000 HD
BRANCH  16  27
ATOM     26  C   UNL     1      -7.595  14.105  21.751  0.00  0.00    +0.000 C 
ATOM     27  O   UNL     1      -7.084  13.747  23.031  0.00  0.00    +0.000 OA
ENDBRANCH  16  27
ENDBRANCH  15  21
ENDBRANCH   1  15
TORSDOF 6
ENDMDL
MODEL 8
REMARK VINA RESULT:      -7.5      4.765      7.076
REMARK  Name = 
REMARK  7 active torsions:
REMARK  status: ('A' for Active; 'I' for Inactive)
REMARK    1  A    between atoms: C_1  and  O_2
REMARK    2  A    between atoms: O_2  and  C_3
REMARK    3  A    between atoms: C_8  and  S_9
REMARK    4  A    between atoms: S_9  and  C_10
REMARK    5  A    between atoms: C_10  and  C_11
REMARK    6  A    between atoms: C_15  and  O_16
REMARK    7  A    between atoms: O_16  and  C_17
REMARK                            x       y       z     vdW  Elec       q    Type
REMARK                         _______ _______ _______ _____ _____    ______ ____
ROOT
ATOM      1  C   UNL     1       1.158   4.214  19.864  0.00  0.00    +0.000 C 
ENDROOT
BRANCH   1   2
ATOM      2  C   UNL     1       2.097   3.446  18.966  0.00  0.00    +0.000 A 
ATOM      3  C   UNL     1       2.281   2.065  19.113  0.00  0.00    +0.000 A 
ATOM      4  C   UNL     1       3.214   1.386  18.325  0.00  0.00    +0.000 A 
ATOM      5  C   UNL     1       4.001   2.086  17.411  0.00  0.00    +0.000 A 
ATOM      6  C   UNL     1       3.837   3.463  17.267  0.00  0.00    +0.000 A 
ATOM      7  C   UNL     1       2.834   4.124  17.985  0.00  0.00    +0.000 A 
BRANCH   6   8
ATOM      8  O   UNL     1       4.693   4.107  16.399  0.00  0.00    +0.000 OA
BRANCH   8   9
ATOM      9  C   UNL     1       5.574   5.040  16.911  0.00  0.00    +0.000 A 
ATOM     10  C   UNL     1       5.447   6.422  16.733  0.00  0.00    +0.000 A 
ATOM     11  C   UNL     1       6.431   7.287  17.214  0.00  0.00    +0.000 A 
ATOM     12  C   UNL     1       7.509   6.779  17.933  0.00  0.00    +0.000 A 
ATOM     13  C   UNL     1       7.598   5.409  18.182  0.00  0.00    +0.000 A 
ATOM     14  C   UNL     1       6.632   4.539  17.670  0.00  0.00    +0.000 A 
ENDBRANCH   8   9
ENDBRANCH   6   8
ENDBRANCH   1   2
BRANCH   1  15
ATOM     15  S   UNL     1       2.048   5.171  21.114  0.00  0.00    +0.000 S 
BRANCH  15  21
ATOM     16  C   UNL     1       0.883  10.925  19.070  0.00  0.00    +0.000 A 
ATOM     17  C   UNL     1       1.644  10.501  17.975  0.00  0.00    +0.000 A 
ATOM     18  C   UNL     1       2.209   9.219  17.931  0.00  0.00    +0.000 A 
ATOM     19  C   UNL     1       1.971   8.390  19.026  0.00  0.00    +0.000 A 
ATOM     20  N   UNL     1       2.341   7.102  19.305  0.00  0.00    +0.000 N 
ATOM     21  C   UNL     1       1.810   6.769  20.514  0.00  0.00    +0.000 A 
ATOM     22  N   UNL     1       1.149   7.759  21.060  0.00  0.00    +0.000 NA
ATOM     23  C   UNL     1       1.232   8.782  20.139  0.00  0.00    +0.000 A 
ATOM     24  C   UNL     1       0.692  10.078  20.173  0.00  0.00    +0.000 A 
ATOM     25  H   UNL     1       2.886   6.487  18.722  0.00  0.00    +0.000 HD
BRANCH  16  27
ATOM     26  C   UNL     1      -1.034  12.264  18.710  0.00  0.00    +0.000 C 
ATOM     27  O   UNL     1       0.306  12.164  19.181  0.00  0.00    +0.000 OA
ENDBRANCH  16  27
ENDBRANCH  15  21
ENDBRANCH   1  15
TORSDOF 6
ENDMDL
MODEL 9
REMARK VINA RESULT:      -7.5      0.723      1.733
REMARK  Name = 
REMARK  7 active torsions:
REMARK  status: ('A' for Active; 'I' for Inactive)
REMARK    1  A    between atoms: C_1  and  O_2
REMARK    2  A    between atoms: O_2  and  C_3
REMARK    3  A    between atoms: C_8  and  S_9
REMARK    4  A    between atoms: S_9  and  C_10
REMARK    5  A    between atoms: C_10  and  C_11
REMARK    6  A    between atoms: C_15  and  O_16
REMARK    7  A    between atoms: O_16  and  C_17
REMARK                            x       y       z     vdW  Elec       q    Type
REMARK                         _______ _______ _______ _____ _____    ______ ____
ROOT
ATOM      1  C   UNL     1       6.943   7.792  17.215  0.00  0.00    +0.000 C 
ENDROOT
BRANCH   1   2
ATOM      2  C   UNL     1       6.101   6.541  17.134  0.00  0.00    +0.000 A 
ATOM      3  C   UNL     1       6.595   5.368  16.550  0.00  0.00    +0.000 A 
ATOM      4  C   UNL     1       5.773   4.245  16.412  0.00  0.00    +0.000 A 
ATOM      5  C   UNL     1       4.441   4.298  16.819  0.00  0.00    +0.000 A 
ATOM      6  C   UNL     1       3.936   5.465  17.389  0.00  0.00    +0.000 A 
ATOM      7  C   UNL     1       4.786   6.553  17.617  0.00  0.00    +0.000 A 
BRANCH   6   8
ATOM      8  O   UNL     1       2.595   5.477  17.706  0.00  0.00    +0.000 OA
BRANCH   8   9
ATOM      9  C   UNL     1       2.152   4.672  18.738  0.00  0.00    +0.000 A 
ATOM     10  C   UNL     1       1.335   3.549  18.565  0.00  0.00    +0.000 A 
ATOM     11  C   UNL     1       0.866   2.842  19.673  0.00  0.00    +0.000 A 
ATOM     12  C   UNL     1       1.268   3.214  20.953  0.00  0.00    +0.000 A 
ATOM     13  C   UNL     1       2.147   4.283  21.125  0.00  0.00    +0.000 A 
ATOM     14  C   UNL     1       2.588   5.013  20.019  0.00  0.00    +0.000 A 
ENDBRANCH   8   9
ENDBRANCH   6   8
ENDBRANCH   1   2
BRANCH   1  15
ATOM     15  S   UNL     1       8.227   7.663  18.481  0.00  0.00    +0.000 S 
BRANCH  15  21
ATOM     16  C   UNL     1       9.912  13.590  19.298  0.00  0.00    +0.000 A 
ATOM     17  C   UNL     1       9.136  13.786  18.149  0.00  0.00    +0.000 A 
ATOM     18  C   UNL     1       8.511  12.713  17.500  0.00  0.00    +0.000 A 
ATOM     19  C   UNL     1       8.698  11.448  18.055  0.00  0.00    +0.000 A 
ATOM     20  N   UNL     1       8.231  10.210  17.705  0.00  0.00    +0.000 N 
ATOM     21  C   UNL     1       8.702   9.314  18.617  0.00  0.00    +0.000 A 
ATOM     22  N   UNL     1       9.471   9.875  19.516  0.00  0.00    +0.000 NA
ATOM     23  C   UNL     1       9.475  11.213  19.186  0.00  0.00    +0.000 A 
ATOM     24  C   UNL     1      10.109  12.299  19.810  0.00  0.00    +0.000 A 
ATOM     25  H   UNL     1       7.626   9.985  16.930  0.00  0.00    +0.000 HD
BRANCH  16  27
ATOM     26  C   UNL     1      10.105  14.816  21.313  0.00  0.00    +0.000 C 
ATOM     27  O   UNL     1      10.554  14.592  19.980  0.00  0.00    +0.000 OA
ENDBRANCH  16  27
ENDBRANCH  15  21
ENDBRANCH   1  15
TORSDOF 6
ENDMDL
