MODEL 1
REMARK VINA RESULT:      -8.5      0.000      0.000
REMARK  Name = 
REMARK  7 active torsions:
REMARK  status: ('A' for Active; 'I' for Inactive)
REMARK    1  A    between atoms: C_1  and  C_2
REMARK    2  A    between atoms: C_2  and  C_3
REMARK    3  A    between atoms: C_3  and  C_4
REMARK    4  A    between atoms: C_3  and  N_5
REMARK    5  A    between atoms: N_5  and  C_6
REMARK    6  A    between atoms: C_7  and  C_9
REMARK    7  A    between atoms: C_17  and  C_18
REMARK                            x       y       z     vdW  Elec       q    Type
REMARK                         _______ _______ _______ _____ _____    ______ ____
ROOT
ATOM      1  C   UNL     1       2.391   7.070  18.865  0.00  0.00    +0.000 A 
ATOM      2  C   UNL     1       1.914   6.317  19.923  0.00  0.00    +0.000 A 
ATOM      3  C   UNL     1       2.416   5.031  20.135  0.00  0.00    +0.000 A 
ATOM      4  C   UNL     1       1.828   4.211  21.116  0.00  0.00    +0.000 A 
ATOM      5  C   UNL     1       2.329   2.941  21.387  0.00  0.00    +0.000 A 
ATOM      6  C   UNL     1       3.470   2.506  20.733  0.00  0.00    +0.000 A 
ATOM      7  C   UNL     1       4.068   3.320  19.766  0.00  0.00    +0.000 A 
ATOM      8  C   UNL     1       3.514   4.572  19.377  0.00  0.00    +0.000 A 
ATOM      9  C   UNL     1       3.960   5.408  18.309  0.00  0.00    +0.000 A 
ATOM     10  N   UNL     1       3.361   6.604  18.042  0.00  0.00    +0.000 NA
ENDROOT
BRANCH   9  11
ATOM     11  C   UNL     1       5.049   5.051  17.348  0.00  0.00    +0.000 A 
ATOM     12  C   UNL     1       4.732   4.627  16.035  0.00  0.00    +0.000 A 
ATOM     13  C   UNL     1       5.708   4.218  15.118  0.00  0.00    +0.000 A 
ATOM     14  C   UNL     1       7.049   4.303  15.453  0.00  0.00    +0.000 A 
ATOM     15  C   UNL     1       7.408   4.780  16.708  0.00  0.00    +0.000 A 
ATOM     16  C   UNL     1       6.428   5.129  17.654  0.00  0.00    +0.000 A 
ATOM     17 CL   UNL     1       7.042   5.595  19.208  0.00  0.00    +0.000 Cl
ENDBRANCH   9  11
BRANCH   1  20
ATOM     18  N   UNL     1       1.283   9.262  19.600  0.00  0.00    +0.000 N 
ATOM     19  C   UNL     1       0.881   8.748  20.903  0.00  0.00    +0.000 C 
ATOM     20  C   UNL     1       1.952   8.496  18.613  0.00  0.00    +0.000 C 
ATOM     21  O   UNL     1       2.212   8.983  17.507  0.00  0.00    +0.000 OA
BRANCH  18  22
ATOM     22  C   UNL     1       0.958  10.676  19.285  0.00  0.00    +0.000 C 
ATOM     23  C   UNL     1      -0.438  10.810  18.657  0.00  0.00    +0.000 C 
BRANCH  22  25
ATOM     24  C   UNL     1       1.798  12.913  20.192  0.00  0.00    +0.000 C 
ATOM     25  C   UNL     1       1.076  11.610  20.506  0.00  0.00    +0.000 C 
ENDBRANCH  22  25
ENDBRANCH  18  22
ENDBRANCH   1  20
TORSDOF 4
ENDMDL
MODEL 2
REMARK VINA RESULT:      -8.1      1.202      1.633
REMARK  Name = 
REMARK  7 active torsions:
REMARK  status: ('A' for Active; 'I' for Inactive)
REMARK    1  A    between atoms: C_1  and  C_2
REMARK    2  A    between atoms: C_2  and  C_3
REMARK    3  A    between atoms: C_3  and  C_4
REMARK    4  A    between atoms: C_3  and  N_5
REMARK    5  A    between atoms: N_5  and  C_6
REMARK    6  A    between atoms: C_7  and  C_9
REMARK    7  A    between atoms: C_17  and  C_18
REMARK                            x       y       z     vdW  Elec       q    Type
REMARK                         _______ _______ _______ _____ _____    ______ ____
ROOT
ATOM      1  C   UNL     1       2.191   6.990  19.931  0.00  0.00    +0.000 A 
ATOM      2  C   UNL     1       1.809   5.958  20.767  0.00  0.00    +0.000 A 
ATOM      3  C   UNL     1       2.391   4.698  20.619  0.00  0.00    +0.000 A 
ATOM      4  C   UNL     1       1.897   3.613  21.367  0.00  0.00    +0.000 A 
ATOM      5  C   UNL     1       2.481   2.353  21.279  0.00  0.00    +0.000 A 
ATOM      6  C   UNL     1       3.613   2.180  20.499  0.00  0.00    +0.000 A 
ATOM      7  C   UNL     1       4.118   3.256  19.762  0.00  0.00    +0.000 A 
ATOM      8  C   UNL     1       3.477   4.526  19.733  0.00  0.00    +0.000 A 
ATOM      9  C   UNL     1       3.823   5.639  18.909  0.00  0.00    +0.000 A 
ATOM     10  N   UNL     1       3.147   6.821  18.984  0.00  0.00    +0.000 NA
ENDROOT
BRANCH   9  11
ATOM     11  C   UNL     1       4.884   5.618  17.855  0.00  0.00    +0.000 A 
ATOM     12  C   UNL     1       4.530   5.625  16.484  0.00  0.00    +0.000 A 
ATOM     13  C   UNL     1       5.478   5.539  15.458  0.00  0.00    +0.000 A 
ATOM     14  C   UNL     1       6.829   5.533  15.766  0.00  0.00    +0.000 A 
ATOM     15  C   UNL     1       7.224   5.595  17.098  0.00  0.00    +0.000 A 
ATOM     16  C   UNL     1       6.271   5.615  18.132  0.00  0.00    +0.000 A 
ATOM     17 CL   UNL     1       6.931   5.577  19.735  0.00  0.00    +0.000 Cl
ENDBRANCH   9  11
BRANCH   1  20
ATOM     18  N   UNL     1       1.443   9.239  18.954  0.00  0.00    +0.000 N 
ATOM     19  C   UNL     1       1.772   8.875  17.582  0.00  0.00    +0.000 C 
ATOM     20  C   UNL     1       1.661   8.401  20.075  0.00  0.00    +0.000 C 
ATOM     21  O   UNL     1       1.408   8.798  21.218  0.00  0.00    +0.000 OA
BRANCH  18  22
ATOM     22  C   UNL     1       0.850  10.580  19.190  0.00  0.00    +0.000 C 
ATOM     23  C   UNL     1       1.727  11.697  18.602  0.00  0.00    +0.000 C 
BRANCH  22  25
ATOM     24  C   UNL     1      -1.499  11.507  19.579  0.00  0.00    +0.000 C 
ATOM     25  C   UNL     1      -0.590  10.708  18.657  0.00  0.00    +0.000 C 
ENDBRANCH  22  25
ENDBRANCH  18  22
ENDBRANCH   1  20
TORSDOF 4
ENDMDL
MODEL 3
REMARK VINA RESULT:      -8.0      1.833      4.352
REMARK  Name = 
REMARK  7 active torsions:
REMARK  status: ('A' for Active; 'I' for Inactive)
REMARK    1  A    between atoms: C_1  and  C_2
REMARK    2  A    between atoms: C_2  and  C_3
REMARK    3  A    between atoms: C_3  and  C_4
REMARK    4  A    between atoms: C_3  and  N_5
REMARK    5  A    between atoms: N_5  and  C_6
REMARK    6  A    between atoms: C_7  and  C_9
REMARK    7  A    between atoms: C_17  and  C_18
REMARK                            x       y       z     vdW  Elec       q    Type
REMARK                         _______ _______ _______ _____ _____    ______ ____
ROOT
ATOM      1  C   UNL     1       2.695   7.947  18.215  0.00  0.00    +0.000 A 
ATOM      2  C   UNL     1       3.704   7.844  17.275  0.00  0.00    +0.000 A 
ATOM      3  C   UNL     1       4.385   6.635  17.126  0.00  0.00    +0.000 A 
ATOM      4  C   UNL     1       5.507   6.571  16.278  0.00  0.00    +0.000 A 
ATOM      5  C   UNL     1       6.185   5.374  16.069  0.00  0.00    +0.000 A 
ATOM      6  C   UNL     1       5.703   4.210  16.646  0.00  0.00    +0.000 A 
ATOM      7  C   UNL     1       4.582   4.262  17.480  0.00  0.00    +0.000 A 
ATOM      8  C   UNL     1       3.937   5.486  17.813  0.00  0.00    +0.000 A 
ATOM      9  C   UNL     1       2.884   5.667  18.760  0.00  0.00    +0.000 A 
ATOM     10  N   UNL     1       2.325   6.891  18.980  0.00  0.00    +0.000 NA
ENDROOT
BRANCH   9  11
ATOM     11  C   UNL     1       2.339   4.588  19.640  0.00  0.00    +0.000 A 
ATOM     12  C   UNL     1       2.642   4.572  21.023  0.00  0.00    +0.000 A 
ATOM     13  C   UNL     1       2.214   3.551  21.878  0.00  0.00    +0.000 A 
ATOM     14  C   UNL     1       1.387   2.548  21.398  0.00  0.00    +0.000 A 
ATOM     15  C   UNL     1       1.007   2.564  20.060  0.00  0.00    +0.000 A 
ATOM     16  C   UNL     1       1.490   3.552  19.184  0.00  0.00    +0.000 A 
ATOM     17 CL   UNL     1       1.012   3.360  17.528  0.00  0.00    +0.000 Cl
ENDBRANCH   9  11
BRANCH   1  20
ATOM     18  N   UNL     1       1.192   9.494  19.600  0.00  0.00    +0.000 N 
ATOM     19  C   UNL     1       1.165   8.609  20.758  0.00  0.00    +0.000 C 
ATOM     20  C   UNL     1       1.861   9.199  18.387  0.00  0.00    +0.000 C 
ATOM     21  O   UNL     1       1.795   9.973  17.427  0.00  0.00    +0.000 OA
BRANCH  18  22
ATOM     22  C   UNL     1       0.459  10.782  19.699  0.00  0.00    +0.000 C 
ATOM     23  C   UNL     1      -1.036  10.608  19.388  0.00  0.00    +0.000 C 
BRANCH  22  25
ATOM     24  C   UNL     1      -0.687  11.885  21.699  0.00  0.00    +0.000 C 
ATOM     25  C   UNL     1       0.634  11.475  21.064  0.00  0.00    +0.000 C 
ENDBRANCH  22  25
ENDBRANCH  18  22
ENDBRANCH   1  20
TORSDOF 4
ENDMDL
MODEL 4
REMARK VINA RESULT:      -7.8      1.727      2.304
REMARK  Name = 
REMARK  7 active torsions:
REMARK  status: ('A' for Active; 'I' for Inactive)
REMARK    1  A    between atoms: C_1  and  C_2
REMARK    2  A    between atoms: C_2  and  C_3
REMARK    3  A    between atoms: C_3  and  C_4
REMARK    4  A    between atoms: C_3  and  N_5
REMARK    5  A    between atoms: N_5  and  C_6
REMARK    6  A    between atoms: C_7  and  C_9
REMARK    7  A    between atoms: C_17  and  C_18
REMARK                            x       y       z     vdW  Elec       q    Type
REMARK                         _______ _______ _______ _____ _____    ______ ____
ROOT
ATOM      1  C   UNL     1       2.099   6.675  19.863  0.00  0.00    +0.000 A 
ATOM      2  C   UNL     1       1.245   5.620  20.124  0.00  0.00    +0.000 A 
ATOM      3  C   UNL     1       1.644   4.318  19.817  0.00  0.00    +0.000 A 
ATOM      4  C   UNL     1       0.721   3.262  19.943  0.00  0.00    +0.000 A 
ATOM      5  C   UNL     1       1.096   1.946  19.690  0.00  0.00    +0.000 A 
ATOM      6  C   UNL     1       2.416   1.661  19.382  0.00  0.00    +0.000 A 
ATOM      7  C   UNL     1       3.342   2.702  19.267  0.00  0.00    +0.000 A 
ATOM      8  C   UNL     1       2.969   4.069  19.400  0.00  0.00    +0.000 A 
ATOM      9  C   UNL     1       3.798   5.208  19.162  0.00  0.00    +0.000 A 
ATOM     10  N   UNL     1       3.335   6.477  19.345  0.00  0.00    +0.000 NA
ENDROOT
BRANCH   9  11
ATOM     11  C   UNL     1       5.196   5.145  18.636  0.00  0.00    +0.000 A 
ATOM     12  C   UNL     1       6.285   5.530  19.455  0.00  0.00    +0.000 A 
ATOM     13  C   UNL     1       7.606   5.554  18.992  0.00  0.00    +0.000 A 
ATOM     14  C   UNL     1       7.899   5.106  17.715  0.00  0.00    +0.000 A 
ATOM     15  C   UNL     1       6.867   4.651  16.900  0.00  0.00    +0.000 A 
ATOM     16  C   UNL     1       5.532   4.689  17.339  0.00  0.00    +0.000 A 
ATOM     17 CL   UNL     1       4.360   4.195  16.161  0.00  0.00    +0.000 Cl
ENDBRANCH   9  11
BRANCH   1  20
ATOM     18  N   UNL     1       1.498   9.092  19.252  0.00  0.00    +0.000 N 
ATOM     19  C   UNL     1       1.585   8.863  17.815  0.00  0.00    +0.000 C 
ATOM     20  C   UNL     1       1.769   8.106  20.233  0.00  0.00    +0.000 C 
ATOM     21  O   UNL     1       1.729   8.386  21.436  0.00  0.00    +0.000 OA
BRANCH  18  22
ATOM     22  C   UNL     1       1.112  10.449  19.714  0.00  0.00    +0.000 C 
ATOM     23  C   UNL     1       1.594  11.536  18.740  0.00  0.00    +0.000 C 
BRANCH  22  25
ATOM     24  C   UNL     1      -0.740  10.970  21.395  0.00  0.00    +0.000 C 
ATOM     25  C   UNL     1      -0.402  10.597  19.959  0.00  0.00    +0.000 C 
ENDBRANCH  22  25
ENDBRANCH  18  22
ENDBRANCH   1  20
TORSDOF 4
ENDMDL
MODEL 5
REMARK VINA RESULT:      -7.8      1.170      1.637
REMARK  Name = 
REMARK  7 active torsions:
REMARK  status: ('A' for Active; 'I' for Inactive)
REMARK    1  A    between atoms: C_1  and  C_2
REMARK    2  A    between atoms: C_2  and  C_3
REMARK    3  A    between atoms: C_3  and  C_4
REMARK    4  A    between atoms: C_3  and  N_5
REMARK    5  A    between atoms: N_5  and  C_6
REMARK    6  A    between atoms: C_7  and  C_9
REMARK    7  A    between atoms: C_17  and  C_18
REMARK                            x       y       z     vdW  Elec       q    Type
REMARK                         _______ _______ _______ _____ _____    ______ ____
ROOT
ATOM      1  C   UNL     1       2.255   7.061  19.001  0.00  0.00    +0.000 A 
ATOM      2  C   UNL     1       1.444   6.238  19.760  0.00  0.00    +0.000 A 
ATOM      3  C   UNL     1       1.881   4.954  20.091  0.00  0.00    +0.000 A 
ATOM      4  C   UNL     1       0.998   4.066  20.734  0.00  0.00    +0.000 A 
ATOM      5  C   UNL     1       1.412   2.794  21.120  0.00  0.00    +0.000 A 
ATOM      6  C   UNL     1       2.734   2.423  20.935  0.00  0.00    +0.000 A 
ATOM      7  C   UNL     1       3.620   3.304  20.308  0.00  0.00    +0.000 A 
ATOM      8  C   UNL     1       3.204   4.563  19.792  0.00  0.00    +0.000 A 
ATOM      9  C   UNL     1       3.987   5.469  19.014  0.00  0.00    +0.000 A 
ATOM     10  N   UNL     1       3.485   6.665  18.592  0.00  0.00    +0.000 NA
ENDROOT
BRANCH   9  11
ATOM     11  C   UNL     1       5.375   5.191  18.530  0.00  0.00    +0.000 A 
ATOM     12  C   UNL     1       6.492   5.532  19.330  0.00  0.00    +0.000 A 
ATOM     13  C   UNL     1       7.812   5.356  18.898  0.00  0.00    +0.000 A 
ATOM     14  C   UNL     1       8.064   4.747  17.680  0.00  0.00    +0.000 A 
ATOM     15  C   UNL     1       6.996   4.332  16.892  0.00  0.00    +0.000 A 
ATOM     16  C   UNL     1       5.669   4.568  17.294  0.00  0.00    +0.000 A 
ATOM     17 CL   UNL     1       4.460   4.094  16.145  0.00  0.00    +0.000 Cl
ENDBRANCH   9  11
BRANCH   1  20
ATOM     18  N   UNL     1       1.277   9.351  19.608  0.00  0.00    +0.000 N 
ATOM     19  C   UNL     1       0.876   8.944  20.949  0.00  0.00    +0.000 C 
ATOM     20  C   UNL     1       1.886   8.489  18.662  0.00  0.00    +0.000 C 
ATOM     21  O   UNL     1       2.149   8.889  17.524  0.00  0.00    +0.000 OA
BRANCH  18  22
ATOM     22  C   UNL     1       1.019  10.757  19.208  0.00  0.00    +0.000 C 
ATOM     23  C   UNL     1      -0.366  10.917  18.562  0.00  0.00    +0.000 C 
BRANCH  22  25
ATOM     24  C   UNL     1       1.967  12.999  19.988  0.00  0.00    +0.000 C 
ATOM     25  C   UNL     1       1.176  11.757  20.371  0.00  0.00    +0.000 C 
ENDBRANCH  22  25
ENDBRANCH  18  22
ENDBRANCH   1  20
TORSDOF 4
ENDMDL
MODEL 6
REMARK VINA RESULT:      -7.8      1.913      2.396
REMARK  Name = 
REMARK  7 active torsions:
REMARK  status: ('A' for Active; 'I' for Inactive)
REMARK    1  A    between atoms: C_1  and  C_2
REMARK    2  A    between atoms: C_2  and  C_3
REMARK    3  A    between atoms: C_3  and  C_4
REMARK    4  A    between atoms: C_3  and  N_5
REMARK    5  A    between atoms: N_5  and  C_6
REMARK    6  A    between atoms: C_7  and  C_9
REMARK    7  A    between atoms: C_17  and  C_18
REMARK                            x       y       z     vdW  Elec       q    Type
REMARK                         _______ _______ _______ _____ _____    ______ ____
ROOT
ATOM      1  C   UNL     1       1.940   6.920  20.126  0.00  0.00    +0.000 A 
ATOM      2  C   UNL     1       1.214   5.758  20.309  0.00  0.00    +0.000 A 
ATOM      3  C   UNL     1       1.743   4.539  19.882  0.00  0.00    +0.000 A 
ATOM      4  C   UNL     1       0.945   3.381  19.932  0.00  0.00    +0.000 A 
ATOM      5  C   UNL     1       1.453   2.141  19.557  0.00  0.00    +0.000 A 
ATOM      6  C   UNL     1       2.786   2.031  19.199  0.00  0.00    +0.000 A 
ATOM      7  C   UNL     1       3.590   3.175  19.158  0.00  0.00    +0.000 A 
ATOM      8  C   UNL     1       3.075   4.476  19.418  0.00  0.00    +0.000 A 
ATOM      9  C   UNL     1       3.767   5.715  19.264  0.00  0.00    +0.000 A 
ATOM     10  N   UNL     1       3.175   6.906  19.567  0.00  0.00    +0.000 NA
ENDROOT
BRANCH   9  11
ATOM     11  C   UNL     1       5.149   5.852  18.708  0.00  0.00    +0.000 A 
ATOM     12  C   UNL     1       6.267   5.411  19.455  0.00  0.00    +0.000 A 
ATOM     13  C   UNL     1       7.585   5.575  19.012  0.00  0.00    +0.000 A 
ATOM     14  C   UNL     1       7.829   6.109  17.757  0.00  0.00    +0.000 A 
ATOM     15  C   UNL     1       6.756   6.492  16.959  0.00  0.00    +0.000 A 
ATOM     16  C   UNL     1       5.435   6.389  17.430  0.00  0.00    +0.000 A 
ATOM     17 CL   UNL     1       4.224   7.015  16.358  0.00  0.00    +0.000 Cl
ENDBRANCH   9  11
BRANCH   1  20
ATOM     18  N   UNL     1       1.133   9.323  19.741  0.00  0.00    +0.000 N 
ATOM     19  C   UNL     1       1.280   9.255  18.292  0.00  0.00    +0.000 C 
ATOM     20  C   UNL     1       1.469   8.269  20.626  0.00  0.00    +0.000 C 
ATOM     21  O   UNL     1       1.370   8.418  21.849  0.00  0.00    +0.000 OA
BRANCH  18  22
ATOM     22  C   UNL     1       0.610  10.585  20.323  0.00  0.00    +0.000 C 
ATOM     23  C   UNL     1       1.347  11.813  19.768  0.00  0.00    +0.000 C 
BRANCH  22  25
ATOM     24  C   UNL     1      -1.277  11.992  19.326  0.00  0.00    +0.000 C 
ATOM     25  C   UNL     1      -0.911  10.754  20.132  0.00  0.00    +0.000 C 
ENDBRANCH  22  25
ENDBRANCH  18  22
ENDBRANCH   1  20
TORSDOF 4
ENDMDL
MODEL 7
REMARK VINA RESULT:      -7.8      0.572      1.038
REMARK  Name = 
REMARK  7 active torsions:
REMARK  status: ('A' for Active; 'I' for Inactive)
REMARK    1  A    between atoms: C_1  and  C_2
REMARK    2  A    between atoms: C_2  and  C_3
REMARK    3  A    between atoms: C_3  and  C_4
REMARK    4  A    between atoms: C_3  and  N_5
REMARK    5  A    between atoms: N_5  and  C_6
REMARK    6  A    between atoms: C_7  and  C_9
REMARK    7  A    between atoms: C_17  and  C_18
REMARK                            x       y       z     vdW  Elec       q    Type
REMARK                         _______ _______ _______ _____ _____    ______ ____
ROOT
ATOM      1  C   UNL     1       2.341   7.024  18.844  0.00  0.00    +0.000 A 
ATOM      2  C   UNL     1       1.874   6.268  19.904  0.00  0.00    +0.000 A 
ATOM      3  C   UNL     1       2.400   4.994  20.127  0.00  0.00    +0.000 A 
ATOM      4  C   UNL     1       1.823   4.168  21.110  0.00  0.00    +0.000 A 
ATOM      5  C   UNL     1       2.348   2.911  21.391  0.00  0.00    +0.000 A 
ATOM      6  C   UNL     1       3.501   2.495  20.746  0.00  0.00    +0.000 A 
ATOM      7  C   UNL     1       4.088   3.314  19.777  0.00  0.00    +0.000 A 
ATOM      8  C   UNL     1       3.511   4.552  19.377  0.00  0.00    +0.000 A 
ATOM      9  C   UNL     1       3.945   5.391  18.306  0.00  0.00    +0.000 A 
ATOM     10  N   UNL     1       3.325   6.573  18.029  0.00  0.00    +0.000 NA
ENDROOT
BRANCH   9  11
ATOM     11  C   UNL     1       5.046   5.049  17.353  0.00  0.00    +0.000 A 
ATOM     12  C   UNL     1       4.746   4.630  16.034  0.00  0.00    +0.000 A 
ATOM     13  C   UNL     1       5.733   4.235  15.124  0.00  0.00    +0.000 A 
ATOM     14  C   UNL     1       7.071   4.330  15.471  0.00  0.00    +0.000 A 
ATOM     15  C   UNL     1       7.414   4.804  16.733  0.00  0.00    +0.000 A 
ATOM     16  C   UNL     1       6.422   5.138  17.672  0.00  0.00    +0.000 A 
ATOM     17 CL   UNL     1       7.018   5.600  19.234  0.00  0.00    +0.000 Cl
ENDBRANCH   9  11
BRANCH   1  20
ATOM     18  N   UNL     1       1.326   9.253  19.603  0.00  0.00    +0.000 N 
ATOM     19  C   UNL     1       1.082   8.800  20.967  0.00  0.00    +0.000 C 
ATOM     20  C   UNL     1       1.875   8.440  18.580  0.00  0.00    +0.000 C 
ATOM     21  O   UNL     1       2.003   8.875  17.431  0.00  0.00    +0.000 OA
BRANCH  18  22
ATOM     22  C   UNL     1       0.966  10.653  19.265  0.00  0.00    +0.000 C 
ATOM     23  C   UNL     1       2.076  11.343  18.456  0.00  0.00    +0.000 C 
BRANCH  22  25
ATOM     24  C   UNL     1      -1.455  11.468  19.338  0.00  0.00    +0.000 C 
ATOM     25  C   UNL     1      -0.378  10.769  18.520  0.00  0.00    +0.000 C 
ENDBRANCH  22  25
ENDBRANCH  18  22
ENDBRANCH   1  20
TORSDOF 4
ENDMDL
MODEL 8
REMARK VINA RESULT:      -7.7      1.572      2.120
REMARK  Name = 
REMARK  7 active torsions:
REMARK  status: ('A' for Active; 'I' for Inactive)
REMARK    1  A    between atoms: C_1  and  C_2
REMARK    2  A    between atoms: C_2  and  C_3
REMARK    3  A    between atoms: C_3  and  C_4
REMARK    4  A    between atoms: C_3  and  N_5
REMARK    5  A    between atoms: N_5  and  C_6
REMARK    6  A    between atoms: C_7  and  C_9
REMARK    7  A    between atoms: C_17  and  C_18
REMARK                            x       y       z     vdW  Elec       q    Type
REMARK                         _______ _______ _______ _____ _____    ______ ____
ROOT
ATOM      1  C   UNL     1       2.106   6.978  19.977  0.00  0.00    +0.000 A 
ATOM      2  C   UNL     1       1.725   5.970  20.843  0.00  0.00    +0.000 A 
ATOM      3  C   UNL     1       2.299   4.704  20.723  0.00  0.00    +0.000 A 
ATOM      4  C   UNL     1       1.805   3.641  21.504  0.00  0.00    +0.000 A 
ATOM      5  C   UNL     1       2.381   2.376  21.444  0.00  0.00    +0.000 A 
ATOM      6  C   UNL     1       3.506   2.177  20.660  0.00  0.00    +0.000 A 
ATOM      7  C   UNL     1       4.011   3.230  19.891  0.00  0.00    +0.000 A 
ATOM      8  C   UNL     1       3.376   4.502  19.834  0.00  0.00    +0.000 A 
ATOM      9  C   UNL     1       3.722   5.592  18.978  0.00  0.00    +0.000 A 
ATOM     10  N   UNL     1       3.053   6.779  19.028  0.00  0.00    +0.000 NA
ENDROOT
BRANCH   9  11
ATOM     11  C   UNL     1       4.775   5.536  17.916  0.00  0.00    +0.000 A 
ATOM     12  C   UNL     1       5.934   6.343  18.018  0.00  0.00    +0.000 A 
ATOM     13  C   UNL     1       6.917   6.380  17.022  0.00  0.00    +0.000 A 
ATOM     14  C   UNL     1       6.821   5.540  15.924  0.00  0.00    +0.000 A 
ATOM     15  C   UNL     1       5.733   4.681  15.819  0.00  0.00    +0.000 A 
ATOM     16  C   UNL     1       4.711   4.689  16.785  0.00  0.00    +0.000 A 
ATOM     17 CL   UNL     1       3.372   3.641  16.444  0.00  0.00    +0.000 Cl
ENDBRANCH   9  11
BRANCH   1  20
ATOM     18  N   UNL     1       1.386   9.214  18.950  0.00  0.00    +0.000 N 
ATOM     19  C   UNL     1       1.729   8.822  17.588  0.00  0.00    +0.000 C 
ATOM     20  C   UNL     1       1.585   8.395  20.089  0.00  0.00    +0.000 C 
ATOM     21  O   UNL     1       1.321   8.815  21.220  0.00  0.00    +0.000 OA
BRANCH  18  22
ATOM     22  C   UNL     1       0.801  10.564  19.153  0.00  0.00    +0.000 C 
ATOM     23  C   UNL     1       1.721  11.667  18.607  0.00  0.00    +0.000 C 
BRANCH  22  25
ATOM     24  C   UNL     1      -1.102  12.149  18.524  0.00  0.00    +0.000 C 
ATOM     25  C   UNL     1      -0.610  10.709  18.549  0.00  0.00    +0.000 C 
ENDBRANCH  22  25
ENDBRANCH  18  22
ENDBRANCH   1  20
TORSDOF 4
ENDMDL
MODEL 9
REMARK VINA RESULT:      -7.7      1.839      4.110
REMARK  Name = 
REMARK  7 active torsions:
REMARK  status: ('A' for Active; 'I' for Inactive)
REMARK    1  A    between atoms: C_1  and  C_2
REMARK    2  A    between atoms: C_2  and  C_3
REMARK    3  A    between atoms: C_3  and  C_4
REMARK    4  A    between atoms: C_3  and  N_5
REMARK    5  A    between atoms: N_5  and  C_6
REMARK    6  A    between atoms: C_7  and  C_9
REMARK    7  A    between atoms: C_17  and  C_18
REMARK                            x       y       z     vdW  Elec       q    Type
REMARK                         _______ _______ _______ _____ _____    ______ ____
ROOT
ATOM      1  C   UNL     1       2.764   7.801  18.061  0.00  0.00    +0.000 A 
ATOM      2  C   UNL     1       3.939   7.812  17.332  0.00  0.00    +0.000 A 
ATOM      3  C   UNL     1       4.626   6.617  17.114  0.00  0.00    +0.000 A 
ATOM      4  C   UNL     1       5.894   6.648  16.502  0.00  0.00    +0.000 A 
ATOM      5  C   UNL     1       6.589   5.474  16.229  0.00  0.00    +0.000 A 
ATOM      6  C   UNL     1       5.994   4.252  16.494  0.00  0.00    +0.000 A 
ATOM      7  C   UNL     1       4.729   4.212  17.090  0.00  0.00    +0.000 A 
ATOM      8  C   UNL     1       4.041   5.390  17.495  0.00  0.00    +0.000 A 
ATOM      9  C   UNL     1       2.822   5.456  18.235  0.00  0.00    +0.000 A 
ATOM     10  N   UNL     1       2.241   6.649  18.548  0.00  0.00    +0.000 NA
ENDROOT
BRANCH   9  11
ATOM     11  C   UNL     1       2.104   4.270  18.795  0.00  0.00    +0.000 A 
ATOM     12  C   UNL     1       1.532   3.307  17.928  0.00  0.00    +0.000 A 
ATOM     13  C   UNL     1       0.793   2.214  18.396  0.00  0.00    +0.000 A 
ATOM     14  C   UNL     1       0.673   1.994  19.759  0.00  0.00    +0.000 A 
ATOM     15  C   UNL     1       1.280   2.876  20.646  0.00  0.00    +0.000 A 
ATOM     16  C   UNL     1       1.966   4.011  20.179  0.00  0.00    +0.000 A 
ATOM     17 CL   UNL     1       2.563   5.068  21.418  0.00  0.00    +0.000 Cl
ENDBRANCH   9  11
BRANCH   1  20
ATOM     18  N   UNL     1       1.296   9.315  19.519  0.00  0.00    +0.000 N 
ATOM     19  C   UNL     1       1.323   8.417  20.667  0.00  0.00    +0.000 C 
ATOM     20  C   UNL     1       1.923   9.041  18.278  0.00  0.00    +0.000 C 
ATOM     21  O   UNL     1       1.812   9.824  17.330  0.00  0.00    +0.000 OA
BRANCH  18  22
ATOM     22  C   UNL     1       0.552  10.593  19.659  0.00  0.00    +0.000 C 
ATOM     23  C   UNL     1      -0.951  10.404  19.402  0.00  0.00    +0.000 C 
BRANCH  22  25
ATOM     24  C   UNL     1      -0.523  11.485  21.799  0.00  0.00    +0.000 C 
ATOM     25  C   UNL     1       0.771  11.273  21.025  0.00  0.00    +0.000 C 
ENDBRANCH  22  25
ENDBRANCH  18  22
ENDBRANCH   1  20
TORSDOF 4
ENDMDL
