MODEL 1
REMARK VINA RESULT:      -8.2      0.000      0.000
REMARK  Name = 
REMARK  9 active torsions:
REMARK  status: ('A' for Active; 'I' for Inactive)
REMARK    1  A    between atoms: C_1  and  C_2
REMARK    2  A    between atoms: C_2  and  C_3
REMARK    3  A    between atoms: C_3  and  S_4
REMARK    4  A    between atoms: C_3  and  C_23
REMARK    5  A    between atoms: S_4  and  C_5
REMARK    6  A    between atoms: N_11  and  C_12
REMARK    7  A    between atoms: C_16  and  O_17
REMARK    8  A    between atoms: O_17  and  C_18
REMARK    9  A    between atoms: N_25  and  C_26
REMARK                            x       y       z     vdW  Elec       q    Type
REMARK                         _______ _______ _______ _____ _____    ______ ____
ROOT
ATOM      1  C   UNL     1       1.775   7.765  20.027  0.00  0.00    +0.000 A 
ATOM      2  N   UNL     1       1.856   8.205  18.790  0.00  0.00    +0.000 NA
ATOM      3  N   UNL     1       1.315   9.481  18.753  0.00  0.00    +0.000 NA
ATOM      4  C   UNL     1       0.882   9.762  19.963  0.00  0.00    +0.000 A 
ATOM      5  C   UNL     1       0.130  10.935  20.405  0.00  0.00    +0.000 A 
ATOM      6  O   UNL     1      -0.135  11.884  19.670  0.00  0.00    +0.000 OA
ATOM      7  N   UNL     1      -0.254  10.880  21.786  0.00  0.00    +0.000 N 
ATOM      8  C   UNL     1       0.078   9.798  22.604  0.00  0.00    +0.000 A 
ATOM      9  C   UNL     1       0.788   8.742  22.140  0.00  0.00    +0.000 A 
ATOM     10  N   UNL     1       1.170   8.723  20.815  0.00  0.00    +0.000 N 
ENDROOT
BRANCH   7  11
ATOM     11  C   UNL     1      -0.937  11.992  22.373  0.00  0.00    +0.000 A 
ATOM     12  C   UNL     1      -0.375  13.271  22.416  0.00  0.00    +0.000 A 
ATOM     13  C   UNL     1      -1.136  14.347  22.884  0.00  0.00    +0.000 A 
ATOM     14  C   UNL     1      -2.416  14.132  23.407  0.00  0.00    +0.000 A 
ATOM     15  C   UNL     1      -2.945  12.843  23.451  0.00  0.00    +0.000 A 
ATOM     16  C   UNL     1      -2.236  11.795  22.871  0.00  0.00    +0.000 A 
BRANCH  15  17
ATOM     17  O   UNL     1      -4.163  12.717  24.068  0.00  0.00    +0.000 OA
ATOM     18  C   UNL     1      -5.113  13.734  23.752  0.00  0.00    +0.000 C 
ENDBRANCH  15  17
ENDBRANCH   7  11
BRANCH   1  19
ATOM     19  S   UNL     1       2.206   6.179  20.595  0.00  0.00    +0.000 S 
BRANCH  19  20
ATOM     20  C   UNL     1       1.814   5.088  19.166  0.00  0.00    +0.000 C 
BRANCH  20  21
ATOM     21  C   UNL     1       3.097   4.726  18.415  0.00  0.00    +0.000 C 
ATOM     22  O   UNL     1       3.308   3.548  18.138  0.00  0.00    +0.000 OA
ATOM     23  N   UNL     1       3.963   5.757  18.077  0.00  0.00    +0.000 N 
ATOM     24  H   UNL     1       3.955   6.578  18.673  0.00  0.00    +0.000 HD
BRANCH  23  25
ATOM     25  C   UNL     1       5.179   5.492  17.384  0.00  0.00    +0.000 A 
ATOM     26  C   UNL     1       5.261   5.543  15.988  0.00  0.00    +0.000 A 
ATOM     27  C   UNL     1       6.378   5.054  15.327  0.00  0.00    +0.000 A 
ATOM     28  F   UNL     1       6.400   5.046  13.987  0.00  0.00    +0.000 F 
ATOM     29  C   UNL     1       7.467   4.568  16.034  0.00  0.00    +0.000 A 
ATOM     30  C   UNL     1       7.455   4.625  17.431  0.00  0.00    +0.000 A 
ATOM     31  C   UNL     1       6.316   5.091  18.094  0.00  0.00    +0.000 A 
ATOM     32  F   UNL     1       6.304   5.094  19.435  0.00  0.00    +0.000 F 
ENDBRANCH  23  25
ENDBRANCH  20  21
BRANCH  20  34
ATOM     33  C   UNL     1       1.307   3.291  21.026  0.00  0.00    +0.000 C 
ATOM     34  C   UNL     1       1.159   3.739  19.585  0.00  0.00    +0.000 C 
ENDBRANCH  20  34
ENDBRANCH  19  20
ENDBRANCH   1  19
TORSDOF 7
ENDMDL
MODEL 2
REMARK VINA RESULT:      -8.0      1.066      1.331
REMARK  Name = 
REMARK  9 active torsions:
REMARK  status: ('A' for Active; 'I' for Inactive)
REMARK    1  A    between atoms: C_1  and  C_2
REMARK    2  A    between atoms: C_2  and  C_3
REMARK    3  A    between atoms: C_3  and  S_4
REMARK    4  A    between atoms: C_3  and  C_23
REMARK    5  A    between atoms: S_4  and  C_5
REMARK    6  A    between atoms: N_11  and  C_12
REMARK    7  A    between atoms: C_16  and  O_17
REMARK    8  A    between atoms: O_17  and  C_18
REMARK    9  A    between atoms: N_25  and  C_26
REMARK                            x       y       z     vdW  Elec       q    Type
REMARK                         _______ _______ _______ _____ _____    ______ ____
ROOT
ATOM      1  C   UNL     1       1.877   7.505  19.807  0.00  0.00    +0.000 A 
ATOM      2  N   UNL     1       2.243   7.918  18.613  0.00  0.00    +0.000 NA
ATOM      3  N   UNL     1       1.782   9.217  18.450  0.00  0.00    +0.000 NA
ATOM      4  C   UNL     1       1.113   9.537  19.537  0.00  0.00    +0.000 A 
ATOM      5  C   UNL     1       0.339  10.750  19.797  0.00  0.00    +0.000 A 
ATOM      6  O   UNL     1       0.283  11.696  19.015  0.00  0.00    +0.000 OA
ATOM      7  N   UNL     1      -0.335  10.736  21.063  0.00  0.00    +0.000 N 
ATOM      8  C   UNL     1      -0.237   9.655  21.942  0.00  0.00    +0.000 A 
ATOM      9  C   UNL     1       0.506   8.561  21.650  0.00  0.00    +0.000 A 
ATOM     10  N   UNL     1       1.162   8.502  20.439  0.00  0.00    +0.000 N 
ENDROOT
BRANCH   7  11
ATOM     11  C   UNL     1      -1.075  11.888  21.480  0.00  0.00    +0.000 A 
ATOM     12  C   UNL     1      -2.300  12.234  20.903  0.00  0.00    +0.000 A 
ATOM     13  C   UNL     1      -3.041  13.294  21.435  0.00  0.00    +0.000 A 
ATOM     14  C   UNL     1      -2.515  14.074  22.470  0.00  0.00    +0.000 A 
ATOM     15  C   UNL     1      -1.253  13.790  22.987  0.00  0.00    +0.000 A 
ATOM     16  C   UNL     1      -0.572  12.659  22.541  0.00  0.00    +0.000 A 
BRANCH  15  17
ATOM     17  O   UNL     1      -0.781  14.666  23.930  0.00  0.00    +0.000 OA
ATOM     18  C   UNL     1      -1.746  15.114  24.880  0.00  0.00    +0.000 C 
ENDBRANCH  15  17
ENDBRANCH   7  11
BRANCH   1  19
ATOM     19  S   UNL     1       2.101   5.911  20.467  0.00  0.00    +0.000 S 
BRANCH  19  20
ATOM     20  C   UNL     1       1.675   4.799  19.064  0.00  0.00    +0.000 C 
BRANCH  20  21
ATOM     21  C   UNL     1       2.910   4.552  18.197  0.00  0.00    +0.000 C 
ATOM     22  O   UNL     1       2.913   3.591  17.432  0.00  0.00    +0.000 OA
ATOM     23  N   UNL     1       3.972   5.438  18.314  0.00  0.00    +0.000 N 
ATOM     24  H   UNL     1       4.082   5.908  19.207  0.00  0.00    +0.000 HD
BRANCH  23  25
ATOM     25  C   UNL     1       5.157   5.264  17.543  0.00  0.00    +0.000 A 
ATOM     26  C   UNL     1       5.139   5.285  16.144  0.00  0.00    +0.000 A 
ATOM     27  C   UNL     1       6.247   4.880  15.415  0.00  0.00    +0.000 A 
ATOM     28  F   UNL     1       6.178   4.838  14.078  0.00  0.00    +0.000 F 
ATOM     29  C   UNL     1       7.422   4.513  16.054  0.00  0.00    +0.000 A 
ATOM     30  C   UNL     1       7.500   4.606  17.446  0.00  0.00    +0.000 A 
ATOM     31  C   UNL     1       6.373   4.986  18.179  0.00  0.00    +0.000 A 
ATOM     32  F   UNL     1       6.452   5.024  19.516  0.00  0.00    +0.000 F 
ENDBRANCH  23  25
ENDBRANCH  20  21
BRANCH  20  34
ATOM     33  C   UNL     1       1.269   3.053  20.996  0.00  0.00    +0.000 C 
ATOM     34  C   UNL     1       1.176   3.397  19.522  0.00  0.00    +0.000 C 
ENDBRANCH  20  34
ENDBRANCH  19  20
ENDBRANCH   1  19
TORSDOF 7
ENDMDL
MODEL 3
REMARK VINA RESULT:      -8.0      4.398     11.169
REMARK  Name = 
REMARK  9 active torsions:
REMARK  status: ('A' for Active; 'I' for Inactive)
REMARK    1  A    between atoms: C_1  and  C_2
REMARK    2  A    between atoms: C_2  and  C_3
REMARK    3  A    between atoms: C_3  and  S_4
REMARK    4  A    between atoms: C_3  and  C_23
REMARK    5  A    between atoms: S_4  and  C_5
REMARK    6  A    between atoms: N_11  and  C_12
REMARK    7  A    between atoms: C_16  and  O_17
REMARK    8  A    between atoms: O_17  and  C_18
REMARK    9  A    between atoms: N_25  and  C_26
REMARK                            x       y       z     vdW  Elec       q    Type
REMARK                         _______ _______ _______ _____ _____    ______ ____
ROOT
ATOM      1  C   UNL     1       0.002  10.847  20.830  0.00  0.00    +0.000 A 
ATOM      2  N   UNL     1      -0.002  11.719  19.845  0.00  0.00    +0.000 NA
ATOM      3  N   UNL     1       0.595  11.121  18.744  0.00  0.00    +0.000 NA
ATOM      4  C   UNL     1       0.981   9.918  19.109  0.00  0.00    +0.000 A 
ATOM      5  C   UNL     1       1.760   8.947  18.341  0.00  0.00    +0.000 A 
ATOM      6  O   UNL     1       2.100   9.126  17.174  0.00  0.00    +0.000 OA
ATOM      7  N   UNL     1       2.076   7.758  19.078  0.00  0.00    +0.000 N 
ATOM      8  C   UNL     1       1.659   7.573  20.398  0.00  0.00    +0.000 A 
ATOM      9  C   UNL     1       0.928   8.505  21.055  0.00  0.00    +0.000 A 
ATOM     10  N   UNL     1       0.609   9.682  20.409  0.00  0.00    +0.000 N 
ENDROOT
BRANCH   7  11
ATOM     11  C   UNL     1       2.777   6.692  18.430  0.00  0.00    +0.000 A 
ATOM     12  C   UNL     1       4.101   6.824  18.003  0.00  0.00    +0.000 A 
ATOM     13  C   UNL     1       4.778   5.712  17.493  0.00  0.00    +0.000 A 
ATOM     14  C   UNL     1       4.106   4.500  17.307  0.00  0.00    +0.000 A 
ATOM     15  C   UNL     1       2.758   4.390  17.645  0.00  0.00    +0.000 A 
ATOM     16  C   UNL     1       2.122   5.460  18.269  0.00  0.00    +0.000 A 
BRANCH  15  17
ATOM     17  O   UNL     1       2.160   3.195  17.339  0.00  0.00    +0.000 OA
ATOM     18  C   UNL     1       2.849   2.034  17.799  0.00  0.00    +0.000 C 
ENDBRANCH  15  17
ENDBRANCH   7  11
BRANCH   1  19
ATOM     19  S   UNL     1      -0.523  11.127  22.465  0.00  0.00    +0.000 S 
BRANCH  19  20
ATOM     20  C   UNL     1      -1.459  12.708  22.353  0.00  0.00    +0.000 C 
BRANCH  20  21
ATOM     21  C   UNL     1      -2.934  12.469  22.681  0.00  0.00    +0.000 C 
ATOM     22  O   UNL     1      -3.219  11.700  23.595  0.00  0.00    +0.000 OA
ATOM     23  N   UNL     1      -3.883  13.144  21.927  0.00  0.00    +0.000 N 
ATOM     24  H   UNL     1      -3.623  13.395  20.979  0.00  0.00    +0.000 HD
BRANCH  23  25
ATOM     25  C   UNL     1      -5.274  12.964  22.173  0.00  0.00    +0.000 A 
ATOM     26  C   UNL     1      -5.885  13.430  23.343  0.00  0.00    +0.000 A 
ATOM     27  C   UNL     1      -7.175  13.041  23.672  0.00  0.00    +0.000 A 
ATOM     28  F   UNL     1      -7.709  13.441  24.833  0.00  0.00    +0.000 F 
ATOM     29  C   UNL     1      -7.915  12.238  22.816  0.00  0.00    +0.000 A 
ATOM     30  C   UNL     1      -7.367  11.865  21.585  0.00  0.00    +0.000 A 
ATOM     31  C   UNL     1      -6.057  12.235  21.271  0.00  0.00    +0.000 A 
ATOM     32  F   UNL     1      -5.532  11.829  20.106  0.00  0.00    +0.000 F 
ENDBRANCH  23  25
ENDBRANCH  20  21
BRANCH  20  34
ATOM     33  C   UNL     1      -1.370  15.229  23.116  0.00  0.00    +0.000 C 
ATOM     34  C   UNL     1      -0.958  13.789  23.355  0.00  0.00    +0.000 C 
ENDBRANCH  20  34
ENDBRANCH  19  20
ENDBRANCH   1  19
TORSDOF 7
ENDMDL
MODEL 4
REMARK VINA RESULT:      -7.9      2.300      4.261
REMARK  Name = 
REMARK  9 active torsions:
REMARK  status: ('A' for Active; 'I' for Inactive)
REMARK    1  A    between atoms: C_1  and  C_2
REMARK    2  A    between atoms: C_2  and  C_3
REMARK    3  A    between atoms: C_3  and  S_4
REMARK    4  A    between atoms: C_3  and  C_23
REMARK    5  A    between atoms: S_4  and  C_5
REMARK    6  A    between atoms: N_11  and  C_12
REMARK    7  A    between atoms: C_16  and  O_17
REMARK    8  A    between atoms: O_17  and  C_18
REMARK    9  A    between atoms: N_25  and  C_26
REMARK                            x       y       z     vdW  Elec       q    Type
REMARK                         _______ _______ _______ _____ _____    ______ ____
ROOT
ATOM      1  C   UNL     1       1.489   8.664  19.512  0.00  0.00    +0.000 A 
ATOM      2  N   UNL     1       1.878   7.856  20.475  0.00  0.00    +0.000 NA
ATOM      3  N   UNL     1       1.318   8.306  21.662  0.00  0.00    +0.000 NA
ATOM      4  C   UNL     1       0.639   9.400  21.389  0.00  0.00    +0.000 A 
ATOM      5  C   UNL     1      -0.030  10.305  22.322  0.00  0.00    +0.000 A 
ATOM      6  O   UNL     1      -0.102  10.097  23.531  0.00  0.00    +0.000 OA
ATOM      7  N   UNL     1      -0.610  11.453  21.686  0.00  0.00    +0.000 N 
ATOM      8  C   UNL     1      -0.530  11.654  20.306  0.00  0.00    +0.000 A 
ATOM      9  C   UNL     1       0.095  10.772  19.490  0.00  0.00    +0.000 A 
ATOM     10  N   UNL     1       0.692   9.658  20.041  0.00  0.00    +0.000 N 
ENDROOT
BRANCH   7  11
ATOM     11  C   UNL     1      -1.355  12.390  22.469  0.00  0.00    +0.000 A 
ATOM     12  C   UNL     1      -2.644  12.113  22.933  0.00  0.00    +0.000 A 
ATOM     13  C   UNL     1      -3.276  13.010  23.800  0.00  0.00    +0.000 A 
ATOM     14  C   UNL     1      -2.671  14.230  24.118  0.00  0.00    +0.000 A 
ATOM     15  C   UNL     1      -1.424  14.552  23.583  0.00  0.00    +0.000 A 
ATOM     16  C   UNL     1      -0.744  13.604  22.822  0.00  0.00    +0.000 A 
BRANCH  15  17
ATOM     17  O   UNL     1      -0.955  15.807  23.873  0.00  0.00    +0.000 OA
ATOM     18  C   UNL     1       0.201  16.208  23.138  0.00  0.00    +0.000 C 
ENDBRANCH  15  17
ENDBRANCH   7  11
BRANCH   1  19
ATOM     19  S   UNL     1       1.999   8.616  17.850  0.00  0.00    +0.000 S 
BRANCH  19  20
ATOM     20  C   UNL     1       3.572   7.663  17.908  0.00  0.00    +0.000 C 
BRANCH  20  21
ATOM     21  C   UNL     1       3.320   6.271  18.493  0.00  0.00    +0.000 C 
ATOM     22  O   UNL     1       4.159   5.787  19.247  0.00  0.00    +0.000 OA
ATOM     23  N   UNL     1       2.143   5.625  18.143  0.00  0.00    +0.000 N 
ATOM     24  H   UNL     1       1.738   5.862  17.243  0.00  0.00    +0.000 HD
BRANCH  23  25
ATOM     25  C   UNL     1       1.847   4.325  18.644  0.00  0.00    +0.000 A 
ATOM     26  C   UNL     1       1.323   4.128  19.927  0.00  0.00    +0.000 A 
ATOM     27  C   UNL     1       1.266   2.858  20.481  0.00  0.00    +0.000 A 
ATOM     28  F   UNL     1       0.830   2.706  21.738  0.00  0.00    +0.000 F 
ATOM     29  C   UNL     1       1.663   1.746  19.753  0.00  0.00    +0.000 A 
ATOM     30  C   UNL     1       2.071   1.909  18.426  0.00  0.00    +0.000 A 
ATOM     31  C   UNL     1       2.155   3.192  17.880  0.00  0.00    +0.000 A 
ATOM     32  F   UNL     1       2.594   3.334  16.622  0.00  0.00    +0.000 F 
ENDBRANCH  23  25
ENDBRANCH  20  21
BRANCH  20  34
ATOM     33  C   UNL     1       5.352   6.452  16.387  0.00  0.00    +0.000 C 
ATOM     34  C   UNL     1       4.205   7.437  16.503  0.00  0.00    +0.000 C 
ENDBRANCH  20  34
ENDBRANCH  19  20
ENDBRANCH   1  19
TORSDOF 7
ENDMDL
MODEL 5
REMARK VINA RESULT:      -7.9      0.952      1.621
REMARK  Name = 
REMARK  9 active torsions:
REMARK  status: ('A' for Active; 'I' for Inactive)
REMARK    1  A    between atoms: C_1  and  C_2
REMARK    2  A    between atoms: C_2  and  C_3
REMARK    3  A    between atoms: C_3  and  S_4
REMARK    4  A    between atoms: C_3  and  C_23
REMARK    5  A    between atoms: S_4  and  C_5
REMARK    6  A    between atoms: N_11  and  C_12
REMARK    7  A    between atoms: C_16  and  O_17
REMARK    8  A    between atoms: O_17  and  C_18
REMARK    9  A    between atoms: N_25  and  C_26
REMARK                            x       y       z     vdW  Elec       q    Type
REMARK                         _______ _______ _______ _____ _____    ______ ____
ROOT
ATOM      1  C   UNL     1       1.720   7.880  20.176  0.00  0.00    +0.000 A 
ATOM      2  N   UNL     1       1.818   8.319  18.940  0.00  0.00    +0.000 NA
ATOM      3  N   UNL     1       1.252   9.585  18.890  0.00  0.00    +0.000 NA
ATOM      4  C   UNL     1       0.789   9.858  20.092  0.00  0.00    +0.000 A 
ATOM      5  C   UNL     1       0.006  11.017  20.517  0.00  0.00    +0.000 A 
ATOM      6  O   UNL     1      -0.263  11.959  19.775  0.00  0.00    +0.000 OA
ATOM      7  N   UNL     1      -0.405  10.956  21.890  0.00  0.00    +0.000 N 
ATOM      8  C   UNL     1      -0.068   9.881  22.715  0.00  0.00    +0.000 A 
ATOM      9  C   UNL     1       0.672   8.838  22.267  0.00  0.00    +0.000 A 
ATOM     10  N   UNL     1       1.081   8.826  20.950  0.00  0.00    +0.000 N 
ENDROOT
BRANCH   7  11
ATOM     11  C   UNL     1      -1.121  12.055  22.461  0.00  0.00    +0.000 A 
ATOM     12  C   UNL     1      -2.415  11.915  22.972  0.00  0.00    +0.000 A 
ATOM     13  C   UNL     1      -3.018  12.989  23.634  0.00  0.00    +0.000 A 
ATOM     14  C   UNL     1      -2.378  14.231  23.692  0.00  0.00    +0.000 A 
ATOM     15  C   UNL     1      -1.126  14.401  23.102  0.00  0.00    +0.000 A 
ATOM     16  C   UNL     1      -0.476  13.299  22.555  0.00  0.00    +0.000 A 
BRANCH  15  17
ATOM     17  O   UNL     1      -0.622  15.676  23.126  0.00  0.00    +0.000 OA
ATOM     18  C   UNL     1       0.612  15.853  22.432  0.00  0.00    +0.000 C 
ENDBRANCH  15  17
ENDBRANCH   7  11
BRANCH   1  19
ATOM     19  S   UNL     1       2.171   6.303  20.755  0.00  0.00    +0.000 S 
BRANCH  19  20
ATOM     20  C   UNL     1       1.678   5.182  19.381  0.00  0.00    +0.000 C 
BRANCH  20  21
ATOM     21  C   UNL     1       2.894   4.851  18.512  0.00  0.00    +0.000 C 
ATOM     22  O   UNL     1       2.906   3.792  17.891  0.00  0.00    +0.000 OA
ATOM     23  N   UNL     1       3.927   5.777  18.465  0.00  0.00    +0.000 N 
ATOM     24  H   UNL     1       4.049   6.372  19.278  0.00  0.00    +0.000 HD
BRANCH  23  25
ATOM     25  C   UNL     1       5.092   5.531  17.682  0.00  0.00    +0.000 A 
ATOM     26  C   UNL     1       5.072   5.597  16.284  0.00  0.00    +0.000 A 
ATOM     27  C   UNL     1       6.141   5.127  15.538  0.00  0.00    +0.000 A 
ATOM     28  F   UNL     1       6.066   5.133  14.201  0.00  0.00    +0.000 F 
ATOM     29  C   UNL     1       7.284   4.644  16.159  0.00  0.00    +0.000 A 
ATOM     30  C   UNL     1       7.373   4.687  17.554  0.00  0.00    +0.000 A 
ATOM     31  C   UNL     1       6.282   5.134  18.303  0.00  0.00    +0.000 A 
ATOM     32  F   UNL     1       6.367   5.123  19.641  0.00  0.00    +0.000 F 
ENDBRANCH  23  25
ENDBRANCH  20  21
BRANCH  20  34
ATOM     33  C   UNL     1       1.560   3.309  21.231  0.00  0.00    +0.000 C 
ATOM     34  C   UNL     1       1.112   3.818  19.875  0.00  0.00    +0.000 C 
ENDBRANCH  20  34
ENDBRANCH  19  20
ENDBRANCH   1  19
TORSDOF 7
ENDMDL
MODEL 6
REMARK VINA RESULT:      -7.9      2.073      3.857
REMARK  Name = 
REMARK  9 active torsions:
REMARK  status: ('A' for Active; 'I' for Inactive)
REMARK    1  A    between atoms: C_1  and  C_2
REMARK    2  A    between atoms: C_2  and  C_3
REMARK    3  A    between atoms: C_3  and  S_4
REMARK    4  A    between atoms: C_3  and  C_23
REMARK    5  A    between atoms: S_4  and  C_5
REMARK    6  A    between atoms: N_11  and  C_12
REMARK    7  A    between atoms: C_16  and  O_17
REMARK    8  A    between atoms: O_17  and  C_18
REMARK    9  A    between atoms: N_25  and  C_26
REMARK                            x       y       z     vdW  Elec       q    Type
REMARK                         _______ _______ _______ _____ _____    ______ ____
ROOT
ATOM      1  C   UNL     1       1.348   8.781  19.680  0.00  0.00    +0.000 A 
ATOM      2  N   UNL     1       1.780   7.972  20.623  0.00  0.00    +0.000 NA
ATOM      3  N   UNL     1       1.243   8.397  21.830  0.00  0.00    +0.000 NA
ATOM      4  C   UNL     1       0.534   9.478  21.587  0.00  0.00    +0.000 A 
ATOM      5  C   UNL     1      -0.128  10.359  22.548  0.00  0.00    +0.000 A 
ATOM      6  O   UNL     1      -0.163  10.137  23.756  0.00  0.00    +0.000 OA
ATOM      7  N   UNL     1      -0.749  11.501  21.942  0.00  0.00    +0.000 N 
ATOM      8  C   UNL     1      -0.712  11.718  20.562  0.00  0.00    +0.000 A 
ATOM      9  C   UNL     1      -0.091  10.859  19.719  0.00  0.00    +0.000 A 
ATOM     10  N   UNL     1       0.545   9.752  20.241  0.00  0.00    +0.000 N 
ENDROOT
BRANCH   7  11
ATOM     11  C   UNL     1      -1.493  12.414  22.755  0.00  0.00    +0.000 A 
ATOM     12  C   UNL     1      -0.960  13.633  23.182  0.00  0.00    +0.000 A 
ATOM     13  C   UNL     1      -1.773  14.543  23.865  0.00  0.00    +0.000 A 
ATOM     14  C   UNL     1      -3.082  14.194  24.217  0.00  0.00    +0.000 A 
ATOM     15  C   UNL     1      -3.587  12.942  23.874  0.00  0.00    +0.000 A 
ATOM     16  C   UNL     1      -2.819  12.089  23.085  0.00  0.00    +0.000 A 
BRANCH  15  17
ATOM     17  O   UNL     1      -4.842  12.654  24.344  0.00  0.00    +0.000 OA
ATOM     18  C   UNL     1      -5.911  12.943  23.443  0.00  0.00    +0.000 C 
ENDBRANCH  15  17
ENDBRANCH   7  11
BRANCH   1  19
ATOM     19  S   UNL     1       1.813   8.762  18.004  0.00  0.00    +0.000 S 
BRANCH  19  20
ATOM     20  C   UNL     1       3.322   7.709  17.987  0.00  0.00    +0.000 C 
BRANCH  20  21
ATOM     21  C   UNL     1       2.975   6.287  18.432  0.00  0.00    +0.000 C 
ATOM     22  O   UNL     1       2.179   5.635  17.761  0.00  0.00    +0.000 OA
ATOM     23  N   UNL     1       3.587   5.799  19.578  0.00  0.00    +0.000 N 
ATOM     24  H   UNL     1       3.864   6.481  20.277  0.00  0.00    +0.000 HD
BRANCH  23  25
ATOM     25  C   UNL     1       3.304   4.487  20.055  0.00  0.00    +0.000 A 
ATOM     26  C   UNL     1       2.200   4.218  20.872  0.00  0.00    +0.000 A 
ATOM     27  C   UNL     1       2.076   2.997  21.515  0.00  0.00    +0.000 A 
ATOM     28  F   UNL     1       1.049   2.792  22.350  0.00  0.00    +0.000 F 
ATOM     29  C   UNL     1       3.006   1.988  21.311  0.00  0.00    +0.000 A 
ATOM     30  C   UNL     1       4.048   2.193  20.401  0.00  0.00    +0.000 A 
ATOM     31  C   UNL     1       4.186   3.436  19.777  0.00  0.00    +0.000 A 
ATOM     32  F   UNL     1       5.218   3.630  18.944  0.00  0.00    +0.000 F 
ENDBRANCH  23  25
ENDBRANCH  20  21
BRANCH  20  34
ATOM     33  C   UNL     1       5.091   6.581  16.391  0.00  0.00    +0.000 C 
ATOM     34  C   UNL     1       3.963   7.578  16.573  0.00  0.00    +0.000 C 
ENDBRANCH  20  34
ENDBRANCH  19  20
ENDBRANCH   1  19
TORSDOF 7
ENDMDL
MODEL 7
REMARK VINA RESULT:      -7.8      2.211      4.065
REMARK  Name = 
REMARK  9 active torsions:
REMARK  status: ('A' for Active; 'I' for Inactive)
REMARK    1  A    between atoms: C_1  and  C_2
REMARK    2  A    between atoms: C_2  and  C_3
REMARK    3  A    between atoms: C_3  and  S_4
REMARK    4  A    between atoms: C_3  and  C_23
REMARK    5  A    between atoms: S_4  and  C_5
REMARK    6  A    between atoms: N_11  and  C_12
REMARK    7  A    between atoms: C_16  and  O_17
REMARK    8  A    between atoms: O_17  and  C_18
REMARK    9  A    between atoms: N_25  and  C_26
REMARK                            x       y       z     vdW  Elec       q    Type
REMARK                         _______ _______ _______ _____ _____    ______ ____
ROOT
ATOM      1  C   UNL     1       1.543   8.652  19.449  0.00  0.00    +0.000 A 
ATOM      2  N   UNL     1       1.853   7.890  20.475  0.00  0.00    +0.000 NA
ATOM      3  N   UNL     1       1.247   8.424  21.603  0.00  0.00    +0.000 NA
ATOM      4  C   UNL     1       0.622   9.521  21.233  0.00  0.00    +0.000 A 
ATOM      5  C   UNL     1      -0.064  10.499  22.076  0.00  0.00    +0.000 A 
ATOM      6  O   UNL     1      -0.206  10.364  23.289  0.00  0.00    +0.000 OA
ATOM      7  N   UNL     1      -0.570  11.626  21.347  0.00  0.00    +0.000 N 
ATOM      8  C   UNL     1      -0.411  11.744  19.964  0.00  0.00    +0.000 A 
ATOM      9  C   UNL     1       0.225  10.798  19.233  0.00  0.00    +0.000 A 
ATOM     10  N   UNL     1       0.754   9.699  19.877  0.00  0.00    +0.000 N 
ENDROOT
BRANCH   7  11
ATOM     11  C   UNL     1      -1.322  12.630  22.035  0.00  0.00    +0.000 A 
ATOM     12  C   UNL     1      -0.710  13.628  22.798  0.00  0.00    +0.000 A 
ATOM     13  C   UNL     1      -1.483  14.657  23.342  0.00  0.00    +0.000 A 
ATOM     14  C   UNL     1      -2.876  14.635  23.218  0.00  0.00    +0.000 A 
ATOM     15  C   UNL     1      -3.500  13.592  22.535  0.00  0.00    +0.000 A 
ATOM     16  C   UNL     1      -2.720  12.637  21.889  0.00  0.00    +0.000 A 
BRANCH  15  17
ATOM     17  O   UNL     1      -4.871  13.604  22.548  0.00  0.00    +0.000 OA
ATOM     18  C   UNL     1      -5.495  12.734  21.605  0.00  0.00    +0.000 C 
ENDBRANCH  15  17
ENDBRANCH   7  11
BRANCH   1  19
ATOM     19  S   UNL     1       2.137   8.493  17.822  0.00  0.00    +0.000 S 
BRANCH  19  20
ATOM     20  C   UNL     1       3.696   7.535  18.024  0.00  0.00    +0.000 C 
BRANCH  20  21
ATOM     21  C   UNL     1       3.392   6.155  18.608  0.00  0.00    +0.000 C 
ATOM     22  O   UNL     1       4.210   5.640  19.366  0.00  0.00    +0.000 OA
ATOM     23  N   UNL     1       2.193   5.551  18.254  0.00  0.00    +0.000 N 
ATOM     24  H   UNL     1       1.800   5.803  17.353  0.00  0.00    +0.000 HD
BRANCH  23  25
ATOM     25  C   UNL     1       1.848   4.263  18.755  0.00  0.00    +0.000 A 
ATOM     26  C   UNL     1       1.349   4.082  20.050  0.00  0.00    +0.000 A 
ATOM     27  C   UNL     1       1.245   2.813  20.597  0.00  0.00    +0.000 A 
ATOM     28  F   UNL     1       0.835   2.672  21.865  0.00  0.00    +0.000 F 
ATOM     29  C   UNL     1       1.568   1.688  19.852  0.00  0.00    +0.000 A 
ATOM     30  C   UNL     1       1.949   1.841  18.515  0.00  0.00    +0.000 A 
ATOM     31  C   UNL     1       2.080   3.123  17.976  0.00  0.00    +0.000 A 
ATOM     32  F   UNL     1       2.493   3.253  16.707  0.00  0.00    +0.000 F 
ENDBRANCH  23  25
ENDBRANCH  20  21
BRANCH  20  34
ATOM     33  C   UNL     1       5.884   6.825  16.737  0.00  0.00    +0.000 C 
ATOM     34  C   UNL     1       4.440   7.285  16.679  0.00  0.00    +0.000 C 
ENDBRANCH  20  34
ENDBRANCH  19  20
ENDBRANCH   1  19
TORSDOF 7
ENDMDL
MODEL 8
REMARK VINA RESULT:      -7.8      1.444      1.883
REMARK  Name = 
REMARK  9 active torsions:
REMARK  status: ('A' for Active; 'I' for Inactive)
REMARK    1  A    between atoms: C_1  and  C_2
REMARK    2  A    between atoms: C_2  and  C_3
REMARK    3  A    between atoms: C_3  and  S_4
REMARK    4  A    between atoms: C_3  and  C_23
REMARK    5  A    between atoms: S_4  and  C_5
REMARK    6  A    between atoms: N_11  and  C_12
REMARK    7  A    between atoms: C_16  and  O_17
REMARK    8  A    between atoms: O_17  and  C_18
REMARK    9  A    between atoms: N_25  and  C_26
REMARK                            x       y       z     vdW  Elec       q    Type
REMARK                         _______ _______ _______ _____ _____    ______ ____
ROOT
ATOM      1  C   UNL     1       1.658   7.484  20.224  0.00  0.00    +0.000 A 
ATOM      2  N   UNL     1       2.044   7.832  19.015  0.00  0.00    +0.000 NA
ATOM      3  N   UNL     1       1.626   9.136  18.792  0.00  0.00    +0.000 NA
ATOM      4  C   UNL     1       0.962   9.525  19.859  0.00  0.00    +0.000 A 
ATOM      5  C   UNL     1       0.226  10.773  20.060  0.00  0.00    +0.000 A 
ATOM      6  O   UNL     1       0.205  11.685  19.237  0.00  0.00    +0.000 OA
ATOM      7  N   UNL     1      -0.455  10.837  21.321  0.00  0.00    +0.000 N 
ATOM      8  C   UNL     1      -0.397   9.793  22.247  0.00  0.00    +0.000 A 
ATOM      9  C   UNL     1       0.312   8.663  22.008  0.00  0.00    +0.000 A 
ATOM     10  N   UNL     1       0.973   8.530  20.805  0.00  0.00    +0.000 N 
ENDROOT
BRANCH   7  11
ATOM     11  C   UNL     1      -1.160  12.028  21.682  0.00  0.00    +0.000 A 
ATOM     12  C   UNL     1      -2.294  12.461  20.988  0.00  0.00    +0.000 A 
ATOM     13  C   UNL     1      -3.018  13.560  21.461  0.00  0.00    +0.000 A 
ATOM     14  C   UNL     1      -2.554  14.291  22.560  0.00  0.00    +0.000 A 
ATOM     15  C   UNL     1      -1.373  13.918  23.199  0.00  0.00    +0.000 A 
ATOM     16  C   UNL     1      -0.723  12.752  22.803  0.00  0.00    +0.000 A 
BRANCH  15  17
ATOM     17  O   UNL     1      -0.947  14.750  24.202  0.00  0.00    +0.000 OA
ATOM     18  C   UNL     1      -1.906  15.708  24.646  0.00  0.00    +0.000 C 
ENDBRANCH  15  17
ENDBRANCH   7  11
BRANCH   1  19
ATOM     19  S   UNL     1       1.828   5.914  20.954  0.00  0.00    +0.000 S 
BRANCH  19  20
ATOM     20  C   UNL     1       1.776   4.763  19.520  0.00  0.00    +0.000 C 
BRANCH  20  21
ATOM     21  C   UNL     1       3.179   4.589  18.935  0.00  0.00    +0.000 C 
ATOM     22  O   UNL     1       3.921   3.741  19.421  0.00  0.00    +0.000 OA
ATOM     23  N   UNL     1       3.542   5.403  17.871  0.00  0.00    +0.000 N 
ATOM     24  H   UNL     1       3.091   6.310  17.811  0.00  0.00    +0.000 HD
BRANCH  23  25
ATOM     25  C   UNL     1       4.835   5.301  17.282  0.00  0.00    +0.000 A 
ATOM     26  C   UNL     1       5.872   6.180  17.617  0.00  0.00    +0.000 A 
ATOM     27  C   UNL     1       7.038   6.217  16.868  0.00  0.00    +0.000 A 
ATOM     28  F   UNL     1       7.984   7.118  17.164  0.00  0.00    +0.000 F 
ATOM     29  C   UNL     1       7.234   5.338  15.813  0.00  0.00    +0.000 A 
ATOM     30  C   UNL     1       6.263   4.369  15.542  0.00  0.00    +0.000 A 
ATOM     31  C   UNL     1       5.076   4.354  16.280  0.00  0.00    +0.000 A 
ATOM     32  F   UNL     1       4.136   3.449  15.975  0.00  0.00    +0.000 F 
ENDBRANCH  23  25
ENDBRANCH  20  21
BRANCH  20  34
ATOM     33  C   UNL     1       0.761   2.444  18.787  0.00  0.00    +0.000 C 
ATOM     34  C   UNL     1       1.281   3.335  19.897  0.00  0.00    +0.000 C 
ENDBRANCH  20  34
ENDBRANCH  19  20
ENDBRANCH   1  19
TORSDOF 7
ENDMDL
MODEL 9
REMARK VINA RESULT:      -7.7      4.184      9.774
REMARK  Name = 
REMARK  9 active torsions:
REMARK  status: ('A' for Active; 'I' for Inactive)
REMARK    1  A    between atoms: C_1  and  C_2
REMARK    2  A    between atoms: C_2  and  C_3
REMARK    3  A    between atoms: C_3  and  S_4
REMARK    4  A    between atoms: C_3  and  C_23
REMARK    5  A    between atoms: S_4  and  C_5
REMARK    6  A    between atoms: N_11  and  C_12
REMARK    7  A    between atoms: C_16  and  O_17
REMARK    8  A    between atoms: O_17  and  C_18
REMARK    9  A    between atoms: N_25  and  C_26
REMARK                            x       y       z     vdW  Elec       q    Type
REMARK                         _______ _______ _______ _____ _____    ______ ____
ROOT
ATOM      1  C   UNL     1       0.472   9.769  20.512  0.00  0.00    +0.000 A 
ATOM      2  N   UNL     1       0.368   9.156  21.672  0.00  0.00    +0.000 NA
ATOM      3  N   UNL     1       1.108   7.984  21.604  0.00  0.00    +0.000 NA
ATOM      4  C   UNL     1       1.606   7.901  20.390  0.00  0.00    +0.000 A 
ATOM      5  C   UNL     1       2.356   6.797  19.794  0.00  0.00    +0.000 A 
ATOM      6  O   UNL     1       2.690   5.792  20.418  0.00  0.00    +0.000 OA
ATOM      7  N   UNL     1       2.679   7.006  18.412  0.00  0.00    +0.000 N 
ATOM      8  C   UNL     1       2.304   8.167  17.732  0.00  0.00    +0.000 A 
ATOM      9  C   UNL     1       1.618   9.163  18.342  0.00  0.00    +0.000 A 
ATOM     10  N   UNL     1       1.258   9.015  19.665  0.00  0.00    +0.000 N 
ENDROOT
BRANCH   7  11
ATOM     11  C   UNL     1       3.470   6.036  17.719  0.00  0.00    +0.000 A 
ATOM     12  C   UNL     1       3.119   4.684  17.673  0.00  0.00    +0.000 A 
ATOM     13  C   UNL     1       3.856   3.803  16.876  0.00  0.00    +0.000 A 
ATOM     14  C   UNL     1       5.004   4.245  16.210  0.00  0.00    +0.000 A 
ATOM     15  C   UNL     1       5.411   5.573  16.327  0.00  0.00    +0.000 A 
ATOM     16  C   UNL     1       4.606   6.475  17.019  0.00  0.00    +0.000 A 
BRANCH  15  17
ATOM     17  O   UNL     1       6.598   5.890  15.720  0.00  0.00    +0.000 OA
ATOM     18  C   UNL     1       7.051   4.954  14.743  0.00  0.00    +0.000 C 
ENDBRANCH  15  17
ENDBRANCH   7  11
BRANCH   1  19
ATOM     19  S   UNL     1      -0.354  11.220  20.028  0.00  0.00    +0.000 S 
BRANCH  19  20
ATOM     20  C   UNL     1       0.130  12.442  21.315  0.00  0.00    +0.000 C 
BRANCH  20  21
ATOM     21  C   UNL     1       1.191  13.396  20.762  0.00  0.00    +0.000 C 
ATOM     22  O   UNL     1       1.982  13.917  21.543  0.00  0.00    +0.000 OA
ATOM     23  N   UNL     1       1.209  13.619  19.392  0.00  0.00    +0.000 N 
ATOM     24  H   UNL     1       0.328  13.522  18.899  0.00  0.00    +0.000 HD
BRANCH  23  25
ATOM     25  C   UNL     1       2.164  14.500  18.809  0.00  0.00    +0.000 A 
ATOM     26  C   UNL     1       3.398  14.043  18.332  0.00  0.00    +0.000 A 
ATOM     27  C   UNL     1       4.401  14.937  17.990  0.00  0.00    +0.000 A 
ATOM     28  F   UNL     1       5.597  14.473  17.607  0.00  0.00    +0.000 F 
ATOM     29  C   UNL     1       4.182  16.306  18.047  0.00  0.00    +0.000 A 
ATOM     30  C   UNL     1       2.916  16.781  18.401  0.00  0.00    +0.000 A 
ATOM     31  C   UNL     1       1.917  15.878  18.773  0.00  0.00    +0.000 A 
ATOM     32  F   UNL     1       0.723  16.353  19.155  0.00  0.00    +0.000 F 
ENDBRANCH  23  25
ENDBRANCH  20  21
BRANCH  20  34
ATOM     33  C   UNL     1      -1.375  13.371  23.270  0.00  0.00    +0.000 C 
ATOM     34  C   UNL     1      -1.055  13.336  21.789  0.00  0.00    +0.000 C 
ENDBRANCH  20  34
ENDBRANCH  19  20
ENDBRANCH   1  19
TORSDOF 7
ENDMDL
