MODEL 1
REMARK VINA RESULT:      -8.4      0.000      0.000
REMARK  Name = 
REMARK  9 active torsions:
REMARK  status: ('A' for Active; 'I' for Inactive)
REMARK    1  A    between atoms: C_1  and  C_2
REMARK    2  A    between atoms: C_2  and  N_3
REMARK    3  A    between atoms: C_7  and  S_8
REMARK    4  A    between atoms: S_8  and  C_9
REMARK    5  A    between atoms: C_9  and  C_10
REMARK    6  A    between atoms: N_12  and  C_13
REMARK    7  A    between atoms: C_13  and  C_14
REMARK    8  A    between atoms: C_14  and  C_15
REMARK    9  A    between atoms: C_19  and  C_20
REMARK                            x       y       z     vdW  Elec       q    Type
REMARK                         _______ _______ _______ _____ _____    ______ ____
ROOT
ATOM      1  S   UNL     1       6.876   5.085  17.563  0.00  0.00    +0.000 S 
ENDROOT
BRANCH   1   6
ATOM      2  N   UNL     1       2.998   4.336  19.886  0.00  0.00    +0.000 N 
ATOM      3  C   UNL     1       4.006   3.381  19.909  0.00  0.00    +0.000 A 
ATOM      4  O   UNL     1       3.939   2.319  20.531  0.00  0.00    +0.000 OA
ATOM      5  C   UNL     1       5.244   3.665  19.161  0.00  0.00    +0.000 A 
ATOM      6  C   UNL     1       5.421   4.807  18.473  0.00  0.00    +0.000 A 
ATOM      7  C   UNL     1       4.308   5.781  18.392  0.00  0.00    +0.000 A 
ATOM      8  C   UNL     1       4.371   6.942  17.593  0.00  0.00    +0.000 A 
ATOM      9  C   UNL     1       3.316   7.853  17.531  0.00  0.00    +0.000 A 
ATOM     10  C   UNL     1       2.186   7.643  18.302  0.00  0.00    +0.000 A 
ATOM     11  C   UNL     1       2.102   6.510  19.114  0.00  0.00    +0.000 A 
ATOM     12  C   UNL     1       3.132   5.549  19.139  0.00  0.00    +0.000 A 
BRANCH   2  14
ATOM     13  C   UNL     1       0.791   3.220  19.883  0.00  0.00    +0.000 C 
ATOM     14  C   UNL     1       1.795   4.052  20.669  0.00  0.00    +0.000 C 
ENDBRANCH   2  14
ENDBRANCH   1   6
BRANCH   1  15
ATOM     15  C   UNL     1       7.914   6.120  18.649  0.00  0.00    +0.000 C 
BRANCH  15  16
ATOM     16  C   UNL     1       8.010   7.536  18.067  0.00  0.00    +0.000 C 
ATOM     17  O   UNL     1       7.525   7.866  16.991  0.00  0.00    +0.000 OA
ATOM     18  N   UNL     1       8.652   8.460  18.885  0.00  0.00    +0.000 N 
ATOM     19  H   UNL     1       9.208   8.156  19.675  0.00  0.00    +0.000 HD
BRANCH  18  20
ATOM     20  C   UNL     1       8.817   9.812  18.373  0.00  0.00    +0.000 C 
BRANCH  20  21
ATOM     21  C   UNL     1       9.739  10.718  19.193  0.00  0.00    +0.000 C 
BRANCH  21  22
ATOM     22  C   UNL     1      10.220  11.946  18.452  0.00  0.00    +0.000 A 
ATOM     23  C   UNL     1      11.440  11.974  17.760  0.00  0.00    +0.000 A 
ATOM     24  C   UNL     1      11.870  13.145  17.129  0.00  0.00    +0.000 A 
ATOM     25  C   UNL     1      11.093  14.301  17.190  0.00  0.00    +0.000 A 
ATOM     26  C   UNL     1       9.873  14.292  17.870  0.00  0.00    +0.000 A 
ATOM     27  C   UNL     1       9.051  15.542  17.980  0.00  0.00    +0.000 C 
ATOM     28  C   UNL     1       9.432  13.107  18.472  0.00  0.00    +0.000 A 
ENDBRANCH  21  22
ENDBRANCH  20  21
ENDBRANCH  18  20
ENDBRANCH  15  16
ENDBRANCH   1  15
TORSDOF 7
ENDMDL
MODEL 2
REMARK VINA RESULT:      -8.2      1.530      1.947
REMARK  Name = 
REMARK  9 active torsions:
REMARK  status: ('A' for Active; 'I' for Inactive)
REMARK    1  A    between atoms: C_1  and  C_2
REMARK    2  A    between atoms: C_2  and  N_3
REMARK    3  A    between atoms: C_7  and  S_8
REMARK    4  A    between atoms: S_8  and  C_9
REMARK    5  A    between atoms: C_9  and  C_10
REMARK    6  A    between atoms: N_12  and  C_13
REMARK    7  A    between atoms: C_13  and  C_14
REMARK    8  A    between atoms: C_14  and  C_15
REMARK    9  A    between atoms: C_19  and  C_20
REMARK                            x       y       z     vdW  Elec       q    Type
REMARK                         _______ _______ _______ _____ _____    ______ ____
ROOT
ATOM      1  S   UNL     1       5.421   5.377  15.803  0.00  0.00    +0.000 S 
ENDROOT
BRANCH   1   6
ATOM      2  N   UNL     1       3.094   4.267  19.590  0.00  0.00    +0.000 N 
ATOM      3  C   UNL     1       3.850   3.299  18.943  0.00  0.00    +0.000 A 
ATOM      4  O   UNL     1       3.953   2.132  19.324  0.00  0.00    +0.000 OA
ATOM      5  C   UNL     1       4.596   3.699  17.736  0.00  0.00    +0.000 A 
ATOM      6  C   UNL     1       4.566   4.956  17.257  0.00  0.00    +0.000 A 
ATOM      7  C   UNL     1       3.694   5.958  17.911  0.00  0.00    +0.000 A 
ATOM      8  C   UNL     1       3.515   7.259  17.399  0.00  0.00    +0.000 A 
ATOM      9  C   UNL     1       2.693   8.194  18.029  0.00  0.00    +0.000 A 
ATOM     10  C   UNL     1       2.061   7.858  19.214  0.00  0.00    +0.000 A 
ATOM     11  C   UNL     1       2.232   6.582  19.752  0.00  0.00    +0.000 A 
ATOM     12  C   UNL     1       3.008   5.607  19.095  0.00  0.00    +0.000 A 
BRANCH   2  14
ATOM     13  C   UNL     1       0.995   3.339  20.513  0.00  0.00    +0.000 C 
ATOM     14  C   UNL     1       2.395   3.859  20.809  0.00  0.00    +0.000 C 
ENDBRANCH   2  14
ENDBRANCH   1   6
BRANCH   1  15
ATOM     15  C   UNL     1       7.182   5.373  16.280  0.00  0.00    +0.000 C 
BRANCH  15  16
ATOM     16  C   UNL     1       7.418   6.419  17.376  0.00  0.00    +0.000 C 
ATOM     17  O   UNL     1       7.514   6.149  18.568  0.00  0.00    +0.000 OA
ATOM     18  N   UNL     1       7.573   7.722  16.914  0.00  0.00    +0.000 N 
ATOM     19  H   UNL     1       7.312   7.972  15.969  0.00  0.00    +0.000 HD
BRANCH  18  20
ATOM     20  C   UNL     1       7.754   8.771  17.907  0.00  0.00    +0.000 C 
BRANCH  20  21
ATOM     21  C   UNL     1       8.547   9.992  17.436  0.00  0.00    +0.000 C 
BRANCH  21  22
ATOM     22  C   UNL     1       8.967  10.926  18.550  0.00  0.00    +0.000 A 
ATOM     23  C   UNL     1       9.335  10.458  19.820  0.00  0.00    +0.000 A 
ATOM     24  C   UNL     1       9.671  11.358  20.836  0.00  0.00    +0.000 A 
ATOM     25  C   UNL     1       9.634  12.731  20.598  0.00  0.00    +0.000 A 
ATOM     26  C   UNL     1       9.275  13.216  19.339  0.00  0.00    +0.000 A 
ATOM     27  C   UNL     1       9.188  14.692  19.085  0.00  0.00    +0.000 C 
ATOM     28  C   UNL     1       8.972  12.309  18.315  0.00  0.00    +0.000 A 
ENDBRANCH  21  22
ENDBRANCH  20  21
ENDBRANCH  18  20
ENDBRANCH  15  16
ENDBRANCH   1  15
TORSDOF 7
ENDMDL
MODEL 3
REMARK VINA RESULT:      -8.2      1.521      1.906
REMARK  Name = 
REMARK  9 active torsions:
REMARK  status: ('A' for Active; 'I' for Inactive)
REMARK    1  A    between atoms: C_1  and  C_2
REMARK    2  A    between atoms: C_2  and  N_3
REMARK    3  A    between atoms: C_7  and  S_8
REMARK    4  A    between atoms: S_8  and  C_9
REMARK    5  A    between atoms: C_9  and  C_10
REMARK    6  A    between atoms: N_12  and  C_13
REMARK    7  A    between atoms: C_13  and  C_14
REMARK    8  A    between atoms: C_14  and  C_15
REMARK    9  A    between atoms: C_19  and  C_20
REMARK                            x       y       z     vdW  Elec       q    Type
REMARK                         _______ _______ _______ _____ _____    ______ ____
ROOT
ATOM      1  S   UNL     1       4.899   6.473  16.678  0.00  0.00    +0.000 S 
ENDROOT
BRANCH   1   6
ATOM      2  N   UNL     1       2.619   3.562  19.384  0.00  0.00    +0.000 N 
ATOM      3  C   UNL     1       3.428   3.065  18.372  0.00  0.00    +0.000 A 
ATOM      4  O   UNL     1       3.592   1.865  18.143  0.00  0.00    +0.000 OA
ATOM      5  C   UNL     1       4.157   4.033  17.532  0.00  0.00    +0.000 A 
ATOM      6  C   UNL     1       4.062   5.361  17.721  0.00  0.00    +0.000 A 
ATOM      7  C   UNL     1       3.135   5.880  18.752  0.00  0.00    +0.000 A 
ATOM      8  C   UNL     1       2.889   7.257  18.929  0.00  0.00    +0.000 A 
ATOM      9  C   UNL     1       2.015   7.731  19.908  0.00  0.00    +0.000 A 
ATOM     10  C   UNL     1       1.397   6.835  20.764  0.00  0.00    +0.000 A 
ATOM     11  C   UNL     1       1.634   5.466  20.622  0.00  0.00    +0.000 A 
ATOM     12  C   UNL     1       2.464   4.968  19.597  0.00  0.00    +0.000 A 
BRANCH   2  14
ATOM     13  C   UNL     1       2.634   2.412  21.575  0.00  0.00    +0.000 C 
ATOM     14  C   UNL     1       1.938   2.583  20.232  0.00  0.00    +0.000 C 
ENDBRANCH   2  14
ENDBRANCH   1   6
BRANCH   1  15
ATOM     15  C   UNL     1       6.649   5.964  16.764  0.00  0.00    +0.000 C 
BRANCH  15  16
ATOM     16  C   UNL     1       7.392   6.856  17.767  0.00  0.00    +0.000 C 
ATOM     17  O   UNL     1       7.734   6.487  18.884  0.00  0.00    +0.000 OA
ATOM     18  N   UNL     1       7.708   8.126  17.295  0.00  0.00    +0.000 N 
ATOM     19  H   UNL     1       7.271   8.492  16.459  0.00  0.00    +0.000 HD
BRANCH  18  20
ATOM     20  C   UNL     1       8.373   9.038  18.213  0.00  0.00    +0.000 C 
BRANCH  20  21
ATOM     21  C   UNL     1       8.196  10.527  17.903  0.00  0.00    +0.000 C 
BRANCH  21  22
ATOM     22  C   UNL     1       9.403  11.377  18.235  0.00  0.00    +0.000 A 
ATOM     23  C   UNL     1      10.459  10.901  19.025  0.00  0.00    +0.000 A 
ATOM     24  C   UNL     1      11.534  11.735  19.347  0.00  0.00    +0.000 A 
ATOM     25  C   UNL     1      11.560  13.054  18.894  0.00  0.00    +0.000 A 
ATOM     26  C   UNL     1      10.519  13.544  18.102  0.00  0.00    +0.000 A 
ATOM     27  C   UNL     1      10.515  14.973  17.646  0.00  0.00    +0.000 C 
ATOM     28  C   UNL     1       9.462  12.694  17.755  0.00  0.00    +0.000 A 
ENDBRANCH  21  22
ENDBRANCH  20  21
ENDBRANCH  18  20
ENDBRANCH  15  16
ENDBRANCH   1  15
TORSDOF 7
ENDMDL
MODEL 4
REMARK VINA RESULT:      -8.0      1.739      2.218
REMARK  Name = 
REMARK  9 active torsions:
REMARK  status: ('A' for Active; 'I' for Inactive)
REMARK    1  A    between atoms: C_1  and  C_2
REMARK    2  A    between atoms: C_2  and  N_3
REMARK    3  A    between atoms: C_7  and  S_8
REMARK    4  A    between atoms: S_8  and  C_9
REMARK    5  A    between atoms: C_9  and  C_10
REMARK    6  A    between atoms: N_12  and  C_13
REMARK    7  A    between atoms: C_13  and  C_14
REMARK    8  A    between atoms: C_14  and  C_15
REMARK    9  A    between atoms: C_19  and  C_20
REMARK                            x       y       z     vdW  Elec       q    Type
REMARK                         _______ _______ _______ _____ _____    ______ ____
ROOT
ATOM      1  S   UNL     1       5.151   4.202  16.010  0.00  0.00    +0.000 S 
ENDROOT
BRANCH   1   6
ATOM      2  N   UNL     1       2.177   3.612  19.445  0.00  0.00    +0.000 N 
ATOM      3  C   UNL     1       2.694   2.504  18.789  0.00  0.00    +0.000 A 
ATOM      4  O   UNL     1       2.413   1.338  19.073  0.00  0.00    +0.000 OA
ATOM      5  C   UNL     1       3.659   2.734  17.698  0.00  0.00    +0.000 A 
ATOM      6  C   UNL     1       4.048   3.969  17.333  0.00  0.00    +0.000 A 
ATOM      7  C   UNL     1       3.429   5.144  17.987  0.00  0.00    +0.000 A 
ATOM      8  C   UNL     1       3.692   6.468  17.578  0.00  0.00    +0.000 A 
ATOM      9  C   UNL     1       3.105   7.566  18.207  0.00  0.00    +0.000 A 
ATOM     10  C   UNL     1       2.269   7.364  19.292  0.00  0.00    +0.000 A 
ATOM     11  C   UNL     1       2.002   6.065  19.729  0.00  0.00    +0.000 A 
ATOM     12  C   UNL     1       2.537   4.944  19.065  0.00  0.00    +0.000 A 
BRANCH   2  14
ATOM     13  C   UNL     1       1.988   3.041  21.844  0.00  0.00    +0.000 C 
ATOM     14  C   UNL     1       1.253   3.360  20.550  0.00  0.00    +0.000 C 
ENDBRANCH   2  14
ENDBRANCH   1   6
BRANCH   1  15
ATOM     15  C   UNL     1       6.727   4.680  16.796  0.00  0.00    +0.000 C 
BRANCH  15  16
ATOM     16  C   UNL     1       6.887   6.204  16.736  0.00  0.00    +0.000 C 
ATOM     17  O   UNL     1       6.364   6.912  15.883  0.00  0.00    +0.000 OA
ATOM     18  N   UNL     1       7.640   6.753  17.769  0.00  0.00    +0.000 N 
ATOM     19  H   UNL     1       8.219   6.166  18.356  0.00  0.00    +0.000 HD
BRANCH  18  20
ATOM     20  C   UNL     1       7.869   8.190  17.746  0.00  0.00    +0.000 C 
BRANCH  20  21
ATOM     21  C   UNL     1       8.774   8.729  18.856  0.00  0.00    +0.000 C 
BRANCH  21  22
ATOM     22  C   UNL     1       8.947  10.232  18.839  0.00  0.00    +0.000 A 
ATOM     23  C   UNL     1       8.569  11.017  17.740  0.00  0.00    +0.000 A 
ATOM     24  C   UNL     1       8.790  12.397  17.746  0.00  0.00    +0.000 A 
ATOM     25  C   UNL     1       9.400  13.006  18.843  0.00  0.00    +0.000 A 
ATOM     26  C   UNL     1       9.779  12.242  19.948  0.00  0.00    +0.000 A 
ATOM     27  C   UNL     1      10.475  12.879  21.114  0.00  0.00    +0.000 C 
ATOM     28  C   UNL     1       9.524  10.865  19.951  0.00  0.00    +0.000 A 
ENDBRANCH  21  22
ENDBRANCH  20  21
ENDBRANCH  18  20
ENDBRANCH  15  16
ENDBRANCH   1  15
TORSDOF 7
ENDMDL
MODEL 5
REMARK VINA RESULT:      -7.9      5.282      8.884
REMARK  Name = 
REMARK  9 active torsions:
REMARK  status: ('A' for Active; 'I' for Inactive)
REMARK    1  A    between atoms: C_1  and  C_2
REMARK    2  A    between atoms: C_2  and  N_3
REMARK    3  A    between atoms: C_7  and  S_8
REMARK    4  A    between atoms: S_8  and  C_9
REMARK    5  A    between atoms: C_9  and  C_10
REMARK    6  A    between atoms: N_12  and  C_13
REMARK    7  A    between atoms: C_13  and  C_14
REMARK    8  A    between atoms: C_14  and  C_15
REMARK    9  A    between atoms: C_19  and  C_20
REMARK                            x       y       z     vdW  Elec       q    Type
REMARK                         _______ _______ _______ _____ _____    ______ ____
ROOT
ATOM      1  S   UNL     1       2.131   8.037  18.275  0.00  0.00    +0.000 S 
ENDROOT
BRANCH   1   6
ATOM      2  N   UNL     1       5.357   5.090  16.896  0.00  0.00    +0.000 N 
ATOM      3  C   UNL     1       5.621   6.452  16.878  0.00  0.00    +0.000 A 
ATOM      4  O   UNL     1       6.692   6.945  16.518  0.00  0.00    +0.000 OA
ATOM      5  C   UNL     1       4.563   7.368  17.343  0.00  0.00    +0.000 A 
ATOM      6  C   UNL     1       3.371   6.924  17.780  0.00  0.00    +0.000 A 
ATOM      7  C   UNL     1       3.073   5.475  17.719  0.00  0.00    +0.000 A 
ATOM      8  C   UNL     1       1.807   4.945  18.044  0.00  0.00    +0.000 A 
ATOM      9  C   UNL     1       1.543   3.576  17.985  0.00  0.00    +0.000 A 
ATOM     10  C   UNL     1       2.557   2.699  17.640  0.00  0.00    +0.000 A 
ATOM     11  C   UNL     1       3.824   3.194  17.328  0.00  0.00    +0.000 A 
ATOM     12  C   UNL     1       4.089   4.578  17.321  0.00  0.00    +0.000 A 
BRANCH   2  14
ATOM     13  C   UNL     1       6.421   3.971  14.964  0.00  0.00    +0.000 C 
ATOM     14  C   UNL     1       6.434   4.198  16.469  0.00  0.00    +0.000 C 
ENDBRANCH   2  14
ENDBRANCH   1   6
BRANCH   1  15
ATOM     15  C   UNL     1       1.949   7.764  20.070  0.00  0.00    +0.000 C 
BRANCH  15  16
ATOM     16  C   UNL     1       1.029   8.841  20.660  0.00  0.00    +0.000 C 
ATOM     17  O   UNL     1       0.746   8.919  21.849  0.00  0.00    +0.000 OA
ATOM     18  N   UNL     1       0.569   9.780  19.743  0.00  0.00    +0.000 N 
ATOM     19  H   UNL     1       0.646   9.614  18.747  0.00  0.00    +0.000 HD
BRANCH  18  20
ATOM     20  C   UNL     1      -0.345  10.803  20.229  0.00  0.00    +0.000 C 
BRANCH  20  21
ATOM     21  C   UNL     1      -0.700  11.899  19.221  0.00  0.00    +0.000 C 
BRANCH  21  22
ATOM     22  C   UNL     1      -1.977  11.643  18.451  0.00  0.00    +0.000 A 
ATOM     23  C   UNL     1      -3.244  11.908  18.991  0.00  0.00    +0.000 A 
ATOM     24  C   UNL     1      -4.400  11.612  18.263  0.00  0.00    +0.000 A 
ATOM     25  C   UNL     1      -4.305  11.039  16.995  0.00  0.00    +0.000 A 
ATOM     26  C   UNL     1      -3.052  10.772  16.439  0.00  0.00    +0.000 A 
ATOM     27  C   UNL     1      -2.938  10.115  15.095  0.00  0.00    +0.000 C 
ATOM     28  C   UNL     1      -1.897  11.102  17.158  0.00  0.00    +0.000 A 
ENDBRANCH  21  22
ENDBRANCH  20  21
ENDBRANCH  18  20
ENDBRANCH  15  16
ENDBRANCH   1  15
TORSDOF 7
ENDMDL
MODEL 6
REMARK VINA RESULT:      -7.9      2.003      3.131
REMARK  Name = 
REMARK  9 active torsions:
REMARK  status: ('A' for Active; 'I' for Inactive)
REMARK    1  A    between atoms: C_1  and  C_2
REMARK    2  A    between atoms: C_2  and  N_3
REMARK    3  A    between atoms: C_7  and  S_8
REMARK    4  A    between atoms: S_8  and  C_9
REMARK    5  A    between atoms: C_9  and  C_10
REMARK    6  A    between atoms: N_12  and  C_13
REMARK    7  A    between atoms: C_13  and  C_14
REMARK    8  A    between atoms: C_14  and  C_15
REMARK    9  A    between atoms: C_19  and  C_20
REMARK                            x       y       z     vdW  Elec       q    Type
REMARK                         _______ _______ _______ _____ _____    ______ ____
ROOT
ATOM      1  S   UNL     1       5.258   6.298  15.902  0.00  0.00    +0.000 S 
ENDROOT
BRANCH   1   6
ATOM      2  N   UNL     1       2.406   5.260  19.334  0.00  0.00    +0.000 N 
ATOM      3  C   UNL     1       2.785   6.580  19.135  0.00  0.00    +0.000 A 
ATOM      4  O   UNL     1       2.396   7.524  19.825  0.00  0.00    +0.000 OA
ATOM      5  C   UNL     1       3.693   6.876  18.012  0.00  0.00    +0.000 A 
ATOM      6  C   UNL     1       4.150   5.917  17.187  0.00  0.00    +0.000 A 
ATOM      7  C   UNL     1       3.802   4.504  17.458  0.00  0.00    +0.000 A 
ATOM      8  C   UNL     1       4.338   3.432  16.715  0.00  0.00    +0.000 A 
ATOM      9  C   UNL     1       3.996   2.106  16.980  0.00  0.00    +0.000 A 
ATOM     10  C   UNL     1       3.073   1.824  17.973  0.00  0.00    +0.000 A 
ATOM     11  C   UNL     1       2.514   2.866  18.715  0.00  0.00    +0.000 A 
ATOM     12  C   UNL     1       2.897   4.205  18.502  0.00  0.00    +0.000 A 
BRANCH   2  14
ATOM     13  C   UNL     1       2.167   4.357  21.625  0.00  0.00    +0.000 C 
ATOM     14  C   UNL     1       1.473   4.994  20.429  0.00  0.00    +0.000 C 
ENDBRANCH   2  14
ENDBRANCH   1   6
BRANCH   1  15
ATOM     15  C   UNL     1       6.858   5.612  16.446  0.00  0.00    +0.000 C 
BRANCH  15  16
ATOM     16  C   UNL     1       7.425   6.475  17.581  0.00  0.00    +0.000 C 
ATOM     17  O   UNL     1       7.625   6.062  18.717  0.00  0.00    +0.000 OA
ATOM     18  N   UNL     1       7.756   7.775  17.214  0.00  0.00    +0.000 N 
ATOM     19  H   UNL     1       7.424   8.169  16.343  0.00  0.00    +0.000 HD
BRANCH  18  20
ATOM     20  C   UNL     1       8.256   8.661  18.255  0.00  0.00    +0.000 C 
BRANCH  20  21
ATOM     21  C   UNL     1       8.329  10.143  17.877  0.00  0.00    +0.000 C 
BRANCH  21  22
ATOM     22  C   UNL     1       9.434  10.906  18.575  0.00  0.00    +0.000 A 
ATOM     23  C   UNL     1       9.528  10.976  19.973  0.00  0.00    +0.000 A 
ATOM     24  C   UNL     1      10.536  11.732  20.578  0.00  0.00    +0.000 A 
ATOM     25  C   UNL     1      11.454  12.433  19.796  0.00  0.00    +0.000 A 
ATOM     26  C   UNL     1      11.379  12.371  18.403  0.00  0.00    +0.000 A 
ATOM     27  C   UNL     1      12.333  13.156  17.552  0.00  0.00    +0.000 C 
ATOM     28  C   UNL     1      10.388  11.586  17.803  0.00  0.00    +0.000 A 
ENDBRANCH  21  22
ENDBRANCH  20  21
ENDBRANCH  18  20
ENDBRANCH  15  16
ENDBRANCH   1  15
TORSDOF 7
ENDMDL
MODEL 7
REMARK VINA RESULT:      -7.8      0.514      1.322
REMARK  Name = 
REMARK  9 active torsions:
REMARK  status: ('A' for Active; 'I' for Inactive)
REMARK    1  A    between atoms: C_1  and  C_2
REMARK    2  A    between atoms: C_2  and  N_3
REMARK    3  A    between atoms: C_7  and  S_8
REMARK    4  A    between atoms: S_8  and  C_9
REMARK    5  A    between atoms: C_9  and  C_10
REMARK    6  A    between atoms: N_12  and  C_13
REMARK    7  A    between atoms: C_13  and  C_14
REMARK    8  A    between atoms: C_14  and  C_15
REMARK    9  A    between atoms: C_19  and  C_20
REMARK                            x       y       z     vdW  Elec       q    Type
REMARK                         _______ _______ _______ _____ _____    ______ ____
ROOT
ATOM      1  S   UNL     1       6.809   4.954  17.464  0.00  0.00    +0.000 S 
ENDROOT
BRANCH   1   6
ATOM      2  N   UNL     1       2.864   3.964  19.573  0.00  0.00    +0.000 N 
ATOM      3  C   UNL     1       3.871   3.010  19.522  0.00  0.00    +0.000 A 
ATOM      4  O   UNL     1       3.787   1.887  20.022  0.00  0.00    +0.000 OA
ATOM      5  C   UNL     1       5.131   3.372  18.847  0.00  0.00    +0.000 A 
ATOM      6  C   UNL     1       5.328   4.582  18.293  0.00  0.00    +0.000 A 
ATOM      7  C   UNL     1       4.217   5.561  18.285  0.00  0.00    +0.000 A 
ATOM      8  C   UNL     1       4.303   6.802  17.621  0.00  0.00    +0.000 A 
ATOM      9  C   UNL     1       3.250   7.717  17.626  0.00  0.00    +0.000 A 
ATOM     10  C   UNL     1       2.097   7.426  18.335  0.00  0.00    +0.000 A 
ATOM     11  C   UNL     1       1.989   6.212  19.015  0.00  0.00    +0.000 A 
ATOM     12  C   UNL     1       3.019   5.252  18.967  0.00  0.00    +0.000 A 
BRANCH   2  14
ATOM     13  C   UNL     1       0.731   2.719  19.434  0.00  0.00    +0.000 C 
ATOM     14  C   UNL     1       1.638   3.599  20.283  0.00  0.00    +0.000 C 
ENDBRANCH   2  14
ENDBRANCH   1   6
BRANCH   1  15
ATOM     15  C   UNL     1       7.769   5.955  18.650  0.00  0.00    +0.000 C 
BRANCH  15  16
ATOM     16  C   UNL     1       7.895   7.390  18.123  0.00  0.00    +0.000 C 
ATOM     17  O   UNL     1       7.376   7.784  17.085  0.00  0.00    +0.000 OA
ATOM     18  N   UNL     1       8.609   8.253  18.948  0.00  0.00    +0.000 N 
ATOM     19  H   UNL     1       9.187   7.894  19.698  0.00  0.00    +0.000 HD
BRANCH  18  20
ATOM     20  C   UNL     1       8.805   9.619  18.485  0.00  0.00    +0.000 C 
BRANCH  20  21
ATOM     21  C   UNL     1       9.743  10.474  19.340  0.00  0.00    +0.000 C 
BRANCH  21  22
ATOM     22  C   UNL     1      10.067  11.825  18.741  0.00  0.00    +0.000 A 
ATOM     23  C   UNL     1       9.400  12.996  19.130  0.00  0.00    +0.000 A 
ATOM     24  C   UNL     1       9.697  14.217  18.517  0.00  0.00    +0.000 A 
ATOM     25  C   UNL     1      10.655  14.281  17.505  0.00  0.00    +0.000 A 
ATOM     26  C   UNL     1      11.333  13.126  17.108  0.00  0.00    +0.000 A 
ATOM     27  C   UNL     1      12.333  13.175  15.991  0.00  0.00    +0.000 C 
ATOM     28  C   UNL     1      11.055  11.912  17.749  0.00  0.00    +0.000 A 
ENDBRANCH  21  22
ENDBRANCH  20  21
ENDBRANCH  18  20
ENDBRANCH  15  16
ENDBRANCH   1  15
TORSDOF 7
ENDMDL
MODEL 8
REMARK VINA RESULT:      -7.8      5.497      8.778
REMARK  Name = 
REMARK  9 active torsions:
REMARK  status: ('A' for Active; 'I' for Inactive)
REMARK    1  A    between atoms: C_1  and  C_2
REMARK    2  A    between atoms: C_2  and  N_3
REMARK    3  A    between atoms: C_7  and  S_8
REMARK    4  A    between atoms: S_8  and  C_9
REMARK    5  A    between atoms: C_9  and  C_10
REMARK    6  A    between atoms: N_12  and  C_13
REMARK    7  A    between atoms: C_13  and  C_14
REMARK    8  A    between atoms: C_14  and  C_15
REMARK    9  A    between atoms: C_19  and  C_20
REMARK                            x       y       z     vdW  Elec       q    Type
REMARK                         _______ _______ _______ _____ _____    ______ ____
ROOT
ATOM      1  S   UNL     1       2.214   7.550  18.996  0.00  0.00    +0.000 S 
ENDROOT
BRANCH   1   6
ATOM      2  N   UNL     1       4.972   4.864  16.511  0.00  0.00    +0.000 N 
ATOM      3  C   UNL     1       5.211   6.230  16.561  0.00  0.00    +0.000 A 
ATOM      4  O   UNL     1       6.140   6.792  15.979  0.00  0.00    +0.000 OA
ATOM      5  C   UNL     1       4.310   7.059  17.384  0.00  0.00    +0.000 A 
ATOM      6  C   UNL     1       3.284   6.533  18.077  0.00  0.00    +0.000 A 
ATOM      7  C   UNL     1       2.993   5.087  17.951  0.00  0.00    +0.000 A 
ATOM      8  C   UNL     1       1.866   4.484  18.547  0.00  0.00    +0.000 A 
ATOM      9  C   UNL     1       1.607   3.118  18.423  0.00  0.00    +0.000 A 
ATOM     10  C   UNL     1       2.497   2.315  17.731  0.00  0.00    +0.000 A 
ATOM     11  C   UNL     1       3.629   2.882  17.143  0.00  0.00    +0.000 A 
ATOM     12  C   UNL     1       3.871   4.269  17.206  0.00  0.00    +0.000 A 
BRANCH   2  14
ATOM     13  C   UNL     1       5.585   4.114  14.235  0.00  0.00    +0.000 C 
ATOM     14  C   UNL     1       5.902   4.055  15.723  0.00  0.00    +0.000 C 
ENDBRANCH   2  14
ENDBRANCH   1   6
BRANCH   1  15
ATOM     15  C   UNL     1       2.004   9.048  17.977  0.00  0.00    +0.000 C 
BRANCH  15  16
ATOM     16  C   UNL     1       1.105  10.047  18.715  0.00  0.00    +0.000 C 
ATOM     17  O   UNL     1       0.220   9.720  19.497  0.00  0.00    +0.000 OA
ATOM     18  N   UNL     1       1.401  11.385  18.476  0.00  0.00    +0.000 N 
ATOM     19  H   UNL     1       1.995  11.655  17.702  0.00  0.00    +0.000 HD
BRANCH  18  20
ATOM     20  C   UNL     1       0.555  12.386  19.110  0.00  0.00    +0.000 C 
BRANCH  20  21
ATOM     21  C   UNL     1      -0.499  13.025  18.204  0.00  0.00    +0.000 C 
BRANCH  21  22
ATOM     22  C   UNL     1      -1.745  12.186  18.015  0.00  0.00    +0.000 A 
ATOM     23  C   UNL     1      -2.761  12.128  18.980  0.00  0.00    +0.000 A 
ATOM     24  C   UNL     1      -3.874  11.304  18.788  0.00  0.00    +0.000 A 
ATOM     25  C   UNL     1      -3.979  10.522  17.637  0.00  0.00    +0.000 A 
ATOM     26  C   UNL     1      -2.979  10.571  16.663  0.00  0.00    +0.000 A 
ATOM     27  C   UNL     1      -3.059   9.702  15.443  0.00  0.00    +0.000 C 
ATOM     28  C   UNL     1      -1.883  11.424  16.846  0.00  0.00    +0.000 A 
ENDBRANCH  21  22
ENDBRANCH  20  21
ENDBRANCH  18  20
ENDBRANCH  15  16
ENDBRANCH   1  15
TORSDOF 7
ENDMDL
MODEL 9
REMARK VINA RESULT:      -7.8      1.573      2.230
REMARK  Name = 
REMARK  9 active torsions:
REMARK  status: ('A' for Active; 'I' for Inactive)
REMARK    1  A    between atoms: C_1  and  C_2
REMARK    2  A    between atoms: C_2  and  N_3
REMARK    3  A    between atoms: C_7  and  S_8
REMARK    4  A    between atoms: S_8  and  C_9
REMARK    5  A    between atoms: C_9  and  C_10
REMARK    6  A    between atoms: N_12  and  C_13
REMARK    7  A    between atoms: C_13  and  C_14
REMARK    8  A    between atoms: C_14  and  C_15
REMARK    9  A    between atoms: C_19  and  C_20
REMARK                            x       y       z     vdW  Elec       q    Type
REMARK                         _______ _______ _______ _____ _____    ______ ____
ROOT
ATOM      1  S   UNL     1       5.361   6.223  16.920  0.00  0.00    +0.000 S 
ENDROOT
BRANCH   1   6
ATOM      2  N   UNL     1       2.658   3.227  19.091  0.00  0.00    +0.000 N 
ATOM      3  C   UNL     1       3.549   2.773  18.129  0.00  0.00    +0.000 A 
ATOM      4  O   UNL     1       3.680   1.590  17.810  0.00  0.00    +0.000 OA
ATOM      5  C   UNL     1       4.412   3.766  17.463  0.00  0.00    +0.000 A 
ATOM      6  C   UNL     1       4.362   5.076  17.762  0.00  0.00    +0.000 A 
ATOM      7  C   UNL     1       3.352   5.557  18.732  0.00  0.00    +0.000 A 
ATOM      8  C   UNL     1       3.155   6.926  19.008  0.00  0.00    +0.000 A 
ATOM      9  C   UNL     1       2.202   7.364  19.928  0.00  0.00    +0.000 A 
ATOM     10  C   UNL     1       1.451   6.435  20.627  0.00  0.00    +0.000 A 
ATOM     11  C   UNL     1       1.635   5.072  20.386  0.00  0.00    +0.000 A 
ATOM     12  C   UNL     1       2.548   4.617  19.415  0.00  0.00    +0.000 A 
BRANCH   2  14
ATOM     13  C   UNL     1       0.468   2.077  19.125  0.00  0.00    +0.000 C 
ATOM     14  C   UNL     1       1.841   2.221  19.768  0.00  0.00    +0.000 C 
ENDBRANCH   2  14
ENDBRANCH   1   6
BRANCH   1  15
ATOM     15  C   UNL     1       7.073   5.720  17.305  0.00  0.00    +0.000 C 
BRANCH  15  16
ATOM     16  C   UNL     1       7.779   6.850  18.065  0.00  0.00    +0.000 C 
ATOM     17  O   UNL     1       8.409   6.684  19.102  0.00  0.00    +0.000 OA
ATOM     18  N   UNL     1       7.700   8.099  17.457  0.00  0.00    +0.000 N 
ATOM     19  H   UNL     1       7.035   8.273  16.714  0.00  0.00    +0.000 HD
BRANCH  18  20
ATOM     20  C   UNL     1       8.310   9.224  18.150  0.00  0.00    +0.000 C 
BRANCH  20  21
ATOM     21  C   UNL     1       8.213  10.570  17.429  0.00  0.00    +0.000 C 
BRANCH  21  22
ATOM     22  C   UNL     1       9.046  11.669  18.052  0.00  0.00    +0.000 A 
ATOM     23  C   UNL     1       8.709  13.025  17.931  0.00  0.00    +0.000 A 
ATOM     24  C   UNL     1       9.532  14.011  18.482  0.00  0.00    +0.000 A 
ATOM     25  C   UNL     1      10.704  13.656  19.150  0.00  0.00    +0.000 A 
ATOM     26  C   UNL     1      11.053  12.311  19.285  0.00  0.00    +0.000 A 
ATOM     27  C   UNL     1      12.333  11.919  19.963  0.00  0.00    +0.000 C 
ATOM     28  C   UNL     1      10.208  11.325  18.760  0.00  0.00    +0.000 A 
ENDBRANCH  21  22
ENDBRANCH  20  21
ENDBRANCH  18  20
ENDBRANCH  15  16
ENDBRANCH   1  15
TORSDOF 7
ENDMDL
