MODEL 1
REMARK VINA RESULT:      -9.0      0.000      0.000
REMARK  Name = 
REMARK  11 active torsions:
REMARK  status: ('A' for Active; 'I' for Inactive)
REMARK    1  A    between atoms: C_1  and  O_2
REMARK    2  A    between atoms: O_2  and  C_3
REMARK    3  A    between atoms: C_6  and  C_7
REMARK    4  A    between atoms: C_7  and  N_8
REMARK    5  A    between atoms: C_12  and  C_13
REMARK    6  A    between atoms: C_16  and  C_17
REMARK    7  A    between atoms: C_18  and  C_19
REMARK    8  A    between atoms: N_21  and  C_22
REMARK    9  A    between atoms: C_24  and  O_25
REMARK   10  A    between atoms: O_25  and  C_26
REMARK   11  A    between atoms: C_26  and  C_27
REMARK                            x       y       z     vdW  Elec       q    Type
REMARK                         _______ _______ _______ _____ _____    ______ ____
ROOT
ATOM      1  C   UNL     1       1.917   8.186  19.626  0.00  0.00    +0.000 C 
ENDROOT
BRANCH   1   2
ATOM      2  N   UNL     1       1.229   8.555  20.848  0.00  0.00    +0.000 N 
ATOM      3  C   UNL     1       0.581   9.741  20.848  0.00  0.00    +0.000 A 
ATOM      4  N   UNL     1       0.417  10.550  19.830  0.00  0.00    +0.000 NA
ATOM      5  C   UNL     1      -0.263  11.627  20.322  0.00  0.00    +0.000 A 
ATOM      6  C   UNL     1      -0.576  11.477  21.665  0.00  0.00    +0.000 A 
ATOM      7  N   UNL     1      -0.016  10.251  21.985  0.00  0.00    +0.000 N 
ATOM      8  C   UNL     1      -0.036   9.571  23.259  0.00  0.00    +0.000 C 
ATOM      9  H   UNL     1       1.731   8.273  21.682  0.00  0.00    +0.000 HD
BRANCH   6  10
ATOM     10  C   UNL     1      -1.272  12.409  22.561  0.00  0.00    +0.000 A 
ATOM     11  C   UNL     1      -0.731  13.647  22.911  0.00  0.00    +0.000 A 
ATOM     12  C   UNL     1      -1.452  14.549  23.695  0.00  0.00    +0.000 A 
ATOM     13  C   UNL     1      -2.715  14.216  24.205  0.00  0.00    +0.000 A 
ATOM     14  C   UNL     1      -3.458  15.236  25.022  0.00  0.00    +0.000 C 
ATOM     15  C   UNL     1      -3.240  12.939  23.939  0.00  0.00    +0.000 A 
ATOM     16  C   UNL     1      -4.551  12.456  24.498  0.00  0.00    +0.000 C 
ATOM     17  C   UNL     1      -2.516  12.058  23.110  0.00  0.00    +0.000 A 
ENDBRANCH   6  10
ENDBRANCH   1   2
BRANCH   1  21
ATOM     18  C   UNL     1       2.726   3.927  19.569  0.00  0.00    +0.000 A 
ATOM     19  C   UNL     1       1.926   4.497  20.575  0.00  0.00    +0.000 A 
ATOM     20  C   UNL     1       1.661   5.866  20.618  0.00  0.00    +0.000 A 
ATOM     21  C   UNL     1       2.155   6.695  19.614  0.00  0.00    +0.000 A 
ATOM     22  C   UNL     1       2.884   6.118  18.568  0.00  0.00    +0.000 A 
ATOM     23  C   UNL     1       3.239   4.752  18.558  0.00  0.00    +0.000 A 
BRANCH  18  25
ATOM     24  C   UNL     1       2.283   1.699  18.786  0.00  0.00    +0.000 C 
ATOM     25  O   UNL     1       2.861   2.578  19.736  0.00  0.00    +0.000 OA
ENDBRANCH  18  25
BRANCH  23  26
ATOM     26  O   UNL     1       4.076   4.235  17.587  0.00  0.00    +0.000 OA
BRANCH  26  27
ATOM     27  C   UNL     1       4.770   5.246  16.837  0.00  0.00    +0.000 C 
BRANCH  27  28
ATOM     28  C   UNL     1       5.995   5.834  17.489  0.00  0.00    +0.000 A 
ATOM     29  C   UNL     1       6.724   5.195  18.495  0.00  0.00    +0.000 A 
ATOM     30  C   UNL     1       7.838   5.823  19.053  0.00  0.00    +0.000 A 
ATOM     31  C   UNL     1       8.240   7.087  18.609  0.00  0.00    +0.000 A 
ATOM     32  C   UNL     1       7.531   7.724  17.595  0.00  0.00    +0.000 A 
ATOM     33  C   UNL     1       6.422   7.098  17.035  0.00  0.00    +0.000 A 
ENDBRANCH  27  28
ENDBRANCH  26  27
ENDBRANCH  23  26
ENDBRANCH   1  21
TORSDOF 7
ENDMDL
MODEL 2
REMARK VINA RESULT:      -8.8      0.595      1.022
REMARK  Name = 
REMARK  11 active torsions:
REMARK  status: ('A' for Active; 'I' for Inactive)
REMARK    1  A    between atoms: C_1  and  O_2
REMARK    2  A    between atoms: O_2  and  C_3
REMARK    3  A    between atoms: C_6  and  C_7
REMARK    4  A    between atoms: C_7  and  N_8
REMARK    5  A    between atoms: C_12  and  C_13
REMARK    6  A    between atoms: C_16  and  C_17
REMARK    7  A    between atoms: C_18  and  C_19
REMARK    8  A    between atoms: N_21  and  C_22
REMARK    9  A    between atoms: C_24  and  O_25
REMARK   10  A    between atoms: O_25  and  C_26
REMARK   11  A    between atoms: C_26  and  C_27
REMARK                            x       y       z     vdW  Elec       q    Type
REMARK                         _______ _______ _______ _____ _____    ______ ____
ROOT
ATOM      1  C   UNL     1       1.885   8.291  19.622  0.00  0.00    +0.000 C 
ENDROOT
BRANCH   1   2
ATOM      2  N   UNL     1       1.160   8.635  20.830  0.00  0.00    +0.000 N 
ATOM      3  C   UNL     1       0.541   9.836  20.848  0.00  0.00    +0.000 A 
ATOM      4  N   UNL     1       0.438  10.685  19.854  0.00  0.00    +0.000 NA
ATOM      5  C   UNL     1      -0.234  11.761  20.358  0.00  0.00    +0.000 A 
ATOM      6  C   UNL     1      -0.602  11.573  21.682  0.00  0.00    +0.000 A 
ATOM      7  N   UNL     1      -0.086  10.322  21.979  0.00  0.00    +0.000 N 
ATOM      8  C   UNL     1      -0.172   9.599  23.226  0.00  0.00    +0.000 C 
ATOM      9  H   UNL     1       1.622   8.311  21.672  0.00  0.00    +0.000 HD
BRANCH   6  10
ATOM     10  C   UNL     1      -1.310  12.490  22.584  0.00  0.00    +0.000 A 
ATOM     11  C   UNL     1      -0.790  13.739  22.929  0.00  0.00    +0.000 A 
ATOM     12  C   UNL     1      -1.523  14.627  23.720  0.00  0.00    +0.000 A 
ATOM     13  C   UNL     1      -2.775  14.268  24.240  0.00  0.00    +0.000 A 
ATOM     14  C   UNL     1      -3.532  15.273  25.064  0.00  0.00    +0.000 C 
ATOM     15  C   UNL     1      -3.276  12.981  23.978  0.00  0.00    +0.000 A 
ATOM     16  C   UNL     1      -4.574  12.472  24.547  0.00  0.00    +0.000 C 
ATOM     17  C   UNL     1      -2.542  12.115  23.142  0.00  0.00    +0.000 A 
ENDBRANCH   6  10
ENDBRANCH   1   2
BRANCH   1  21
ATOM     18  C   UNL     1       2.570   4.016  19.403  0.00  0.00    +0.000 A 
ATOM     19  C   UNL     1       2.027   4.602  20.560  0.00  0.00    +0.000 A 
ATOM     20  C   UNL     1       1.808   5.977  20.656  0.00  0.00    +0.000 A 
ATOM     21  C   UNL     1       2.083   6.795  19.563  0.00  0.00    +0.000 A 
ATOM     22  C   UNL     1       2.547   6.203  18.383  0.00  0.00    +0.000 A 
ATOM     23  C   UNL     1       2.862   4.831  18.299  0.00  0.00    +0.000 A 
BRANCH  18  25
ATOM     24  C   UNL     1       3.893   2.142  20.122  0.00  0.00    +0.000 C 
ATOM     25  O   UNL     1       2.710   2.664  19.541  0.00  0.00    +0.000 OA
ENDBRANCH  18  25
BRANCH  23  26
ATOM     26  O   UNL     1       3.450   4.296  17.169  0.00  0.00    +0.000 OA
BRANCH  26  27
ATOM     27  C   UNL     1       4.795   3.838  17.389  0.00  0.00    +0.000 C 
BRANCH  27  28
ATOM     28  C   UNL     1       5.825   4.907  17.652  0.00  0.00    +0.000 A 
ATOM     29  C   UNL     1       6.195   5.878  16.719  0.00  0.00    +0.000 A 
ATOM     30  C   UNL     1       7.171   6.820  17.045  0.00  0.00    +0.000 A 
ATOM     31  C   UNL     1       7.780   6.809  18.304  0.00  0.00    +0.000 A 
ATOM     32  C   UNL     1       7.404   5.857  19.248  0.00  0.00    +0.000 A 
ATOM     33  C   UNL     1       6.429   4.918  18.925  0.00  0.00    +0.000 A 
ENDBRANCH  27  28
ENDBRANCH  26  27
ENDBRANCH  23  26
ENDBRANCH   1  21
TORSDOF 7
ENDMDL
MODEL 3
REMARK VINA RESULT:      -8.7      2.894      3.649
REMARK  Name = 
REMARK  11 active torsions:
REMARK  status: ('A' for Active; 'I' for Inactive)
REMARK    1  A    between atoms: C_1  and  O_2
REMARK    2  A    between atoms: O_2  and  C_3
REMARK    3  A    between atoms: C_6  and  C_7
REMARK    4  A    between atoms: C_7  and  N_8
REMARK    5  A    between atoms: C_12  and  C_13
REMARK    6  A    between atoms: C_16  and  C_17
REMARK    7  A    between atoms: C_18  and  C_19
REMARK    8  A    between atoms: N_21  and  C_22
REMARK    9  A    between atoms: C_24  and  O_25
REMARK   10  A    between atoms: O_25  and  C_26
REMARK   11  A    between atoms: C_26  and  C_27
REMARK                            x       y       z     vdW  Elec       q    Type
REMARK                         _______ _______ _______ _____ _____    ______ ____
ROOT
ATOM      1  C   UNL     1       2.011   9.366  18.319  0.00  0.00    +0.000 C 
ENDROOT
BRANCH   1   2
ATOM      2  N   UNL     1       0.719   9.523  17.678  0.00  0.00    +0.000 N 
ATOM      3  C   UNL     1      -0.162  10.353  18.278  0.00  0.00    +0.000 A 
ATOM      4  N   UNL     1       0.057  11.115  19.322  0.00  0.00    +0.000 NA
ATOM      5  C   UNL     1      -1.130  11.737  19.580  0.00  0.00    +0.000 A 
ATOM      6  C   UNL     1      -2.108  11.397  18.656  0.00  0.00    +0.000 A 
ATOM      7  N   UNL     1      -1.460  10.497  17.826  0.00  0.00    +0.000 N 
ATOM      8  C   UNL     1      -1.990   9.814  16.670  0.00  0.00    +0.000 C 
ATOM      9  H   UNL     1       0.377   8.661  17.269  0.00  0.00    +0.000 HD
BRANCH   6  10
ATOM     10  C   UNL     1      -3.511  11.827  18.595  0.00  0.00    +0.000 A 
ATOM     11  C   UNL     1      -4.277  11.696  17.436  0.00  0.00    +0.000 A 
ATOM     12  C   UNL     1      -5.632  12.033  17.430  0.00  0.00    +0.000 A 
ATOM     13  C   UNL     1      -6.249  12.569  18.570  0.00  0.00    +0.000 A 
ATOM     14  C   UNL     1      -7.717  12.890  18.515  0.00  0.00    +0.000 C 
ATOM     15  C   UNL     1      -5.473  12.793  19.721  0.00  0.00    +0.000 A 
ATOM     16  C   UNL     1      -6.020  13.429  20.970  0.00  0.00    +0.000 C 
ATOM     17  C   UNL     1      -4.118  12.406  19.721  0.00  0.00    +0.000 A 
ENDBRANCH   6  10
ENDBRANCH   1   2
BRANCH   1  21
ATOM     18  C   UNL     1       2.394   5.411  20.051  0.00  0.00    +0.000 A 
ATOM     19  C   UNL     1       1.823   6.468  20.782  0.00  0.00    +0.000 A 
ATOM     20  C   UNL     1       1.699   7.751  20.248  0.00  0.00    +0.000 A 
ATOM     21  C   UNL     1       2.102   7.992  18.937  0.00  0.00    +0.000 A 
ATOM     22  C   UNL     1       2.596   6.923  18.181  0.00  0.00    +0.000 A 
ATOM     23  C   UNL     1       2.814   5.643  18.733  0.00  0.00    +0.000 A 
BRANCH  18  25
ATOM     24  C   UNL     1       1.278   3.422  20.809  0.00  0.00    +0.000 C 
ATOM     25  O   UNL     1       2.425   4.255  20.777  0.00  0.00    +0.000 OA
ENDBRANCH  18  25
BRANCH  23  26
ATOM     26  O   UNL     1       3.432   4.643  18.007  0.00  0.00    +0.000 OA
BRANCH  26  27
ATOM     27  C   UNL     1       4.401   5.138  17.067  0.00  0.00    +0.000 C 
BRANCH  27  28
ATOM     28  C   UNL     1       5.685   5.668  17.654  0.00  0.00    +0.000 A 
ATOM     29  C   UNL     1       6.340   5.088  18.742  0.00  0.00    +0.000 A 
ATOM     30  C   UNL     1       7.518   5.657  19.229  0.00  0.00    +0.000 A 
ATOM     31  C   UNL     1       8.056   6.801  18.631  0.00  0.00    +0.000 A 
ATOM     32  C   UNL     1       7.420   7.375  17.534  0.00  0.00    +0.000 A 
ATOM     33  C   UNL     1       6.247   6.807  17.046  0.00  0.00    +0.000 A 
ENDBRANCH  27  28
ENDBRANCH  26  27
ENDBRANCH  23  26
ENDBRANCH   1  21
TORSDOF 7
ENDMDL
MODEL 4
REMARK VINA RESULT:      -8.5      1.064      1.640
REMARK  Name = 
REMARK  11 active torsions:
REMARK  status: ('A' for Active; 'I' for Inactive)
REMARK    1  A    between atoms: C_1  and  O_2
REMARK    2  A    between atoms: O_2  and  C_3
REMARK    3  A    between atoms: C_6  and  C_7
REMARK    4  A    between atoms: C_7  and  N_8
REMARK    5  A    between atoms: C_12  and  C_13
REMARK    6  A    between atoms: C_16  and  C_17
REMARK    7  A    between atoms: C_18  and  C_19
REMARK    8  A    between atoms: N_21  and  C_22
REMARK    9  A    between atoms: C_24  and  O_25
REMARK   10  A    between atoms: O_25  and  C_26
REMARK   11  A    between atoms: C_26  and  C_27
REMARK                            x       y       z     vdW  Elec       q    Type
REMARK                         _______ _______ _______ _____ _____    ______ ____
ROOT
ATOM      1  C   UNL     1       1.934   7.979  19.752  0.00  0.00    +0.000 C 
ENDROOT
BRANCH   1   2
ATOM      2  N   UNL     1       1.252   8.390  20.965  0.00  0.00    +0.000 N 
ATOM      3  C   UNL     1       0.604   9.576  20.927  0.00  0.00    +0.000 A 
ATOM      4  N   UNL     1       0.435  10.350  19.884  0.00  0.00    +0.000 NA
ATOM      5  C   UNL     1      -0.243  11.443  20.341  0.00  0.00    +0.000 A 
ATOM      6  C   UNL     1      -0.548  11.339  21.690  0.00  0.00    +0.000 A 
ATOM      7  N   UNL     1       0.013  10.125  22.049  0.00  0.00    +0.000 N 
ATOM      8  C   UNL     1      -0.000   9.489  23.346  0.00  0.00    +0.000 C 
ATOM      9  H   UNL     1       1.759   8.138  21.806  0.00  0.00    +0.000 HD
BRANCH   6  10
ATOM     10  C   UNL     1      -1.240  12.301  22.557  0.00  0.00    +0.000 A 
ATOM     11  C   UNL     1      -0.716  13.566  22.829  0.00  0.00    +0.000 A 
ATOM     12  C   UNL     1      -1.435  14.493  23.587  0.00  0.00    +0.000 A 
ATOM     13  C   UNL     1      -2.677  14.160  24.148  0.00  0.00    +0.000 A 
ATOM     14  C   UNL     1      -3.419  15.206  24.933  0.00  0.00    +0.000 C 
ATOM     15  C   UNL     1      -3.181  12.862  23.962  0.00  0.00    +0.000 A 
ATOM     16  C   UNL     1      -4.466  12.382  24.580  0.00  0.00    +0.000 C 
ATOM     17  C   UNL     1      -2.461  11.955  23.157  0.00  0.00    +0.000 A 
ENDBRANCH   6  10
ENDBRANCH   1   2
BRANCH   1  21
ATOM     18  C   UNL     1       3.011   3.792  20.069  0.00  0.00    +0.000 A 
ATOM     19  C   UNL     1       1.698   4.222  20.329  0.00  0.00    +0.000 A 
ATOM     20  C   UNL     1       1.332   5.566  20.243  0.00  0.00    +0.000 A 
ATOM     21  C   UNL     1       2.271   6.510  19.839  0.00  0.00    +0.000 A 
ATOM     22  C   UNL     1       3.558   6.074  19.502  0.00  0.00    +0.000 A 
ATOM     23  C   UNL     1       3.970   4.736  19.672  0.00  0.00    +0.000 A 
BRANCH  18  25
ATOM     24  C   UNL     1       3.262   1.614  19.084  0.00  0.00    +0.000 C 
ATOM     25  O   UNL     1       3.141   2.442  20.228  0.00  0.00    +0.000 OA
ENDBRANCH  18  25
BRANCH  23  26
ATOM     26  O   UNL     1       5.283   4.356  19.464  0.00  0.00    +0.000 OA
BRANCH  26  27
ATOM     27  C   UNL     1       6.037   5.313  18.700  0.00  0.00    +0.000 C 
BRANCH  27  28
ATOM     28  C   UNL     1       5.984   5.158  17.202  0.00  0.00    +0.000 A 
ATOM     29  C   UNL     1       6.454   4.034  16.519  0.00  0.00    +0.000 A 
ATOM     30  C   UNL     1       6.378   3.983  15.127  0.00  0.00    +0.000 A 
ATOM     31  C   UNL     1       5.826   5.046  14.405  0.00  0.00    +0.000 A 
ATOM     32  C   UNL     1       5.337   6.162  15.077  0.00  0.00    +0.000 A 
ATOM     33  C   UNL     1       5.410   6.213  16.466  0.00  0.00    +0.000 A 
ENDBRANCH  27  28
ENDBRANCH  26  27
ENDBRANCH  23  26
ENDBRANCH   1  21
TORSDOF 7
ENDMDL
MODEL 5
REMARK VINA RESULT:      -8.4      0.551      1.594
REMARK  Name = 
REMARK  11 active torsions:
REMARK  status: ('A' for Active; 'I' for Inactive)
REMARK    1  A    between atoms: C_1  and  O_2
REMARK    2  A    between atoms: O_2  and  C_3
REMARK    3  A    between atoms: C_6  and  C_7
REMARK    4  A    between atoms: C_7  and  N_8
REMARK    5  A    between atoms: C_12  and  C_13
REMARK    6  A    between atoms: C_16  and  C_17
REMARK    7  A    between atoms: C_18  and  C_19
REMARK    8  A    between atoms: N_21  and  C_22
REMARK    9  A    between atoms: C_24  and  O_25
REMARK   10  A    between atoms: O_25  and  C_26
REMARK   11  A    between atoms: C_26  and  C_27
REMARK                            x       y       z     vdW  Elec       q    Type
REMARK                         _______ _______ _______ _____ _____    ______ ____
ROOT
ATOM      1  C   UNL     1       1.843   8.097  19.466  0.00  0.00    +0.000 C 
ENDROOT
BRANCH   1   2
ATOM      2  N   UNL     1       1.236   8.508  20.718  0.00  0.00    +0.000 N 
ATOM      3  C   UNL     1       0.505   9.645  20.695  0.00  0.00    +0.000 A 
ATOM      4  N   UNL     1       0.196  10.363  19.644  0.00  0.00    +0.000 NA
ATOM      5  C   UNL     1      -0.517  11.425  20.120  0.00  0.00    +0.000 A 
ATOM      6  C   UNL     1      -0.702  11.355  21.493  0.00  0.00    +0.000 A 
ATOM      7  N   UNL     1      -0.028  10.197  21.844  0.00  0.00    +0.000 N 
ATOM      8  C   UNL     1       0.111   9.614  23.158  0.00  0.00    +0.000 C 
ATOM      9  H   UNL     1       1.827   8.324  21.520  0.00  0.00    +0.000 HD
BRANCH   6  10
ATOM     10  C   UNL     1      -1.386  12.302  22.383  0.00  0.00    +0.000 A 
ATOM     11  C   UNL     1      -2.637  12.026  22.938  0.00  0.00    +0.000 A 
ATOM     12  C   UNL     1      -3.227  12.906  23.849  0.00  0.00    +0.000 A 
ATOM     13  C   UNL     1      -2.609  14.119  24.186  0.00  0.00    +0.000 A 
ATOM     14  C   UNL     1      -3.277  15.016  25.191  0.00  0.00    +0.000 C 
ATOM     15  C   UNL     1      -1.392  14.457  23.569  0.00  0.00    +0.000 A 
ATOM     16  C   UNL     1      -0.685  15.764  23.806  0.00  0.00    +0.000 C 
ATOM     17  C   UNL     1      -0.792  13.537  22.686  0.00  0.00    +0.000 A 
ENDBRANCH   6  10
ENDBRANCH   1   2
BRANCH   1  21
ATOM     18  C   UNL     1       2.953   3.909  19.628  0.00  0.00    +0.000 A 
ATOM     19  C   UNL     1       2.186   4.493  20.651  0.00  0.00    +0.000 A 
ATOM     20  C   UNL     1       1.827   5.841  20.625  0.00  0.00    +0.000 A 
ATOM     21  C   UNL     1       2.187   6.628  19.534  0.00  0.00    +0.000 A 
ATOM     22  C   UNL     1       2.880   6.029  18.476  0.00  0.00    +0.000 A 
ATOM     23  C   UNL     1       3.332   4.694  18.528  0.00  0.00    +0.000 A 
BRANCH  18  25
ATOM     24  C   UNL     1       3.347   2.143  21.209  0.00  0.00    +0.000 C 
ATOM     25  O   UNL     1       3.196   2.588  19.871  0.00  0.00    +0.000 OA
ENDBRANCH  18  25
BRANCH  23  26
ATOM     26  O   UNL     1       4.134   4.166  17.534  0.00  0.00    +0.000 OA
BRANCH  26  27
ATOM     27  C   UNL     1       4.772   5.170  16.726  0.00  0.00    +0.000 C 
BRANCH  27  28
ATOM     28  C   UNL     1       5.958   5.865  17.345  0.00  0.00    +0.000 A 
ATOM     29  C   UNL     1       6.352   7.166  17.023  0.00  0.00    +0.000 A 
ATOM     30  C   UNL     1       7.475   7.725  17.635  0.00  0.00    +0.000 A 
ATOM     31  C   UNL     1       8.207   6.997  18.578  0.00  0.00    +0.000 A 
ATOM     32  C   UNL     1       7.812   5.707  18.920  0.00  0.00    +0.000 A 
ATOM     33  C   UNL     1       6.691   5.150  18.312  0.00  0.00    +0.000 A 
ENDBRANCH  27  28
ENDBRANCH  26  27
ENDBRANCH  23  26
ENDBRANCH   1  21
TORSDOF 7
ENDMDL
MODEL 6
REMARK VINA RESULT:      -8.3      1.563      2.081
REMARK  Name = 
REMARK  11 active torsions:
REMARK  status: ('A' for Active; 'I' for Inactive)
REMARK    1  A    between atoms: C_1  and  O_2
REMARK    2  A    between atoms: O_2  and  C_3
REMARK    3  A    between atoms: C_6  and  C_7
REMARK    4  A    between atoms: C_7  and  N_8
REMARK    5  A    between atoms: C_12  and  C_13
REMARK    6  A    between atoms: C_16  and  C_17
REMARK    7  A    between atoms: C_18  and  C_19
REMARK    8  A    between atoms: N_21  and  C_22
REMARK    9  A    between atoms: C_24  and  O_25
REMARK   10  A    between atoms: O_25  and  C_26
REMARK   11  A    between atoms: C_26  and  C_27
REMARK                            x       y       z     vdW  Elec       q    Type
REMARK                         _______ _______ _______ _____ _____    ______ ____
ROOT
ATOM      1  C   UNL     1       2.219   9.083  18.570  0.00  0.00    +0.000 C 
ENDROOT
BRANCH   1   2
ATOM      2  N   UNL     1       0.859   9.576  18.461  0.00  0.00    +0.000 N 
ATOM      3  C   UNL     1       0.425  10.389  19.449  0.00  0.00    +0.000 A 
ATOM      4  N   UNL     1       1.130  10.867  20.444  0.00  0.00    +0.000 NA
ATOM      5  C   UNL     1       0.257  11.602  21.195  0.00  0.00    +0.000 A 
ATOM      6  C   UNL     1      -1.014  11.626  20.640  0.00  0.00    +0.000 A 
ATOM      7  N   UNL     1      -0.883  10.831  19.513  0.00  0.00    +0.000 N 
ATOM      8  C   UNL     1      -1.893  10.503  18.536  0.00  0.00    +0.000 C 
ATOM      9  H   UNL     1       0.221   8.887  18.080  0.00  0.00    +0.000 HD
BRANCH   6  10
ATOM     10  C   UNL     1      -2.230  12.277  21.145  0.00  0.00    +0.000 A 
ATOM     11  C   UNL     1      -3.045  13.061  20.327  0.00  0.00    +0.000 A 
ATOM     12  C   UNL     1      -4.241  13.598  20.810  0.00  0.00    +0.000 A 
ATOM     13  C   UNL     1      -4.627  13.417  22.146  0.00  0.00    +0.000 A 
ATOM     14  C   UNL     1      -5.937  13.995  22.605  0.00  0.00    +0.000 C 
ATOM     15  C   UNL     1      -3.775  12.707  23.010  0.00  0.00    +0.000 A 
ATOM     16  C   UNL     1      -4.061  12.518  24.475  0.00  0.00    +0.000 C 
ATOM     17  C   UNL     1      -2.595  12.136  22.493  0.00  0.00    +0.000 A 
ENDBRANCH   6  10
ENDBRANCH   1   2
BRANCH   1  21
ATOM     18  C   UNL     1       2.267   4.877  19.620  0.00  0.00    +0.000 A 
ATOM     19  C   UNL     1       1.858   5.849  20.549  0.00  0.00    +0.000 A 
ATOM     20  C   UNL     1       1.844   7.209  20.237  0.00  0.00    +0.000 A 
ATOM     21  C   UNL     1       2.194   7.623  18.954  0.00  0.00    +0.000 A 
ATOM     22  C   UNL     1       2.524   6.651  18.003  0.00  0.00    +0.000 A 
ATOM     23  C   UNL     1       2.632   5.282  18.328  0.00  0.00    +0.000 A 
BRANCH  18  25
ATOM     24  C   UNL     1       2.096   3.458  21.552  0.00  0.00    +0.000 C 
ATOM     25  O   UNL     1       2.213   3.619  20.148  0.00  0.00    +0.000 OA
ENDBRANCH  18  25
BRANCH  23  26
ATOM     26  O   UNL     1       3.094   4.360  17.408  0.00  0.00    +0.000 OA
BRANCH  26  27
ATOM     27  C   UNL     1       4.349   3.765  17.780  0.00  0.00    +0.000 C 
BRANCH  27  28
ATOM     28  C   UNL     1       5.512   4.711  17.936  0.00  0.00    +0.000 A 
ATOM     29  C   UNL     1       6.215   4.890  19.130  0.00  0.00    +0.000 A 
ATOM     30  C   UNL     1       7.271   5.801  19.186  0.00  0.00    +0.000 A 
ATOM     31  C   UNL     1       7.641   6.533  18.054  0.00  0.00    +0.000 A 
ATOM     32  C   UNL     1       6.960   6.348  16.855  0.00  0.00    +0.000 A 
ATOM     33  C   UNL     1       5.908   5.438  16.796  0.00  0.00    +0.000 A 
ENDBRANCH  27  28
ENDBRANCH  26  27
ENDBRANCH  23  26
ENDBRANCH   1  21
TORSDOF 7
ENDMDL
MODEL 7
REMARK VINA RESULT:      -8.3      0.671      1.387
REMARK  Name = 
REMARK  11 active torsions:
REMARK  status: ('A' for Active; 'I' for Inactive)
REMARK    1  A    between atoms: C_1  and  O_2
REMARK    2  A    between atoms: O_2  and  C_3
REMARK    3  A    between atoms: C_6  and  C_7
REMARK    4  A    between atoms: C_7  and  N_8
REMARK    5  A    between atoms: C_12  and  C_13
REMARK    6  A    between atoms: C_16  and  C_17
REMARK    7  A    between atoms: C_18  and  C_19
REMARK    8  A    between atoms: N_21  and  C_22
REMARK    9  A    between atoms: C_24  and  O_25
REMARK   10  A    between atoms: O_25  and  C_26
REMARK   11  A    between atoms: C_26  and  C_27
REMARK                            x       y       z     vdW  Elec       q    Type
REMARK                         _______ _______ _______ _____ _____    ______ ____
ROOT
ATOM      1  C   UNL     1       2.178   7.919  20.035  0.00  0.00    +0.000 C 
ENDROOT
BRANCH   1   2
ATOM      2  N   UNL     1       1.418   8.355  21.190  0.00  0.00    +0.000 N 
ATOM      3  C   UNL     1       0.749   9.524  21.074  0.00  0.00    +0.000 A 
ATOM      4  N   UNL     1       0.626  10.258  19.995  0.00  0.00    +0.000 NA
ATOM      5  C   UNL     1      -0.099  11.351  20.374  0.00  0.00    +0.000 A 
ATOM      6  C   UNL     1      -0.481  11.286  21.706  0.00  0.00    +0.000 A 
ATOM      7  N   UNL     1       0.083  10.098  22.139  0.00  0.00    +0.000 N 
ATOM      8  C   UNL     1       0.006   9.506  23.454  0.00  0.00    +0.000 C 
ATOM      9  H   UNL     1       1.879   8.143  22.068  0.00  0.00    +0.000 HD
BRANCH   6  10
ATOM     10  C   UNL     1      -1.243  12.262  22.497  0.00  0.00    +0.000 A 
ATOM     11  C   UNL     1      -2.530  11.993  22.966  0.00  0.00    +0.000 A 
ATOM     12  C   UNL     1      -3.198  12.904  23.788  0.00  0.00    +0.000 A 
ATOM     13  C   UNL     1      -2.621  14.139  24.117  0.00  0.00    +0.000 A 
ATOM     14  C   UNL     1      -3.374  15.070  25.026  0.00  0.00    +0.000 C 
ATOM     15  C   UNL     1      -1.364  14.467  23.581  0.00  0.00    +0.000 A 
ATOM     16  C   UNL     1      -0.691  15.793  23.812  0.00  0.00    +0.000 C 
ATOM     17  C   UNL     1      -0.687  13.517  22.789  0.00  0.00    +0.000 A 
ENDBRANCH   6  10
ENDBRANCH   1   2
BRANCH   1  21
ATOM     18  C   UNL     1       2.453   3.593  20.006  0.00  0.00    +0.000 A 
ATOM     19  C   UNL     1       1.325   4.241  20.539  0.00  0.00    +0.000 A 
ATOM     20  C   UNL     1       1.220   5.632  20.568  0.00  0.00    +0.000 A 
ATOM     21  C   UNL     1       2.231   6.410  20.009  0.00  0.00    +0.000 A 
ATOM     22  C   UNL     1       3.316   5.765  19.406  0.00  0.00    +0.000 A 
ATOM     23  C   UNL     1       3.483   4.365  19.450  0.00  0.00    +0.000 A 
BRANCH  18  25
ATOM     24  C   UNL     1       2.207   1.466  18.914  0.00  0.00    +0.000 C 
ATOM     25  O   UNL     1       2.344   2.235  20.097  0.00  0.00    +0.000 OA
ENDBRANCH  18  25
BRANCH  23  26
ATOM     26  O   UNL     1       4.630   3.762  18.969  0.00  0.00    +0.000 OA
BRANCH  26  27
ATOM     27  C   UNL     1       5.128   4.367  17.764  0.00  0.00    +0.000 C 
BRANCH  27  28
ATOM     28  C   UNL     1       6.177   5.435  17.940  0.00  0.00    +0.000 A 
ATOM     29  C   UNL     1       7.195   5.376  18.894  0.00  0.00    +0.000 A 
ATOM     30  C   UNL     1       8.115   6.420  18.996  0.00  0.00    +0.000 A 
ATOM     31  C   UNL     1       8.034   7.526  18.145  0.00  0.00    +0.000 A 
ATOM     32  C   UNL     1       7.035   7.586  17.178  0.00  0.00    +0.000 A 
ATOM     33  C   UNL     1       6.118   6.544  17.073  0.00  0.00    +0.000 A 
ENDBRANCH  27  28
ENDBRANCH  26  27
ENDBRANCH  23  26
ENDBRANCH   1  21
TORSDOF 7
ENDMDL
MODEL 8
REMARK VINA RESULT:      -8.3      1.186      2.056
REMARK  Name = 
REMARK  11 active torsions:
REMARK  status: ('A' for Active; 'I' for Inactive)
REMARK    1  A    between atoms: C_1  and  O_2
REMARK    2  A    between atoms: O_2  and  C_3
REMARK    3  A    between atoms: C_6  and  C_7
REMARK    4  A    between atoms: C_7  and  N_8
REMARK    5  A    between atoms: C_12  and  C_13
REMARK    6  A    between atoms: C_16  and  C_17
REMARK    7  A    between atoms: C_18  and  C_19
REMARK    8  A    between atoms: N_21  and  C_22
REMARK    9  A    between atoms: C_24  and  O_25
REMARK   10  A    between atoms: O_25  and  C_26
REMARK   11  A    between atoms: C_26  and  C_27
REMARK                            x       y       z     vdW  Elec       q    Type
REMARK                         _______ _______ _______ _____ _____    ______ ____
ROOT
ATOM      1  C   UNL     1       2.237   7.562  18.525  0.00  0.00    +0.000 C 
ENDROOT
BRANCH   1   2
ATOM      2  N   UNL     1       1.841   8.065  19.826  0.00  0.00    +0.000 N 
ATOM      3  C   UNL     1       1.110   9.202  19.843  0.00  0.00    +0.000 A 
ATOM      4  N   UNL     1       0.630   9.847  18.807  0.00  0.00    +0.000 NA
ATOM      5  C   UNL     1      -0.001  10.945  19.317  0.00  0.00    +0.000 A 
ATOM      6  C   UNL     1       0.041  10.973  20.703  0.00  0.00    +0.000 A 
ATOM      7  N   UNL     1       0.769   9.838  21.021  0.00  0.00    +0.000 N 
ATOM      8  C   UNL     1       1.123   9.348  22.332  0.00  0.00    +0.000 C 
ATOM      9  H   UNL     1       2.555   7.934  20.533  0.00  0.00    +0.000 HD
BRANCH   6  10
ATOM     10  C   UNL     1      -0.493  11.986  21.623  0.00  0.00    +0.000 A 
ATOM     11  C   UNL     1      -1.592  11.733  22.447  0.00  0.00    +0.000 A 
ATOM     12  C   UNL     1      -2.026  12.683  23.374  0.00  0.00    +0.000 A 
ATOM     13  C   UNL     1      -1.411  13.941  23.463  0.00  0.00    +0.000 A 
ATOM     14  C   UNL     1      -1.903  14.915  24.497  0.00  0.00    +0.000 C 
ATOM     15  C   UNL     1      -0.361  14.248  22.581  0.00  0.00    +0.000 A 
ATOM     16  C   UNL     1       0.317  15.591  22.545  0.00  0.00    +0.000 C 
ATOM     17  C   UNL     1       0.092  13.260  21.682  0.00  0.00    +0.000 A 
ENDBRANCH   6  10
ENDBRANCH   1   2
BRANCH   1  21
ATOM     18  C   UNL     1       3.669   3.485  18.870  0.00  0.00    +0.000 A 
ATOM     19  C   UNL     1       2.902   4.070  19.892  0.00  0.00    +0.000 A 
ATOM     20  C   UNL     1       2.440   5.383  19.807  0.00  0.00    +0.000 A 
ATOM     21  C   UNL     1       2.694   6.129  18.659  0.00  0.00    +0.000 A 
ATOM     22  C   UNL     1       3.388   5.522  17.606  0.00  0.00    +0.000 A 
ATOM     23  C   UNL     1       3.942   4.229  17.712  0.00  0.00    +0.000 A 
BRANCH  18  25
ATOM     24  C   UNL     1       4.617   1.923  20.432  0.00  0.00    +0.000 C 
ATOM     25  O   UNL     1       4.022   2.201  19.175  0.00  0.00    +0.000 OA
ENDBRANCH  18  25
BRANCH  23  26
ATOM     26  O   UNL     1       4.740   3.704  16.714  0.00  0.00    +0.000 OA
BRANCH  26  27
ATOM     27  C   UNL     1       5.556   4.692  16.060  0.00  0.00    +0.000 C 
BRANCH  27  28
ATOM     28  C   UNL     1       6.450   5.513  16.955  0.00  0.00    +0.000 A 
ATOM     29  C   UNL     1       6.681   6.879  16.781  0.00  0.00    +0.000 A 
ATOM     30  C   UNL     1       7.538   7.556  17.650  0.00  0.00    +0.000 A 
ATOM     31  C   UNL     1       8.164   6.881  18.702  0.00  0.00    +0.000 A 
ATOM     32  C   UNL     1       7.925   5.523  18.895  0.00  0.00    +0.000 A 
ATOM     33  C   UNL     1       7.069   4.848  18.031  0.00  0.00    +0.000 A 
ENDBRANCH  27  28
ENDBRANCH  26  27
ENDBRANCH  23  26
ENDBRANCH   1  21
TORSDOF 7
ENDMDL
MODEL 9
REMARK VINA RESULT:      -8.2      1.117      2.164
REMARK  Name = 
REMARK  11 active torsions:
REMARK  status: ('A' for Active; 'I' for Inactive)
REMARK    1  A    between atoms: C_1  and  O_2
REMARK    2  A    between atoms: O_2  and  C_3
REMARK    3  A    between atoms: C_6  and  C_7
REMARK    4  A    between atoms: C_7  and  N_8
REMARK    5  A    between atoms: C_12  and  C_13
REMARK    6  A    between atoms: C_16  and  C_17
REMARK    7  A    between atoms: C_18  and  C_19
REMARK    8  A    between atoms: N_21  and  C_22
REMARK    9  A    between atoms: C_24  and  O_25
REMARK   10  A    between atoms: O_25  and  C_26
REMARK   11  A    between atoms: C_26  and  C_27
REMARK                            x       y       z     vdW  Elec       q    Type
REMARK                         _______ _______ _______ _____ _____    ______ ____
ROOT
ATOM      1  C   UNL     1       2.043   8.002  19.964  0.00  0.00    +0.000 C 
ENDROOT
BRANCH   1   2
ATOM      2  N   UNL     1       1.315   8.429  21.143  0.00  0.00    +0.000 N 
ATOM      3  C   UNL     1       0.622   9.586  21.045  0.00  0.00    +0.000 A 
ATOM      4  N   UNL     1       0.451  10.314  19.970  0.00  0.00    +0.000 NA
ATOM      5  C   UNL     1      -0.280  11.396  20.369  0.00  0.00    +0.000 A 
ATOM      6  C   UNL     1      -0.617  11.329  21.713  0.00  0.00    +0.000 A 
ATOM      7  N   UNL     1      -0.019  10.152  22.131  0.00  0.00    +0.000 N 
ATOM      8  C   UNL     1      -0.042   9.563  23.449  0.00  0.00    +0.000 C 
ATOM      9  H   UNL     1       1.808   8.228  22.005  0.00  0.00    +0.000 HD
BRANCH   6  10
ATOM     10  C   UNL     1      -1.368  12.294  22.526  0.00  0.00    +0.000 A 
ATOM     11  C   UNL     1      -2.660  12.029  22.986  0.00  0.00    +0.000 A 
ATOM     12  C   UNL     1      -3.318  12.928  23.829  0.00  0.00    +0.000 A 
ATOM     13  C   UNL     1      -2.728  14.147  24.189  0.00  0.00    +0.000 A 
ATOM     14  C   UNL     1      -3.472  15.064  25.120  0.00  0.00    +0.000 C 
ATOM     15  C   UNL     1      -1.465  14.472  23.665  0.00  0.00    +0.000 A 
ATOM     16  C   UNL     1      -0.777  15.784  23.931  0.00  0.00    +0.000 C 
ATOM     17  C   UNL     1      -0.798  13.534  22.851  0.00  0.00    +0.000 A 
ENDBRANCH   6  10
ENDBRANCH   1   2
BRANCH   1  21
ATOM     18  C   UNL     1       2.639   3.711  20.107  0.00  0.00    +0.000 A 
ATOM     19  C   UNL     1       1.409   4.282  20.477  0.00  0.00    +0.000 A 
ATOM     20  C   UNL     1       1.199   5.661  20.449  0.00  0.00    +0.000 A 
ATOM     21  C   UNL     1       2.211   6.502  19.994  0.00  0.00    +0.000 A 
ATOM     22  C   UNL     1       3.408   5.929  19.548  0.00  0.00    +0.000 A 
ATOM     23  C   UNL     1       3.671   4.548  19.657  0.00  0.00    +0.000 A 
BRANCH  18  25
ATOM     24  C   UNL     1       2.429   1.551  19.072  0.00  0.00    +0.000 C 
ATOM     25  O   UNL     1       2.620   2.350  20.228  0.00  0.00    +0.000 OA
ENDBRANCH  18  25
BRANCH  23  26
ATOM     26  O   UNL     1       4.910   4.025  19.340  0.00  0.00    +0.000 OA
BRANCH  26  27
ATOM     27  C   UNL     1       5.803   4.991  18.761  0.00  0.00    +0.000 C 
BRANCH  27  28
ATOM     28  C   UNL     1       5.789   5.091  17.256  0.00  0.00    +0.000 A 
ATOM     29  C   UNL     1       5.289   6.190  16.555  0.00  0.00    +0.000 A 
ATOM     30  C   UNL     1       5.301   6.189  15.159  0.00  0.00    +0.000 A 
ATOM     31  C   UNL     1       5.820   5.100  14.453  0.00  0.00    +0.000 A 
ATOM     32  C   UNL     1       6.338   4.008  15.143  0.00  0.00    +0.000 A 
ATOM     33  C   UNL     1       6.328   4.008  16.534  0.00  0.00    +0.000 A 
ENDBRANCH  27  28
ENDBRANCH  26  27
ENDBRANCH  23  26
ENDBRANCH   1  21
TORSDOF 7
ENDMDL
