MODEL 1
REMARK VINA RESULT:      -8.2      0.000      0.000
REMARK  Name = 
REMARK  4 active torsions:
REMARK  status: ('A' for Active; 'I' for Inactive)
REMARK    1  A    between atoms: C_1  and  C_2
REMARK    2  A    between atoms: C_2  and  O_3
REMARK    3  A    between atoms: O_3  and  C_4
REMARK    4  A    between atoms: C_15  and  O_16
REMARK                            x       y       z     vdW  Elec       q    Type
REMARK                         _______ _______ _______ _____ _____    ______ ____
ROOT
ATOM      1  C   UNL     1       5.579   4.492  15.481  0.00  0.00    +0.000 A 
ATOM      2  C   UNL     1       5.507   5.870  15.324  0.00  0.00    +0.000 A 
ATOM      3  C   UNL     1       4.798   6.635  16.248  0.00  0.00    +0.000 A 
ATOM      4  C   UNL     1       4.154   6.037  17.342  0.00  0.00    +0.000 A 
ATOM      5  C   UNL     1       3.451   6.837  18.241  0.00  0.00    +0.000 A 
ATOM      6  C   UNL     1       2.810   6.271  19.341  0.00  0.00    +0.000 A 
ATOM      7  C   UNL     1       2.848   4.912  19.592  0.00  0.00    +0.000 A 
ATOM      8  N   UNL     1       2.223   4.476  20.695  0.00  0.00    +0.000 NA
ATOM      9  C   UNL     1       2.281   3.176  20.976  0.00  0.00    +0.000 A 
ATOM     10  N   UNL     1       1.697   2.746  22.147  0.00  0.00    +0.000 N 
ATOM     11  N   UNL     1       2.856   2.263  20.205  0.00  0.00    +0.000 NA
ATOM     12  C   UNL     1       3.462   2.739  19.109  0.00  0.00    +0.000 A 
ATOM     13  C   UNL     1       3.537   4.077  18.702  0.00  0.00    +0.000 A 
ATOM     14  C   UNL     1       4.211   4.638  17.542  0.00  0.00    +0.000 A 
ATOM     15  C   UNL     1       4.945   3.897  16.578  0.00  0.00    +0.000 A 
ATOM     16  H   UNL     1       0.992   3.397  22.461  0.00  0.00    +0.000 HD
ATOM     17  H   UNL     1       1.456   1.768  22.100  0.00  0.00    +0.000 HD
ENDROOT
BRANCH  12  18
ATOM     18  O   UNL     1       4.037   1.733  18.400  0.00  0.00    +0.000 OA
ATOM     19  H   UNL     1       4.016   2.117  17.505  0.00  0.00    +0.000 HD
ENDBRANCH  12  18
BRANCH   1  20
ATOM     20  O   UNL     1       6.234   3.627  14.646  0.00  0.00    +0.000 OA
BRANCH  20  22
ATOM     21  C   UNL     1       5.757   3.279  12.329  0.00  0.00    +0.000 C 
ATOM     22  C   UNL     1       6.530   4.107  13.337  0.00  0.00    +0.000 C 
ENDBRANCH  20  22
ENDBRANCH   1  20
TORSDOF 3
ENDMDL
MODEL 2
REMARK VINA RESULT:      -7.9      1.019      1.063
REMARK  Name = 
REMARK  4 active torsions:
REMARK  status: ('A' for Active; 'I' for Inactive)
REMARK    1  A    between atoms: C_1  and  C_2
REMARK    2  A    between atoms: C_2  and  O_3
REMARK    3  A    between atoms: O_3  and  C_4
REMARK    4  A    between atoms: C_15  and  O_16
REMARK                            x       y       z     vdW  Elec       q    Type
REMARK                         _______ _______ _______ _____ _____    ______ ____
ROOT
ATOM      1  C   UNL     1       6.162   5.342  16.527  0.00  0.00    +0.000 A 
ATOM      2  C   UNL     1       5.701   6.619  16.234  0.00  0.00    +0.000 A 
ATOM      3  C   UNL     1       4.593   7.125  16.912  0.00  0.00    +0.000 A 
ATOM      4  C   UNL     1       3.933   6.368  17.891  0.00  0.00    +0.000 A 
ATOM      5  C   UNL     1       2.827   6.910  18.543  0.00  0.00    +0.000 A 
ATOM      6  C   UNL     1       2.158   6.184  19.525  0.00  0.00    +0.000 A 
ATOM      7  C   UNL     1       2.560   4.915  19.900  0.00  0.00    +0.000 A 
ATOM      8  N   UNL     1       1.865   4.318  20.879  0.00  0.00    +0.000 NA
ATOM      9  C   UNL     1       2.259   3.112  21.281  0.00  0.00    +0.000 A 
ATOM     10  N   UNL     1       1.585   2.534  22.333  0.00  0.00    +0.000 N 
ATOM     11  N   UNL     1       3.254   2.424  20.737  0.00  0.00    +0.000 NA
ATOM     12  C   UNL     1       3.919   3.053  19.759  0.00  0.00    +0.000 A 
ATOM     13  C   UNL     1       3.663   4.336  19.258  0.00  0.00    +0.000 A 
ATOM     14  C   UNL     1       4.377   5.067  18.225  0.00  0.00    +0.000 A 
ATOM     15  C   UNL     1       5.509   4.590  17.511  0.00  0.00    +0.000 A 
ATOM     16  H   UNL     1       0.659   2.925  22.429  0.00  0.00    +0.000 HD
ATOM     17  H   UNL     1       1.679   1.530  22.325  0.00  0.00    +0.000 HD
ENDROOT
BRANCH  12  18
ATOM     18  O   UNL     1       4.927   2.278  19.284  0.00  0.00    +0.000 OA
ATOM     19  H   UNL     1       5.364   2.909  18.683  0.00  0.00    +0.000 HD
ENDBRANCH  12  18
BRANCH   1  20
ATOM     20  O   UNL     1       7.230   4.724  15.934  0.00  0.00    +0.000 OA
BRANCH  20  22
ATOM     21  C   UNL     1       6.172   3.868  13.968  0.00  0.00    +0.000 C 
ATOM     22  C   UNL     1       7.274   4.756  14.509  0.00  0.00    +0.000 C 
ENDBRANCH  20  22
ENDBRANCH   1  20
TORSDOF 3
ENDMDL
MODEL 3
REMARK VINA RESULT:      -7.4      3.152      5.735
REMARK  Name = 
REMARK  4 active torsions:
REMARK  status: ('A' for Active; 'I' for Inactive)
REMARK    1  A    between atoms: C_1  and  C_2
REMARK    2  A    between atoms: C_2  and  O_3
REMARK    3  A    between atoms: O_3  and  C_4
REMARK    4  A    between atoms: C_15  and  O_16
REMARK                            x       y       z     vdW  Elec       q    Type
REMARK                         _______ _______ _______ _____ _____    ______ ____
ROOT
ATOM      1  C   UNL     1       2.359   4.932  20.872  0.00  0.00    +0.000 A 
ATOM      2  C   UNL     1       1.548   6.054  20.760  0.00  0.00    +0.000 A 
ATOM      3  C   UNL     1       1.797   6.990  19.758  0.00  0.00    +0.000 A 
ATOM      4  C   UNL     1       2.855   6.819  18.853  0.00  0.00    +0.000 A 
ATOM      5  C   UNL     1       3.073   7.780  17.868  0.00  0.00    +0.000 A 
ATOM      6  C   UNL     1       4.112   7.631  16.951  0.00  0.00    +0.000 A 
ATOM      7  C   UNL     1       4.954   6.535  16.970  0.00  0.00    +0.000 A 
ATOM      8  N   UNL     1       5.901   6.475  16.021  0.00  0.00    +0.000 NA
ATOM      9  C   UNL     1       6.698   5.410  15.999  0.00  0.00    +0.000 A 
ATOM     10  N   UNL     1       7.621   5.321  14.981  0.00  0.00    +0.000 N 
ATOM     11  N   UNL     1       6.670   4.427  16.889  0.00  0.00    +0.000 NA
ATOM     12  C   UNL     1       5.714   4.529  17.824  0.00  0.00    +0.000 A 
ATOM     13  C   UNL     1       4.770   5.554  17.953  0.00  0.00    +0.000 A 
ATOM     14  C   UNL     1       3.699   5.685  18.928  0.00  0.00    +0.000 A 
ATOM     15  C   UNL     1       3.409   4.756  19.963  0.00  0.00    +0.000 A 
ATOM     16  H   UNL     1       7.826   6.232  14.597  0.00  0.00    +0.000 HD
ATOM     17  H   UNL     1       8.395   4.726  15.236  0.00  0.00    +0.000 HD
ENDROOT
BRANCH  12  18
ATOM     18  O   UNL     1       5.755   3.469  18.672  0.00  0.00    +0.000 OA
ATOM     19  H   UNL     1       6.686   3.201  18.572  0.00  0.00    +0.000 HD
ENDBRANCH  12  18
BRANCH   1  20
ATOM     20  O   UNL     1       2.229   3.944  21.810  0.00  0.00    +0.000 OA
BRANCH  20  22
ATOM     21  C   UNL     1       1.007   2.543  20.306  0.00  0.00    +0.000 C 
ATOM     22  C   UNL     1       2.131   2.608  21.321  0.00  0.00    +0.000 C 
ENDBRANCH  20  22
ENDBRANCH   1  20
TORSDOF 3
ENDMDL
MODEL 4
REMARK VINA RESULT:      -7.1      3.283      5.955
REMARK  Name = 
REMARK  4 active torsions:
REMARK  status: ('A' for Active; 'I' for Inactive)
REMARK    1  A    between atoms: C_1  and  C_2
REMARK    2  A    between atoms: C_2  and  O_3
REMARK    3  A    between atoms: O_3  and  C_4
REMARK    4  A    between atoms: C_15  and  O_16
REMARK                            x       y       z     vdW  Elec       q    Type
REMARK                         _______ _______ _______ _____ _____    ______ ____
ROOT
ATOM      1  C   UNL     1       1.220   8.839  19.841  0.00  0.00    +0.000 A 
ATOM      2  C   UNL     1       1.545   9.513  18.671  0.00  0.00    +0.000 A 
ATOM      3  C   UNL     1       2.398   8.916  17.745  0.00  0.00    +0.000 A 
ATOM      4  C   UNL     1       2.935   7.640  17.970  0.00  0.00    +0.000 A 
ATOM      5  C   UNL     1       3.787   7.080  17.020  0.00  0.00    +0.000 A 
ATOM      6  C   UNL     1       4.328   5.811  17.214  0.00  0.00    +0.000 A 
ATOM      7  C   UNL     1       4.041   5.056  18.337  0.00  0.00    +0.000 A 
ATOM      8  N   UNL     1       4.590   3.834  18.409  0.00  0.00    +0.000 NA
ATOM      9  C   UNL     1       4.295   3.077  19.463  0.00  0.00    +0.000 A 
ATOM     10  N   UNL     1       4.805   1.798  19.495  0.00  0.00    +0.000 N 
ATOM     11  N   UNL     1       3.548   3.467  20.487  0.00  0.00    +0.000 NA
ATOM     12  C   UNL     1       3.025   4.696  20.379  0.00  0.00    +0.000 A 
ATOM     13  C   UNL     1       3.196   5.593  19.317  0.00  0.00    +0.000 A 
ATOM     14  C   UNL     1       2.621   6.917  19.145  0.00  0.00    +0.000 A 
ATOM     15  C   UNL     1       1.748   7.561  20.062  0.00  0.00    +0.000 A 
ATOM     16  H   UNL     1       5.624   1.719  18.910  0.00  0.00    +0.000 HD
ATOM     17  H   UNL     1       4.860   1.448  20.440  0.00  0.00    +0.000 HD
ENDROOT
BRANCH  12  18
ATOM     18  O   UNL     1       2.263   4.993  21.463  0.00  0.00    +0.000 OA
ATOM     19  H   UNL     1       1.449   5.301  21.024  0.00  0.00    +0.000 HD
ENDBRANCH  12  18
BRANCH   1  20
ATOM     20  O   UNL     1       0.403   9.311  20.833  0.00  0.00    +0.000 OA
BRANCH  20  22
ATOM     21  C   UNL     1      -0.203   9.661  23.119  0.00  0.00    +0.000 C 
ATOM     22  C   UNL     1       0.802   9.034  22.173  0.00  0.00    +0.000 C 
ENDBRANCH  20  22
ENDBRANCH   1  20
TORSDOF 3
ENDMDL
MODEL 5
REMARK VINA RESULT:      -7.1      1.673      1.992
REMARK  Name = 
REMARK  4 active torsions:
REMARK  status: ('A' for Active; 'I' for Inactive)
REMARK    1  A    between atoms: C_1  and  C_2
REMARK    2  A    between atoms: C_2  and  O_3
REMARK    3  A    between atoms: O_3  and  C_4
REMARK    4  A    between atoms: C_15  and  O_16
REMARK                            x       y       z     vdW  Elec       q    Type
REMARK                         _______ _______ _______ _____ _____    ______ ____
ROOT
ATOM      1  C   UNL     1       5.710   4.272  14.380  0.00  0.00    +0.000 A 
ATOM      2  C   UNL     1       6.946   4.822  14.692  0.00  0.00    +0.000 A 
ATOM      3  C   UNL     1       7.217   5.214  16.002  0.00  0.00    +0.000 A 
ATOM      4  C   UNL     1       6.262   5.060  17.017  0.00  0.00    +0.000 A 
ATOM      5  C   UNL     1       6.572   5.468  18.314  0.00  0.00    +0.000 A 
ATOM      6  C   UNL     1       5.645   5.319  19.343  0.00  0.00    +0.000 A 
ATOM      7  C   UNL     1       4.399   4.759  19.132  0.00  0.00    +0.000 A 
ATOM      8  N   UNL     1       3.597   4.633  20.199  0.00  0.00    +0.000 NA
ATOM      9  C   UNL     1       2.407   4.062  20.024  0.00  0.00    +0.000 A 
ATOM     10  N   UNL     1       1.617   3.872  21.136  0.00  0.00    +0.000 N 
ATOM     11  N   UNL     1       1.926   3.665  18.854  0.00  0.00    +0.000 NA
ATOM     12  C   UNL     1       2.756   3.815  17.812  0.00  0.00    +0.000 A 
ATOM     13  C   UNL     1       4.051   4.347  17.838  0.00  0.00    +0.000 A 
ATOM     14  C   UNL     1       4.995   4.496  16.743  0.00  0.00    +0.000 A 
ATOM     15  C   UNL     1       4.760   4.109  15.396  0.00  0.00    +0.000 A 
ATOM     16  H   UNL     1       1.874   4.509  21.876  0.00  0.00    +0.000 HD
ATOM     17  H   UNL     1       0.643   3.799  20.887  0.00  0.00    +0.000 HD
ENDROOT
BRANCH  12  18
ATOM     18  O   UNL     1       2.182   3.362  16.669  0.00  0.00    +0.000 OA
ATOM     19  H   UNL     1       1.588   2.679  17.030  0.00  0.00    +0.000 HD
ENDBRANCH  12  18
BRANCH   1  20
ATOM     20  O   UNL     1       5.313   3.854  13.139  0.00  0.00    +0.000 OA
BRANCH  20  22
ATOM     21  C   UNL     1       5.762   2.154  11.518  0.00  0.00    +0.000 C 
ATOM     22  C   UNL     1       6.329   3.330  12.287  0.00  0.00    +0.000 C 
ENDBRANCH  20  22
ENDBRANCH   1  20
TORSDOF 3
ENDMDL
MODEL 6
REMARK VINA RESULT:      -7.0      1.721      1.911
REMARK  Name = 
REMARK  4 active torsions:
REMARK  status: ('A' for Active; 'I' for Inactive)
REMARK    1  A    between atoms: C_1  and  C_2
REMARK    2  A    between atoms: C_2  and  O_3
REMARK    3  A    between atoms: O_3  and  C_4
REMARK    4  A    between atoms: C_15  and  O_16
REMARK                            x       y       z     vdW  Elec       q    Type
REMARK                         _______ _______ _______ _____ _____    ______ ____
ROOT
ATOM      1  C   UNL     1       6.336   4.264  15.057  0.00  0.00    +0.000 A 
ATOM      2  C   UNL     1       7.360   4.901  15.746  0.00  0.00    +0.000 A 
ATOM      3  C   UNL     1       7.175   5.262  17.080  0.00  0.00    +0.000 A 
ATOM      4  C   UNL     1       5.969   4.991  17.744  0.00  0.00    +0.000 A 
ATOM      5  C   UNL     1       5.823   5.372  19.076  0.00  0.00    +0.000 A 
ATOM      6  C   UNL     1       4.640   5.108  19.763  0.00  0.00    +0.000 A 
ATOM      7  C   UNL     1       3.576   4.457  19.165  0.00  0.00    +0.000 A 
ATOM      8  N   UNL     1       2.497   4.224  19.926  0.00  0.00    +0.000 NA
ATOM      9  C   UNL     1       1.477   3.565  19.382  0.00  0.00    +0.000 A 
ATOM     10  N   UNL     1       0.402   3.268  20.188  0.00  0.00    +0.000 N 
ATOM     11  N   UNL     1       1.421   3.176  18.115  0.00  0.00    +0.000 NA
ATOM     12  C   UNL     1       2.516   3.434  17.387  0.00  0.00    +0.000 A 
ATOM     13  C   UNL     1       3.686   4.069  17.823  0.00  0.00    +0.000 A 
ATOM     14  C   UNL     1       4.906   4.337  17.079  0.00  0.00    +0.000 A 
ATOM     15  C   UNL     1       5.137   3.985  15.723  0.00  0.00    +0.000 A 
ATOM     16  H   UNL     1       0.357   3.895  20.979  0.00  0.00    +0.000 HD
ATOM     17  H   UNL     1      -0.437   3.125  19.646  0.00  0.00    +0.000 HD
ENDROOT
BRANCH  12  18
ATOM     18  O   UNL     1       2.369   2.980  16.116  0.00  0.00    +0.000 OA
ATOM     19  H   UNL     1       3.302   2.850  15.868  0.00  0.00    +0.000 HD
ENDBRANCH  12  18
BRANCH   1  20
ATOM     20  O   UNL     1       6.384   3.864  13.749  0.00  0.00    +0.000 OA
BRANCH  20  22
ATOM     21  C   UNL     1       5.354   2.913  11.812  0.00  0.00    +0.000 C 
ATOM     22  C   UNL     1       5.133   3.708  13.084  0.00  0.00    +0.000 C 
ENDBRANCH  20  22
ENDBRANCH   1  20
TORSDOF 3
ENDMDL
MODEL 7
REMARK VINA RESULT:      -7.0      3.500      6.405
REMARK  Name = 
REMARK  4 active torsions:
REMARK  status: ('A' for Active; 'I' for Inactive)
REMARK    1  A    between atoms: C_1  and  C_2
REMARK    2  A    between atoms: C_2  and  O_3
REMARK    3  A    between atoms: O_3  and  C_4
REMARK    4  A    between atoms: C_15  and  O_16
REMARK                            x       y       z     vdW  Elec       q    Type
REMARK                         _______ _______ _______ _____ _____    ______ ____
ROOT
ATOM      1  C   UNL     1       1.753   5.879  20.355  0.00  0.00    +0.000 A 
ATOM      2  C   UNL     1       1.294   4.596  20.625  0.00  0.00    +0.000 A 
ATOM      3  C   UNL     1       1.739   3.527  19.850  0.00  0.00    +0.000 A 
ATOM      4  C   UNL     1       2.649   3.721  18.800  0.00  0.00    +0.000 A 
ATOM      5  C   UNL     1       3.067   2.625  18.047  0.00  0.00    +0.000 A 
ATOM      6  C   UNL     1       3.976   2.788  17.003  0.00  0.00    +0.000 A 
ATOM      7  C   UNL     1       4.505   4.024  16.679  0.00  0.00    +0.000 A 
ATOM      8  N   UNL     1       5.396   4.063  15.678  0.00  0.00    +0.000 NA
ATOM      9  C   UNL     1       5.946   5.237  15.375  0.00  0.00    +0.000 A 
ATOM     10  N   UNL     1       6.912   5.258  14.394  0.00  0.00    +0.000 N 
ATOM     11  N   UNL     1       5.627   6.390  15.948  0.00  0.00    +0.000 NA
ATOM     12  C   UNL     1       4.728   6.308  16.938  0.00  0.00    +0.000 A 
ATOM     13  C   UNL     1       4.099   5.148  17.409  0.00  0.00    +0.000 A 
ATOM     14  C   UNL     1       3.147   5.011  18.500  0.00  0.00    +0.000 A 
ATOM     15  C   UNL     1       2.668   6.071  19.314  0.00  0.00    +0.000 A 
ATOM     16  H   UNL     1       6.823   4.461  13.780  0.00  0.00    +0.000 HD
ATOM     17  H   UNL     1       6.993   6.173  13.977  0.00  0.00    +0.000 HD
ENDROOT
BRANCH  12  18
ATOM     18  O   UNL     1       4.485   7.532  17.473  0.00  0.00    +0.000 OA
ATOM     19  H   UNL     1       4.339   7.289  18.405  0.00  0.00    +0.000 HD
ENDBRANCH  12  18
BRANCH   1  20
ATOM     20  O   UNL     1       1.392   7.013  21.032  0.00  0.00    +0.000 OA
BRANCH  20  22
ATOM     21  C   UNL     1       0.598   9.267  20.957  0.00  0.00    +0.000 C 
ATOM     22  C   UNL     1       1.522   8.245  20.326  0.00  0.00    +0.000 C 
ENDBRANCH  20  22
ENDBRANCH   1  20
TORSDOF 3
ENDMDL
MODEL 8
REMARK VINA RESULT:      -7.0      1.227      1.538
REMARK  Name = 
REMARK  4 active torsions:
REMARK  status: ('A' for Active; 'I' for Inactive)
REMARK    1  A    between atoms: C_1  and  C_2
REMARK    2  A    between atoms: C_2  and  O_3
REMARK    3  A    between atoms: O_3  and  C_4
REMARK    4  A    between atoms: C_15  and  O_16
REMARK                            x       y       z     vdW  Elec       q    Type
REMARK                         _______ _______ _______ _____ _____    ______ ____
ROOT
ATOM      1  C   UNL     1       4.971   5.272  16.107  0.00  0.00    +0.000 A 
ATOM      2  C   UNL     1       4.853   6.655  16.168  0.00  0.00    +0.000 A 
ATOM      3  C   UNL     1       4.092   7.239  17.179  0.00  0.00    +0.000 A 
ATOM      4  C   UNL     1       3.442   6.454  18.143  0.00  0.00    +0.000 A 
ATOM      5  C   UNL     1       2.688   7.078  19.135  0.00  0.00    +0.000 A 
ATOM      6  C   UNL     1       2.039   6.323  20.111  0.00  0.00    +0.000 A 
ATOM      7  C   UNL     1       2.120   4.944  20.144  0.00  0.00    +0.000 A 
ATOM      8  N   UNL     1       1.484   4.318  21.144  0.00  0.00    +0.000 NA
ATOM      9  C   UNL     1       1.581   2.992  21.217  0.00  0.00    +0.000 A 
ATOM     10  N   UNL     1       0.984   2.363  22.286  0.00  0.00    +0.000 N 
ATOM     11  N   UNL     1       2.210   2.233  20.330  0.00  0.00    +0.000 NA
ATOM     12  C   UNL     1       2.826   2.896  19.342  0.00  0.00    +0.000 A 
ATOM     13  C   UNL     1       2.862   4.284  19.155  0.00  0.00    +0.000 A 
ATOM     14  C   UNL     1       3.545   5.044  18.121  0.00  0.00    +0.000 A 
ATOM     15  C   UNL     1       4.331   4.490  17.075  0.00  0.00    +0.000 A 
ATOM     16  H   UNL     1       0.247   2.932  22.677  0.00  0.00    +0.000 HD
ATOM     17  H   UNL     1       0.779   1.397  22.077  0.00  0.00    +0.000 HD
ENDROOT
BRANCH  12  18
ATOM     18  O   UNL     1       3.455   2.035  18.502  0.00  0.00    +0.000 OA
ATOM     19  H   UNL     1       2.790   1.965  17.794  0.00  0.00    +0.000 HD
ENDBRANCH  12  18
BRANCH   1  20
ATOM     20  O   UNL     1       5.678   4.573  15.166  0.00  0.00    +0.000 OA
BRANCH  20  22
ATOM     21  C   UNL     1       7.529   4.520  16.680  0.00  0.00    +0.000 C 
ATOM     22  C   UNL     1       7.099   4.671  15.234  0.00  0.00    +0.000 C 
ENDBRANCH  20  22
ENDBRANCH   1  20
TORSDOF 3
ENDMDL
MODEL 9
REMARK VINA RESULT:      -6.9      3.083      5.963
REMARK  Name = 
REMARK  4 active torsions:
REMARK  status: ('A' for Active; 'I' for Inactive)
REMARK    1  A    between atoms: C_1  and  C_2
REMARK    2  A    between atoms: C_2  and  O_3
REMARK    3  A    between atoms: O_3  and  C_4
REMARK    4  A    between atoms: C_15  and  O_16
REMARK                            x       y       z     vdW  Elec       q    Type
REMARK                         _______ _______ _______ _____ _____    ______ ____
ROOT
ATOM      1  C   UNL     1       1.234   7.896  20.578  0.00  0.00    +0.000 A 
ATOM      2  C   UNL     1       1.635   8.789  19.593  0.00  0.00    +0.000 A 
ATOM      3  C   UNL     1       2.423   8.341  18.534  0.00  0.00    +0.000 A 
ATOM      4  C   UNL     1       2.818   6.999  18.440  0.00  0.00    +0.000 A 
ATOM      5  C   UNL     1       3.609   6.593  17.367  0.00  0.00    +0.000 A 
ATOM      6  C   UNL     1       4.009   5.263  17.245  0.00  0.00    +0.000 A 
ATOM      7  C   UNL     1       3.637   4.299  18.164  0.00  0.00    +0.000 A 
ATOM      8  N   UNL     1       4.049   3.044  17.934  0.00  0.00    +0.000 NA
ATOM      9  C   UNL     1       3.670   2.094  18.786  0.00  0.00    +0.000 A 
ATOM     10  N   UNL     1       4.039   0.798  18.505  0.00  0.00    +0.000 N 
ATOM     11  N   UNL     1       2.965   2.308  19.888  0.00  0.00    +0.000 NA
ATOM     12  C   UNL     1       2.579   3.576  20.085  0.00  0.00    +0.000 A 
ATOM     13  C   UNL     1       2.850   4.675  19.261  0.00  0.00    +0.000 A 
ATOM     14  C   UNL     1       2.423   6.056  19.418  0.00  0.00    +0.000 A 
ATOM     15  C   UNL     1       1.620   6.554  20.479  0.00  0.00    +0.000 A 
ATOM     16  H   UNL     1       4.847   0.773  17.900  0.00  0.00    +0.000 HD
ATOM     17  H   UNL     1       4.051   0.230  19.339  0.00  0.00    +0.000 HD
ENDROOT
BRANCH  12  18
ATOM     18  O   UNL     1       1.848   3.687  21.224  0.00  0.00    +0.000 OA
ATOM     19  H   UNL     1       1.738   2.746  21.453  0.00  0.00    +0.000 HD
ENDBRANCH  12  18
BRANCH   1  20
ATOM     20  O   UNL     1       0.469   8.204  21.670  0.00  0.00    +0.000 OA
BRANCH  20  22
ATOM     21  C   UNL     1      -0.377   9.941  23.078  0.00  0.00    +0.000 C 
ATOM     22  C   UNL     1       0.854   9.358  22.413  0.00  0.00    +0.000 C 
ENDBRANCH  20  22
ENDBRANCH   1  20
TORSDOF 3
ENDMDL
