MODEL 1
REMARK VINA RESULT:      -8.0      0.000      0.000
REMARK  Name = 
REMARK  8 active torsions:
REMARK  status: ('A' for Active; 'I' for Inactive)
REMARK    1  A    between atoms: C_2  and  O_3
REMARK    2  A    between atoms: C_2  and  C_18
REMARK    3  A    between atoms: O_3  and  C_4
REMARK    4  A    between atoms: C_4  and  C_5
REMARK    5  A    between atoms: C_5  and  N_6
REMARK    6  A    between atoms: N_9  and  C_10
REMARK    7  A    between atoms: C_18  and  C_19
REMARK    8  A    between atoms: C_22  and  N_23
REMARK                            x       y       z     vdW  Elec       q    Type
REMARK                         _______ _______ _______ _____ _____    ______ ____
ROOT
ATOM      1  O   UNL     1       1.629   7.309  20.617  0.00  0.00    +0.000 OA
ATOM      2  C   UNL     1       2.007   6.784  19.580  0.00  0.00    +0.000 C 
ENDROOT
BRANCH   2   3
ATOM      3  C   UNL     1       2.397   5.285  19.580  0.00  0.00    +0.000 C 
ATOM      4  C   UNL     1       2.350   4.713  21.025  0.00  0.00    +0.000 C 
ATOM      5  C   UNL     1       2.277   3.203  20.834  0.00  0.00    +0.000 C 
ATOM      6  C   UNL     1       1.418   3.012  19.581  0.00  0.00    +0.000 C 
ATOM      7  C   UNL     1       1.291   4.413  18.947  0.00  0.00    +0.000 C 
BRANCH   3   8
ATOM      8  C   UNL     1       3.743   5.093  18.839  0.00  0.00    +0.000 A 
ATOM      9  C   UNL     1       3.856   4.542  17.541  0.00  0.00    +0.000 A 
ATOM     10  C   UNL     1       5.107   4.350  16.943  0.00  0.00    +0.000 A 
ATOM     11  C   UNL     1       6.290   4.685  17.620  0.00  0.00    +0.000 A 
ATOM     12  C   UNL     1       6.189   5.245  18.903  0.00  0.00    +0.000 A 
ATOM     13  C   UNL     1       4.941   5.455  19.494  0.00  0.00    +0.000 A 
BRANCH  11  14
ATOM     14  N   UNL     1       7.571   4.446  17.030  0.00  0.00    +0.000 N 
ATOM     15  O   UNL     1       7.718   4.544  15.851  0.00  0.00    +0.000 OA
ATOM     16  O   UNL     1       8.572   4.026  17.771  0.00  0.00    +0.000 OA
ENDBRANCH  11  14
ENDBRANCH   3   8
ENDBRANCH   2   3
BRANCH   2  17
ATOM     17  O   UNL     1       2.076   7.533  18.441  0.00  0.00    +0.000 OA
BRANCH  17  18
ATOM     18  C   UNL     1       2.262   8.911  18.338  0.00  0.00    +0.000 C 
BRANCH  18  19
ATOM     19  C   UNL     1       0.993   9.811  18.296  0.00  0.00    +0.000 C 
BRANCH  19  20
ATOM     20  N   UNL     1       1.085  11.080  19.070  0.00  0.00    +0.000 NA
ATOM     21  C   UNL     1       0.114  12.130  18.668  0.00  0.00    +0.000 C 
ATOM     22  C   UNL     1      -1.337  11.802  19.097  0.00  0.00    +0.000 C 
ATOM     23  N   UNL     1      -1.372  11.550  20.532  0.00  0.00    +0.000 N 
ATOM     24  C   UNL     1      -0.443  10.528  21.002  0.00  0.00    +0.000 C 
ATOM     25  C   UNL     1       0.993  10.854  20.539  0.00  0.00    +0.000 C 
BRANCH  23  26
ATOM     26  C   UNL     1      -2.333  12.189  21.405  0.00  0.00    +0.000 A 
ATOM     27  C   UNL     1      -2.291  11.964  22.802  0.00  0.00    +0.000 A 
ATOM     28  C   UNL     1      -3.173  12.618  23.669  0.00  0.00    +0.000 A 
ATOM     29  C   UNL     1      -4.128  13.497  23.167  0.00  0.00    +0.000 A 
ATOM     30  C   UNL     1      -4.203  13.729  21.793  0.00  0.00    +0.000 A 
ATOM     31  C   UNL     1      -3.310  13.090  20.915  0.00  0.00    +0.000 A 
ENDBRANCH  23  26
ENDBRANCH  19  20
ENDBRANCH  18  19
ENDBRANCH  17  18
ENDBRANCH   2  17
TORSDOF 8
ENDMDL
MODEL 2
REMARK VINA RESULT:      -8.0      6.901     10.784
REMARK  Name = 
REMARK  8 active torsions:
REMARK  status: ('A' for Active; 'I' for Inactive)
REMARK    1  A    between atoms: C_2  and  O_3
REMARK    2  A    between atoms: C_2  and  C_18
REMARK    3  A    between atoms: O_3  and  C_4
REMARK    4  A    between atoms: C_4  and  C_5
REMARK    5  A    between atoms: C_5  and  N_6
REMARK    6  A    between atoms: N_9  and  C_10
REMARK    7  A    between atoms: C_18  and  C_19
REMARK    8  A    between atoms: C_22  and  N_23
REMARK                            x       y       z     vdW  Elec       q    Type
REMARK                         _______ _______ _______ _____ _____    ______ ____
ROOT
ATOM      1  O   UNL     1       9.089  10.296  20.561  0.00  0.00    +0.000 OA
ATOM      2  C   UNL     1       9.318  10.584  19.395  0.00  0.00    +0.000 C 
ENDROOT
BRANCH   2   3
ATOM      3  C   UNL     1      10.112  11.872  19.067  0.00  0.00    +0.000 C 
ATOM      4  C   UNL     1      11.361  11.987  19.986  0.00  0.00    +0.000 C 
ATOM      5  C   UNL     1      12.270  12.979  19.270  0.00  0.00    +0.000 C 
ATOM      6  C   UNL     1      12.062  12.692  17.782  0.00  0.00    +0.000 C 
ATOM      7  C   UNL     1      10.832  11.762  17.705  0.00  0.00    +0.000 C 
BRANCH   3   8
ATOM      8  C   UNL     1       9.163  13.095  19.092  0.00  0.00    +0.000 A 
ATOM      9  C   UNL     1       8.497  13.598  17.950  0.00  0.00    +0.000 A 
ATOM     10  C   UNL     1       7.687  14.738  18.028  0.00  0.00    +0.000 A 
ATOM     11  C   UNL     1       7.523  15.425  19.241  0.00  0.00    +0.000 A 
ATOM     12  C   UNL     1       8.168  14.927  20.383  0.00  0.00    +0.000 A 
ATOM     13  C   UNL     1       8.961  13.779  20.312  0.00  0.00    +0.000 A 
BRANCH  11  14
ATOM     14  N   UNL     1       6.734  16.616  19.314  0.00  0.00    +0.000 N 
ATOM     15  O   UNL     1       5.789  16.670  20.040  0.00  0.00    +0.000 OA
ATOM     16  O   UNL     1       6.988  17.626  18.511  0.00  0.00    +0.000 OA
ENDBRANCH  11  14
ENDBRANCH   3   8
ENDBRANCH   2   3
BRANCH   2  17
ATOM     17  O   UNL     1       8.868   9.759  18.405  0.00  0.00    +0.000 OA
BRANCH  17  18
ATOM     18  C   UNL     1       8.477   8.426  18.520  0.00  0.00    +0.000 C 
BRANCH  18  19
ATOM     19  C   UNL     1       7.530   7.853  17.426  0.00  0.00    +0.000 C 
BRANCH  19  20
ATOM     20  N   UNL     1       7.582   6.376  17.246  0.00  0.00    +0.000 NA
ATOM     21  C   UNL     1       7.472   5.587  18.501  0.00  0.00    +0.000 C 
ATOM     22  C   UNL     1       6.046   5.612  19.102  0.00  0.00    +0.000 C 
ATOM     23  N   UNL     1       5.089   5.168  18.097  0.00  0.00    +0.000 N 
ATOM     24  C   UNL     1       5.138   5.897  16.834  0.00  0.00    +0.000 C 
ATOM     25  C   UNL     1       6.572   5.889  16.264  0.00  0.00    +0.000 C 
BRANCH  23  26
ATOM     26  C   UNL     1       4.095   4.153  18.372  0.00  0.00    +0.000 A 
ATOM     27  C   UNL     1       2.874   4.135  17.657  0.00  0.00    +0.000 A 
ATOM     28  C   UNL     1       1.925   3.129  17.865  0.00  0.00    +0.000 A 
ATOM     29  C   UNL     1       2.160   2.127  18.803  0.00  0.00    +0.000 A 
ATOM     30  C   UNL     1       3.348   2.126  19.534  0.00  0.00    +0.000 A 
ATOM     31  C   UNL     1       4.315   3.122  19.318  0.00  0.00    +0.000 A 
ENDBRANCH  23  26
ENDBRANCH  19  20
ENDBRANCH  18  19
ENDBRANCH  17  18
ENDBRANCH   2  17
TORSDOF 8
ENDMDL
MODEL 3
REMARK VINA RESULT:      -7.9      1.898      2.440
REMARK  Name = 
REMARK  8 active torsions:
REMARK  status: ('A' for Active; 'I' for Inactive)
REMARK    1  A    between atoms: C_2  and  O_3
REMARK    2  A    between atoms: C_2  and  C_18
REMARK    3  A    between atoms: O_3  and  C_4
REMARK    4  A    between atoms: C_4  and  C_5
REMARK    5  A    between atoms: C_5  and  N_6
REMARK    6  A    between atoms: N_9  and  C_10
REMARK    7  A    between atoms: C_18  and  C_19
REMARK    8  A    between atoms: C_22  and  N_23
REMARK                            x       y       z     vdW  Elec       q    Type
REMARK                         _______ _______ _______ _____ _____    ______ ____
ROOT
ATOM      1  O   UNL     1       1.968   4.276  21.513  0.00  0.00    +0.000 OA
ATOM      2  C   UNL     1       2.165   4.810  20.432  0.00  0.00    +0.000 C 
ENDROOT
BRANCH   2   3
ATOM      3  C   UNL     1       2.811   3.997  19.284  0.00  0.00    +0.000 C 
ATOM      4  C   UNL     1       3.045   2.525  19.727  0.00  0.00    +0.000 C 
ATOM      5  C   UNL     1       3.218   1.758  18.422  0.00  0.00    +0.000 C 
ATOM      6  C   UNL     1       2.259   2.438  17.443  0.00  0.00    +0.000 C 
ATOM      7  C   UNL     1       1.807   3.739  18.138  0.00  0.00    +0.000 C 
BRANCH   3   8
ATOM      8  C   UNL     1       4.068   4.734  18.760  0.00  0.00    +0.000 A 
ATOM      9  C   UNL     1       5.331   4.684  19.392  0.00  0.00    +0.000 A 
ATOM     10  C   UNL     1       6.420   5.412  18.895  0.00  0.00    +0.000 A 
ATOM     11  C   UNL     1       6.284   6.227  17.760  0.00  0.00    +0.000 A 
ATOM     12  C   UNL     1       5.039   6.274  17.116  0.00  0.00    +0.000 A 
ATOM     13  C   UNL     1       3.957   5.533  17.600  0.00  0.00    +0.000 A 
BRANCH  11  14
ATOM     14  N   UNL     1       7.382   7.008  17.278  0.00  0.00    +0.000 N 
ATOM     15  O   UNL     1       7.927   6.716  16.259  0.00  0.00    +0.000 OA
ATOM     16  O   UNL     1       7.857   7.997  18.002  0.00  0.00    +0.000 OA
ENDBRANCH  11  14
ENDBRANCH   3   8
ENDBRANCH   2   3
BRANCH   2  17
ATOM     17  O   UNL     1       1.808   6.116  20.260  0.00  0.00    +0.000 OA
BRANCH  17  18
ATOM     18  C   UNL     1       1.319   6.999  21.222  0.00  0.00    +0.000 C 
BRANCH  18  19
ATOM     19  C   UNL     1       0.797   8.382  20.735  0.00  0.00    +0.000 C 
BRANCH  19  20
ATOM     20  N   UNL     1       1.273   9.555  21.519  0.00  0.00    +0.000 NA
ATOM     21  C   UNL     1       0.946  10.879  20.927  0.00  0.00    +0.000 C 
ATOM     22  C   UNL     1      -0.557  11.230  21.035  0.00  0.00    +0.000 C 
ATOM     23  N   UNL     1      -0.976  11.140  22.428  0.00  0.00    +0.000 N 
ATOM     24  C   UNL     1      -0.688   9.867  23.078  0.00  0.00    +0.000 C 
ATOM     25  C   UNL     1       0.808   9.517  22.934  0.00  0.00    +0.000 C 
BRANCH  23  26
ATOM     26  C   UNL     1      -1.719  12.198  23.080  0.00  0.00    +0.000 A 
ATOM     27  C   UNL     1      -1.138  13.477  23.254  0.00  0.00    +0.000 A 
ATOM     28  C   UNL     1      -1.859  14.529  23.828  0.00  0.00    +0.000 A 
ATOM     29  C   UNL     1      -3.167  14.330  24.259  0.00  0.00    +0.000 A 
ATOM     30  C   UNL     1      -3.762  13.076  24.114  0.00  0.00    +0.000 A 
ATOM     31  C   UNL     1      -3.052  12.018  23.522  0.00  0.00    +0.000 A 
ENDBRANCH  23  26
ENDBRANCH  19  20
ENDBRANCH  18  19
ENDBRANCH  17  18
ENDBRANCH   2  17
TORSDOF 8
ENDMDL
MODEL 4
REMARK VINA RESULT:      -7.8      1.950      3.294
REMARK  Name = 
REMARK  8 active torsions:
REMARK  status: ('A' for Active; 'I' for Inactive)
REMARK    1  A    between atoms: C_2  and  O_3
REMARK    2  A    between atoms: C_2  and  C_18
REMARK    3  A    between atoms: O_3  and  C_4
REMARK    4  A    between atoms: C_4  and  C_5
REMARK    5  A    between atoms: C_5  and  N_6
REMARK    6  A    between atoms: N_9  and  C_10
REMARK    7  A    between atoms: C_18  and  C_19
REMARK    8  A    between atoms: C_22  and  N_23
REMARK                            x       y       z     vdW  Elec       q    Type
REMARK                         _______ _______ _______ _____ _____    ______ ____
ROOT
ATOM      1  O   UNL     1       2.464   7.653  18.880  0.00  0.00    +0.000 OA
ATOM      2  C   UNL     1       2.077   6.903  19.764  0.00  0.00    +0.000 C 
ENDROOT
BRANCH   2   3
ATOM      3  C   UNL     1       2.394   5.390  19.675  0.00  0.00    +0.000 C 
ATOM      4  C   UNL     1       2.324   4.738  21.085  0.00  0.00    +0.000 C 
ATOM      5  C   UNL     1       2.178   3.247  20.807  0.00  0.00    +0.000 C 
ATOM      6  C   UNL     1       1.308   3.170  19.551  0.00  0.00    +0.000 C 
ATOM      7  C   UNL     1       1.246   4.610  18.999  0.00  0.00    +0.000 C 
BRANCH   3   8
ATOM      8  C   UNL     1       3.728   5.177  18.917  0.00  0.00    +0.000 A 
ATOM      9  C   UNL     1       3.810   4.695  17.590  0.00  0.00    +0.000 A 
ATOM     10  C   UNL     1       5.050   4.479  16.974  0.00  0.00    +0.000 A 
ATOM     11  C   UNL     1       6.249   4.720  17.662  0.00  0.00    +0.000 A 
ATOM     12  C   UNL     1       6.179   5.211  18.975  0.00  0.00    +0.000 A 
ATOM     13  C   UNL     1       4.943   5.446  19.584  0.00  0.00    +0.000 A 
BRANCH  11  14
ATOM     14  N   UNL     1       7.516   4.455  17.052  0.00  0.00    +0.000 N 
ATOM     15  O   UNL     1       7.639   4.522  15.868  0.00  0.00    +0.000 OA
ATOM     16  O   UNL     1       8.528   4.046  17.783  0.00  0.00    +0.000 OA
ENDBRANCH  11  14
ENDBRANCH   3   8
ENDBRANCH   2   3
BRANCH   2  17
ATOM     17  O   UNL     1       1.375   7.419  20.815  0.00  0.00    +0.000 OA
BRANCH  17  18
ATOM     18  C   UNL     1       1.155   8.762  21.114  0.00  0.00    +0.000 C 
BRANCH  18  19
ATOM     19  C   UNL     1       0.146   9.545  20.224  0.00  0.00    +0.000 C 
BRANCH  19  20
ATOM     20  N   UNL     1      -0.382  10.806  20.814  0.00  0.00    +0.000 NA
ATOM     21  C   UNL     1       0.652  11.726  21.356  0.00  0.00    +0.000 C 
ATOM     22  C   UNL     1       1.478  12.419  20.245  0.00  0.00    +0.000 C 
ATOM     23  N   UNL     1       0.577  13.098  19.323  0.00  0.00    +0.000 N 
ATOM     24  C   UNL     1      -0.468  12.257  18.750  0.00  0.00    +0.000 C 
ATOM     25  C   UNL     1      -1.262  11.549  19.869  0.00  0.00    +0.000 C 
BRANCH  23  26
ATOM     26  C   UNL     1       0.773  14.475  18.926  0.00  0.00    +0.000 A 
ATOM     27  C   UNL     1      -0.339  15.333  18.746  0.00  0.00    +0.000 A 
ATOM     28  C   UNL     1      -0.170  16.683  18.420  0.00  0.00    +0.000 A 
ATOM     29  C   UNL     1       1.108  17.207  18.247  0.00  0.00    +0.000 A 
ATOM     30  C   UNL     1       2.223  16.383  18.404  0.00  0.00    +0.000 A 
ATOM     31  C   UNL     1       2.064  15.031  18.750  0.00  0.00    +0.000 A 
ENDBRANCH  23  26
ENDBRANCH  19  20
ENDBRANCH  18  19
ENDBRANCH  17  18
ENDBRANCH   2  17
TORSDOF 8
ENDMDL
MODEL 5
REMARK VINA RESULT:      -7.7      1.477      2.212
REMARK  Name = 
REMARK  8 active torsions:
REMARK  status: ('A' for Active; 'I' for Inactive)
REMARK    1  A    between atoms: C_2  and  O_3
REMARK    2  A    between atoms: C_2  and  C_18
REMARK    3  A    between atoms: O_3  and  C_4
REMARK    4  A    between atoms: C_4  and  C_5
REMARK    5  A    between atoms: C_5  and  N_6
REMARK    6  A    between atoms: N_9  and  C_10
REMARK    7  A    between atoms: C_18  and  C_19
REMARK    8  A    between atoms: C_22  and  N_23
REMARK                            x       y       z     vdW  Elec       q    Type
REMARK                         _______ _______ _______ _____ _____    ______ ____
ROOT
ATOM      1  O   UNL     1       1.219   6.851  20.976  0.00  0.00    +0.000 OA
ATOM      2  C   UNL     1       2.000   6.467  20.117  0.00  0.00    +0.000 C 
ENDROOT
BRANCH   2   3
ATOM      3  C   UNL     1       2.298   4.954  19.977  0.00  0.00    +0.000 C 
ATOM      4  C   UNL     1       2.428   4.295  21.379  0.00  0.00    +0.000 C 
ATOM      5  C   UNL     1       2.241   2.805  21.118  0.00  0.00    +0.000 C 
ATOM      6  C   UNL     1       1.200   2.736  19.998  0.00  0.00    +0.000 C 
ATOM      7  C   UNL     1       1.063   4.178  19.467  0.00  0.00    +0.000 C 
BRANCH   3   8
ATOM      8  C   UNL     1       3.509   4.742  19.036  0.00  0.00    +0.000 A 
ATOM      9  C   UNL     1       4.856   4.890  19.440  0.00  0.00    +0.000 A 
ATOM     10  C   UNL     1       5.908   4.730  18.528  0.00  0.00    +0.000 A 
ATOM     11  C   UNL     1       5.654   4.433  17.180  0.00  0.00    +0.000 A 
ATOM     12  C   UNL     1       4.322   4.270  16.770  0.00  0.00    +0.000 A 
ATOM     13  C   UNL     1       3.273   4.410  17.683  0.00  0.00    +0.000 A 
BRANCH  11  14
ATOM     14  N   UNL     1       6.724   4.316  16.236  0.00  0.00    +0.000 N 
ATOM     15  O   UNL     1       6.503   3.973  15.116  0.00  0.00    +0.000 OA
ATOM     16  O   UNL     1       7.967   4.495  16.623  0.00  0.00    +0.000 OA
ENDBRANCH  11  14
ENDBRANCH   3   8
ENDBRANCH   2   3
BRANCH   2  17
ATOM     17  O   UNL     1       2.591   7.383  19.297  0.00  0.00    +0.000 OA
BRANCH  17  18
ATOM     18  C   UNL     1       2.029   8.028  18.196  0.00  0.00    +0.000 C 
BRANCH  18  19
ATOM     19  C   UNL     1       1.567   9.503  18.380  0.00  0.00    +0.000 C 
BRANCH  19  20
ATOM     20  N   UNL     1       0.532   9.722  19.427  0.00  0.00    +0.000 NA
ATOM     21  C   UNL     1       0.942  10.620  20.537  0.00  0.00    +0.000 C 
ATOM     22  C   UNL     1       1.031  12.105  20.105  0.00  0.00    +0.000 C 
ATOM     23  N   UNL     1      -0.238  12.514  19.517  0.00  0.00    +0.000 N 
ATOM     24  C   UNL     1      -0.707  11.677  18.418  0.00  0.00    +0.000 C 
ATOM     25  C   UNL     1      -0.759  10.197  18.855  0.00  0.00    +0.000 C 
BRANCH  23  26
ATOM     26  C   UNL     1      -0.922  13.723  19.922  0.00  0.00    +0.000 A 
ATOM     27  C   UNL     1      -0.386  14.991  19.597  0.00  0.00    +0.000 A 
ATOM     28  C   UNL     1      -1.061  16.171  19.927  0.00  0.00    +0.000 A 
ATOM     29  C   UNL     1      -2.276  16.118  20.605  0.00  0.00    +0.000 A 
ATOM     30  C   UNL     1      -2.823  14.882  20.951  0.00  0.00    +0.000 A 
ATOM     31  C   UNL     1      -2.161  13.691  20.607  0.00  0.00    +0.000 A 
ENDBRANCH  23  26
ENDBRANCH  19  20
ENDBRANCH  18  19
ENDBRANCH  17  18
ENDBRANCH   2  17
TORSDOF 8
ENDMDL
MODEL 6
REMARK VINA RESULT:      -7.7      6.615     10.784
REMARK  Name = 
REMARK  8 active torsions:
REMARK  status: ('A' for Active; 'I' for Inactive)
REMARK    1  A    between atoms: C_2  and  O_3
REMARK    2  A    between atoms: C_2  and  C_18
REMARK    3  A    between atoms: O_3  and  C_4
REMARK    4  A    between atoms: C_4  and  C_5
REMARK    5  A    between atoms: C_5  and  N_6
REMARK    6  A    between atoms: N_9  and  C_10
REMARK    7  A    between atoms: C_18  and  C_19
REMARK    8  A    between atoms: C_22  and  N_23
REMARK                            x       y       z     vdW  Elec       q    Type
REMARK                         _______ _______ _______ _____ _____    ______ ____
ROOT
ATOM      1  O   UNL     1       8.015  11.319  17.324  0.00  0.00    +0.000 OA
ATOM      2  C   UNL     1       8.708  10.973  18.269  0.00  0.00    +0.000 C 
ENDROOT
BRANCH   2   3
ATOM      3  C   UNL     1       9.814  11.923  18.793  0.00  0.00    +0.000 C 
ATOM      4  C   UNL     1      10.393  11.393  20.135  0.00  0.00    +0.000 C 
ATOM      5  C   UNL     1      11.730  12.108  20.281  0.00  0.00    +0.000 C 
ATOM      6  C   UNL     1      12.271  12.215  18.853  0.00  0.00    +0.000 C 
ATOM      7  C   UNL     1      11.094  11.830  17.933  0.00  0.00    +0.000 C 
BRANCH   3   8
ATOM      8  C   UNL     1       9.282  13.376  18.834  0.00  0.00    +0.000 A 
ATOM      9  C   UNL     1       8.440  13.879  19.853  0.00  0.00    +0.000 A 
ATOM     10  C   UNL     1       7.953  15.191  19.809  0.00  0.00    +0.000 A 
ATOM     11  C   UNL     1       8.276  16.045  18.742  0.00  0.00    +0.000 A 
ATOM     12  C   UNL     1       9.122  15.562  17.732  0.00  0.00    +0.000 A 
ATOM     13  C   UNL     1       9.624  14.259  17.785  0.00  0.00    +0.000 A 
BRANCH  11  14
ATOM     14  N   UNL     1       7.742  17.370  18.671  0.00  0.00    +0.000 N 
ATOM     15  O   UNL     1       6.565  17.549  18.729  0.00  0.00    +0.000 OA
ATOM     16  O   UNL     1       8.538  18.391  18.447  0.00  0.00    +0.000 OA
ENDBRANCH  11  14
ENDBRANCH   3   8
ENDBRANCH   2   3
BRANCH   2  17
ATOM     17  O   UNL     1       8.490   9.756  18.845  0.00  0.00    +0.000 OA
BRANCH  17  18
ATOM     18  C   UNL     1       8.605   8.500  18.251  0.00  0.00    +0.000 C 
BRANCH  18  19
ATOM     19  C   UNL     1       7.345   7.913  17.552  0.00  0.00    +0.000 C 
BRANCH  19  20
ATOM     20  N   UNL     1       7.370   6.442  17.322  0.00  0.00    +0.000 NA
ATOM     21  C   UNL     1       7.145   5.614  18.536  0.00  0.00    +0.000 C 
ATOM     22  C   UNL     1       5.679   5.661  19.030  0.00  0.00    +0.000 C 
ATOM     23  N   UNL     1       4.788   5.281  17.941  0.00  0.00    +0.000 N 
ATOM     24  C   UNL     1       4.951   6.051  16.713  0.00  0.00    +0.000 C 
ATOM     25  C   UNL     1       6.424   6.020  16.252  0.00  0.00    +0.000 C 
BRANCH  23  26
ATOM     26  C   UNL     1       3.749   4.287  18.105  0.00  0.00    +0.000 A 
ATOM     27  C   UNL     1       2.386   4.650  17.977  0.00  0.00    +0.000 A 
ATOM     28  C   UNL     1       1.369   3.694  18.072  0.00  0.00    +0.000 A 
ATOM     29  C   UNL     1       1.681   2.360  18.317  0.00  0.00    +0.000 A 
ATOM     30  C   UNL     1       3.014   1.974  18.463  0.00  0.00    +0.000 A 
ATOM     31  C   UNL     1       4.044   2.924  18.350  0.00  0.00    +0.000 A 
ENDBRANCH  23  26
ENDBRANCH  19  20
ENDBRANCH  18  19
ENDBRANCH  17  18
ENDBRANCH   2  17
TORSDOF 8
ENDMDL
MODEL 7
REMARK VINA RESULT:      -7.7      0.977      1.161
REMARK  Name = 
REMARK  8 active torsions:
REMARK  status: ('A' for Active; 'I' for Inactive)
REMARK    1  A    between atoms: C_2  and  O_3
REMARK    2  A    between atoms: C_2  and  C_18
REMARK    3  A    between atoms: O_3  and  C_4
REMARK    4  A    between atoms: C_4  and  C_5
REMARK    5  A    between atoms: C_5  and  N_6
REMARK    6  A    between atoms: N_9  and  C_10
REMARK    7  A    between atoms: C_18  and  C_19
REMARK    8  A    between atoms: C_22  and  N_23
REMARK                            x       y       z     vdW  Elec       q    Type
REMARK                         _______ _______ _______ _____ _____    ______ ____
ROOT
ATOM      1  O   UNL     1       1.130   6.744  21.007  0.00  0.00    +0.000 OA
ATOM      2  C   UNL     1       1.982   6.449  20.182  0.00  0.00    +0.000 C 
ENDROOT
BRANCH   2   3
ATOM      3  C   UNL     1       2.345   4.960  19.958  0.00  0.00    +0.000 C 
ATOM      4  C   UNL     1       2.540   4.239  21.321  0.00  0.00    +0.000 C 
ATOM      5  C   UNL     1       2.415   2.757  20.988  0.00  0.00    +0.000 C 
ATOM      6  C   UNL     1       1.351   2.695  19.890  0.00  0.00    +0.000 C 
ATOM      7  C   UNL     1       1.135   4.155  19.437  0.00  0.00    +0.000 C 
BRANCH   3   8
ATOM      8  C   UNL     1       3.541   4.853  18.980  0.00  0.00    +0.000 A 
ATOM      9  C   UNL     1       3.408   4.568  17.601  0.00  0.00    +0.000 A 
ATOM     10  C   UNL     1       4.532   4.438  16.776  0.00  0.00    +0.000 A 
ATOM     11  C   UNL     1       5.829   4.572  17.298  0.00  0.00    +0.000 A 
ATOM     12  C   UNL     1       5.973   4.869  18.661  0.00  0.00    +0.000 A 
ATOM     13  C   UNL     1       4.851   5.018  19.482  0.00  0.00    +0.000 A 
BRANCH  11  14
ATOM     14  N   UNL     1       6.980   4.393  16.467  0.00  0.00    +0.000 N 
ATOM     15  O   UNL     1       6.864   4.340  15.282  0.00  0.00    +0.000 OA
ATOM     16  O   UNL     1       8.160   4.192  17.009  0.00  0.00    +0.000 OA
ENDBRANCH  11  14
ENDBRANCH   3   8
ENDBRANCH   2   3
BRANCH   2  17
ATOM     17  O   UNL     1       2.595   7.441  19.473  0.00  0.00    +0.000 OA
BRANCH  17  18
ATOM     18  C   UNL     1       2.068   8.183  18.417  0.00  0.00    +0.000 C 
BRANCH  18  19
ATOM     19  C   UNL     1       2.345   9.714  18.399  0.00  0.00    +0.000 C 
BRANCH  19  20
ATOM     20  N   UNL     1       1.171  10.572  18.080  0.00  0.00    +0.000 NA
ATOM     21  C   UNL     1      -0.146   9.997  18.456  0.00  0.00    +0.000 C 
ATOM     22  C   UNL     1      -0.382   9.990  19.986  0.00  0.00    +0.000 C 
ATOM     23  N   UNL     1      -0.209  11.339  20.509  0.00  0.00    +0.000 N 
ATOM     24  C   UNL     1       1.064  11.970  20.179  0.00  0.00    +0.000 C 
ATOM     25  C   UNL     1       1.298  11.941  18.654  0.00  0.00    +0.000 C 
BRANCH  23  26
ATOM     26  C   UNL     1      -1.183  11.959  21.381  0.00  0.00    +0.000 A 
ATOM     27  C   UNL     1      -1.511  11.366  22.624  0.00  0.00    +0.000 A 
ATOM     28  C   UNL     1      -2.406  11.980  23.507  0.00  0.00    +0.000 A 
ATOM     29  C   UNL     1      -3.009  13.188  23.168  0.00  0.00    +0.000 A 
ATOM     30  C   UNL     1      -2.717  13.789  21.943  0.00  0.00    +0.000 A 
ATOM     31  C   UNL     1      -1.806  13.190  21.058  0.00  0.00    +0.000 A 
ENDBRANCH  23  26
ENDBRANCH  19  20
ENDBRANCH  18  19
ENDBRANCH  17  18
ENDBRANCH   2  17
TORSDOF 8
ENDMDL
MODEL 8
REMARK VINA RESULT:      -7.7      1.792      2.490
REMARK  Name = 
REMARK  8 active torsions:
REMARK  status: ('A' for Active; 'I' for Inactive)
REMARK    1  A    between atoms: C_2  and  O_3
REMARK    2  A    between atoms: C_2  and  C_18
REMARK    3  A    between atoms: O_3  and  C_4
REMARK    4  A    between atoms: C_4  and  C_5
REMARK    5  A    between atoms: C_5  and  N_6
REMARK    6  A    between atoms: N_9  and  C_10
REMARK    7  A    between atoms: C_18  and  C_19
REMARK    8  A    between atoms: C_22  and  N_23
REMARK                            x       y       z     vdW  Elec       q    Type
REMARK                         _______ _______ _______ _____ _____    ______ ____
ROOT
ATOM      1  O   UNL     1       2.007   7.279  18.874  0.00  0.00    +0.000 OA
ATOM      2  C   UNL     1       1.891   6.591  19.878  0.00  0.00    +0.000 C 
ENDROOT
BRANCH   2   3
ATOM      3  C   UNL     1       2.336   5.108  19.844  0.00  0.00    +0.000 C 
ATOM      4  C   UNL     1       2.512   4.562  21.288  0.00  0.00    +0.000 C 
ATOM      5  C   UNL     1       2.474   3.047  21.129  0.00  0.00    +0.000 C 
ATOM      6  C   UNL     1       1.460   2.800  20.010  0.00  0.00    +0.000 C 
ATOM      7  C   UNL     1       1.190   4.183  19.380  0.00  0.00    +0.000 C 
BRANCH   3   8
ATOM      8  C   UNL     1       3.575   4.953  18.927  0.00  0.00    +0.000 A 
ATOM      9  C   UNL     1       3.518   4.457  17.604  0.00  0.00    +0.000 A 
ATOM     10  C   UNL     1       4.681   4.296  16.840  0.00  0.00    +0.000 A 
ATOM     11  C   UNL     1       5.942   4.609  17.371  0.00  0.00    +0.000 A 
ATOM     12  C   UNL     1       6.009   5.115  18.678  0.00  0.00    +0.000 A 
ATOM     13  C   UNL     1       4.848   5.294  19.435  0.00  0.00    +0.000 A 
BRANCH  11  14
ATOM     14  N   UNL     1       7.135   4.401  16.610  0.00  0.00    +0.000 N 
ATOM     15  O   UNL     1       7.088   4.350  15.420  0.00  0.00    +0.000 OA
ATOM     16  O   UNL     1       8.276   4.171  17.220  0.00  0.00    +0.000 OA
ENDBRANCH  11  14
ENDBRANCH   3   8
ENDBRANCH   2   3
BRANCH   2  17
ATOM     17  O   UNL     1       1.372   7.148  21.010  0.00  0.00    +0.000 OA
BRANCH  17  18
ATOM     18  C   UNL     1       1.288   8.502  21.331  0.00  0.00    +0.000 C 
BRANCH  18  19
ATOM     19  C   UNL     1      -0.012   9.260  20.935  0.00  0.00    +0.000 C 
BRANCH  19  20
ATOM     20  N   UNL     1       0.074  10.065  19.685  0.00  0.00    +0.000 NA
ATOM     21  C   UNL     1      -1.191  10.731  19.279  0.00  0.00    +0.000 C 
ATOM     22  C   UNL     1      -1.563  11.922  20.196  0.00  0.00    +0.000 C 
ATOM     23  N   UNL     1      -0.449  12.859  20.247  0.00  0.00    +0.000 N 
ATOM     24  C   UNL     1       0.830  12.277  20.639  0.00  0.00    +0.000 C 
ATOM     25  C   UNL     1       1.171  11.072  19.736  0.00  0.00    +0.000 C 
BRANCH  23  26
ATOM     26  C   UNL     1      -0.624  14.279  20.031  0.00  0.00    +0.000 A 
ATOM     27  C   UNL     1      -0.170  14.882  18.834  0.00  0.00    +0.000 A 
ATOM     28  C   UNL     1      -0.382  16.241  18.579  0.00  0.00    +0.000 A 
ATOM     29  C   UNL     1      -1.035  17.037  19.516  0.00  0.00    +0.000 A 
ATOM     30  C   UNL     1      -1.482  16.474  20.713  0.00  0.00    +0.000 A 
ATOM     31  C   UNL     1      -1.289  15.106  20.969  0.00  0.00    +0.000 A 
ENDBRANCH  23  26
ENDBRANCH  19  20
ENDBRANCH  18  19
ENDBRANCH  17  18
ENDBRANCH   2  17
TORSDOF 8
ENDMDL
MODEL 9
REMARK VINA RESULT:      -7.6      6.826     10.902
REMARK  Name = 
REMARK  8 active torsions:
REMARK  status: ('A' for Active; 'I' for Inactive)
REMARK    1  A    between atoms: C_2  and  O_3
REMARK    2  A    between atoms: C_2  and  C_18
REMARK    3  A    between atoms: O_3  and  C_4
REMARK    4  A    between atoms: C_4  and  C_5
REMARK    5  A    between atoms: C_5  and  N_6
REMARK    6  A    between atoms: N_9  and  C_10
REMARK    7  A    between atoms: C_18  and  C_19
REMARK    8  A    between atoms: C_22  and  N_23
REMARK                            x       y       z     vdW  Elec       q    Type
REMARK                         _______ _______ _______ _____ _____    ______ ____
ROOT
ATOM      1  O   UNL     1       7.875  11.804  17.285  0.00  0.00    +0.000 OA
ATOM      2  C   UNL     1       8.737  11.185  17.891  0.00  0.00    +0.000 C 
ENDROOT
BRANCH   2   3
ATOM      3  C   UNL     1       9.822  11.960  18.680  0.00  0.00    +0.000 C 
ATOM      4  C   UNL     1      10.039  11.316  20.078  0.00  0.00    +0.000 C 
ATOM      5  C   UNL     1      11.397  11.839  20.531  0.00  0.00    +0.000 C 
ATOM      6  C   UNL     1      12.230  11.916  19.249  0.00  0.00    +0.000 C 
ATOM      7  C   UNL     1      11.229  11.722  18.090  0.00  0.00    +0.000 C 
BRANCH   3   8
ATOM      8  C   UNL     1       9.479  13.470  18.698  0.00  0.00    +0.000 A 
ATOM      9  C   UNL     1      10.010  14.409  17.783  0.00  0.00    +0.000 A 
ATOM     10  C   UNL     1       9.698  15.771  17.879  0.00  0.00    +0.000 A 
ATOM     11  C   UNL     1       8.859  16.248  18.898  0.00  0.00    +0.000 A 
ATOM     12  C   UNL     1       8.315  15.324  19.803  0.00  0.00    +0.000 A 
ATOM     13  C   UNL     1       8.610  13.962  19.697  0.00  0.00    +0.000 A 
BRANCH  11  14
ATOM     14  N   UNL     1       8.577  17.644  19.028  0.00  0.00    +0.000 N 
ATOM     15  O   UNL     1       7.882  18.194  18.230  0.00  0.00    +0.000 OA
ATOM     16  O   UNL     1       9.156  18.350  19.973  0.00  0.00    +0.000 OA
ENDBRANCH  11  14
ENDBRANCH   3   8
ENDBRANCH   2   3
BRANCH   2  17
ATOM     17  O   UNL     1       8.724   9.821  17.861  0.00  0.00    +0.000 OA
BRANCH  17  18
ATOM     18  C   UNL     1       7.622   8.984  17.687  0.00  0.00    +0.000 C 
BRANCH  18  19
ATOM     19  C   UNL     1       7.853   7.450  17.806  0.00  0.00    +0.000 C 
BRANCH  19  20
ATOM     20  N   UNL     1       7.109   6.614  16.823  0.00  0.00    +0.000 NA
ATOM     21  C   UNL     1       7.316   5.149  16.962  0.00  0.00    +0.000 C 
ATOM     22  C   UNL     1       6.620   4.561  18.213  0.00  0.00    +0.000 C 
ATOM     23  N   UNL     1       5.205   4.909  18.187  0.00  0.00    +0.000 N 
ATOM     24  C   UNL     1       4.922   6.333  18.052  0.00  0.00    +0.000 C 
ATOM     25  C   UNL     1       5.649   6.911  16.819  0.00  0.00    +0.000 C 
BRANCH  23  26
ATOM     26  C   UNL     1       4.164   3.924  18.389  0.00  0.00    +0.000 A 
ATOM     27  C   UNL     1       3.909   3.409  19.683  0.00  0.00    +0.000 A 
ATOM     28  C   UNL     1       2.869   2.501  19.911  0.00  0.00    +0.000 A 
ATOM     29  C   UNL     1       2.071   2.070  18.856  0.00  0.00    +0.000 A 
ATOM     30  C   UNL     1       2.307   2.549  17.566  0.00  0.00    +0.000 A 
ATOM     31  C   UNL     1       3.337   3.475  17.331  0.00  0.00    +0.000 A 
ENDBRANCH  23  26
ENDBRANCH  19  20
ENDBRANCH  18  19
ENDBRANCH  17  18
ENDBRANCH   2  17
TORSDOF 8
ENDMDL
