MODEL 1
REMARK VINA RESULT:      -8.4      0.000      0.000
REMARK  Name = 
REMARK  7 active torsions:
REMARK  status: ('A' for Active; 'I' for Inactive)
REMARK    1  A    between atoms: C_1  and  C_2
REMARK    2  A    between atoms: C_2  and  C_3
REMARK    3  A    between atoms: C_2  and  N_4
REMARK    4  A    between atoms: C_7  and  N_8
REMARK    5  A    between atoms: N_8  and  C_9
REMARK    6  A    between atoms: C_9  and  C_10
REMARK    7  A    between atoms: C_17  and  C_19
REMARK                            x       y       z     vdW  Elec       q    Type
REMARK                         _______ _______ _______ _____ _____    ______ ____
ROOT
ATOM      1  N   UNL     1       3.569   5.650  17.453  0.00  0.00    +0.000 N 
ATOM      2  C   UNL     1       3.665   6.984  17.916  0.00  0.00    +0.000 C 
ATOM      3  O   UNL     1       4.598   7.722  17.592  0.00  0.00    +0.000 OA
ENDROOT
BRANCH   2   4
ATOM      4  C   UNL     1       2.621   7.598  18.822  0.00  0.00    +0.000 A 
ATOM      5  C   UNL     1       2.350   7.164  20.123  0.00  0.00    +0.000 A 
ATOM      6  C   UNL     1       1.349   7.751  20.902  0.00  0.00    +0.000 A 
ATOM      7  C   UNL     1       0.688   8.895  20.460  0.00  0.00    +0.000 A 
ATOM      8  C   UNL     1      -0.248   9.536  21.285  0.00  0.00    +0.000 A 
ATOM      9  C   UNL     1      -0.821  10.743  20.895  0.00  0.00    +0.000 A 
ATOM     10  C   UNL     1      -0.477  11.306  19.671  0.00  0.00    +0.000 A 
ATOM     11  C   UNL     1       0.424  10.652  18.822  0.00  0.00    +0.000 A 
ATOM     12  C   UNL     1       1.020   9.437  19.199  0.00  0.00    +0.000 A 
ATOM     13  C   UNL     1       1.956   8.758  18.381  0.00  0.00    +0.000 A 
ENDBRANCH   2   4
BRANCH   1  17
ATOM     14  N   UNL     1       5.458   4.196  13.175  0.00  0.00    +0.000 N 
ATOM     15  C   UNL     1       5.575   4.330  14.573  0.00  0.00    +0.000 A 
ATOM     16  C   UNL     1       4.533   4.941  15.286  0.00  0.00    +0.000 A 
ATOM     17  C   UNL     1       4.653   5.138  16.668  0.00  0.00    +0.000 A 
ATOM     18  C   UNL     1       5.840   4.781  17.293  0.00  0.00    +0.000 A 
ATOM     19  C   UNL     1       6.825   4.203  16.517  0.00  0.00    +0.000 A 
ATOM     20  N   UNL     1       6.709   3.959  15.192  0.00  0.00    +0.000 NA
ATOM     21  H   UNL     1       4.484   4.025  12.952  0.00  0.00    +0.000 HD
BRANCH  14  23
ATOM     22  C   UNL     1       5.440   2.308  11.643  0.00  0.00    +0.000 C 
ATOM     23  C   UNL     1       6.330   3.197  12.526  0.00  0.00    +0.000 C 
ATOM     24  C   UNL     1       7.411   3.832  11.650  0.00  0.00    +0.000 C 
ENDBRANCH  14  23
ENDBRANCH   1  17
BRANCH   1  25
ATOM     25  C   UNL     1       2.381   4.803  17.641  0.00  0.00    +0.000 C 
BRANCH  25  26
ATOM     26  C   UNL     1       2.256   3.986  18.903  0.00  0.00    +0.000 A 
ATOM     27  C   UNL     1       1.014   3.914  19.564  0.00  0.00    +0.000 A 
ATOM     28  C   UNL     1       0.893   3.201  20.755  0.00  0.00    +0.000 A 
ATOM     29  C   UNL     1       2.007   2.558  21.273  0.00  0.00    +0.000 A 
ATOM     30  F   UNL     1       1.901   1.897  22.433  0.00  0.00    +0.000 F 
ATOM     31  C   UNL     1       3.230   2.585  20.609  0.00  0.00    +0.000 A 
ATOM     32  C   UNL     1       3.356   3.293  19.417  0.00  0.00    +0.000 A 
ENDBRANCH  25  26
ENDBRANCH   1  25
TORSDOF 5
ENDMDL
MODEL 2
REMARK VINA RESULT:      -8.3      1.201      1.851
REMARK  Name = 
REMARK  7 active torsions:
REMARK  status: ('A' for Active; 'I' for Inactive)
REMARK    1  A    between atoms: C_1  and  C_2
REMARK    2  A    between atoms: C_2  and  C_3
REMARK    3  A    between atoms: C_2  and  N_4
REMARK    4  A    between atoms: C_7  and  N_8
REMARK    5  A    between atoms: N_8  and  C_9
REMARK    6  A    between atoms: C_9  and  C_10
REMARK    7  A    between atoms: C_17  and  C_19
REMARK                            x       y       z     vdW  Elec       q    Type
REMARK                         _______ _______ _______ _____ _____    ______ ____
ROOT
ATOM      1  N   UNL     1       2.987   6.104  17.772  0.00  0.00    +0.000 N 
ATOM      2  C   UNL     1       3.195   7.490  17.962  0.00  0.00    +0.000 C 
ATOM      3  O   UNL     1       4.213   8.059  17.560  0.00  0.00    +0.000 OA
ENDROOT
BRANCH   2   4
ATOM      4  C   UNL     1       2.175   8.370  18.650  0.00  0.00    +0.000 A 
ATOM      5  C   UNL     1       1.262   9.191  17.981  0.00  0.00    +0.000 A 
ATOM      6  C   UNL     1       0.363  10.008  18.674  0.00  0.00    +0.000 A 
ATOM      7  C   UNL     1       0.243   9.914  20.058  0.00  0.00    +0.000 A 
ATOM      8  C   UNL     1      -0.726  10.666  20.739  0.00  0.00    +0.000 A 
ATOM      9  C   UNL     1      -0.927  10.488  22.104  0.00  0.00    +0.000 A 
ATOM     10  C   UNL     1      -0.147   9.570  22.801  0.00  0.00    +0.000 A 
ATOM     11  C   UNL     1       0.851   8.846  22.139  0.00  0.00    +0.000 A 
ATOM     12  C   UNL     1       1.066   9.006  20.759  0.00  0.00    +0.000 A 
ATOM     13  C   UNL     1       2.047   8.273  20.048  0.00  0.00    +0.000 A 
ENDBRANCH   2   4
BRANCH   1  17
ATOM     14  N   UNL     1       6.557   5.568  14.462  0.00  0.00    +0.000 N 
ATOM     15  C   UNL     1       5.764   5.027  15.493  0.00  0.00    +0.000 A 
ATOM     16  C   UNL     1       4.810   5.844  16.117  0.00  0.00    +0.000 A 
ATOM     17  C   UNL     1       4.051   5.345  17.183  0.00  0.00    +0.000 A 
ATOM     18  C   UNL     1       4.312   4.062  17.645  0.00  0.00    +0.000 A 
ATOM     19  C   UNL     1       5.280   3.328  16.989  0.00  0.00    +0.000 A 
ATOM     20  N   UNL     1       5.988   3.775  15.927  0.00  0.00    +0.000 NA
ATOM     21  H   UNL     1       5.992   6.228  13.939  0.00  0.00    +0.000 HD
BRANCH  14  23
ATOM     22  C   UNL     1       6.121   3.787  12.865  0.00  0.00    +0.000 C 
ATOM     23  C   UNL     1       7.220   4.609  13.557  0.00  0.00    +0.000 C 
ATOM     24  C   UNL     1       8.068   5.294  12.485  0.00  0.00    +0.000 C 
ENDBRANCH  14  23
ENDBRANCH   1  17
BRANCH   1  25
ATOM     25  C   UNL     1       1.712   5.424  18.045  0.00  0.00    +0.000 C 
BRANCH  25  26
ATOM     26  C   UNL     1       1.626   4.465  19.205  0.00  0.00    +0.000 A 
ATOM     27  C   UNL     1       2.126   4.851  20.465  0.00  0.00    +0.000 A 
ATOM     28  C   UNL     1       2.096   3.960  21.536  0.00  0.00    +0.000 A 
ATOM     29  C   UNL     1       1.561   2.695  21.346  0.00  0.00    +0.000 A 
ATOM     30  F   UNL     1       1.559   1.825  22.365  0.00  0.00    +0.000 F 
ATOM     31  C   UNL     1       1.026   2.312  20.120  0.00  0.00    +0.000 A 
ATOM     32  C   UNL     1       1.050   3.200  19.047  0.00  0.00    +0.000 A 
ENDBRANCH  25  26
ENDBRANCH   1  25
TORSDOF 5
ENDMDL
MODEL 3
REMARK VINA RESULT:      -8.3      1.247      1.538
REMARK  Name = 
REMARK  7 active torsions:
REMARK  status: ('A' for Active; 'I' for Inactive)
REMARK    1  A    between atoms: C_1  and  C_2
REMARK    2  A    between atoms: C_2  and  C_3
REMARK    3  A    between atoms: C_2  and  N_4
REMARK    4  A    between atoms: C_7  and  N_8
REMARK    5  A    between atoms: N_8  and  C_9
REMARK    6  A    between atoms: C_9  and  C_10
REMARK    7  A    between atoms: C_17  and  C_19
REMARK                            x       y       z     vdW  Elec       q    Type
REMARK                         _______ _______ _______ _____ _____    ______ ____
ROOT
ATOM      1  N   UNL     1       4.146   6.270  18.173  0.00  0.00    +0.000 N 
ATOM      2  C   UNL     1       3.438   7.445  17.823  0.00  0.00    +0.000 C 
ATOM      3  O   UNL     1       3.615   8.018  16.745  0.00  0.00    +0.000 OA
ENDROOT
BRANCH   2   4
ATOM      4  C   UNL     1       2.404   8.063  18.737  0.00  0.00    +0.000 A 
ATOM      5  C   UNL     1       2.192   7.676  20.064  0.00  0.00    +0.000 A 
ATOM      6  C   UNL     1       1.197   8.264  20.852  0.00  0.00    +0.000 A 
ATOM      7  C   UNL     1       0.485   9.365  20.386  0.00  0.00    +0.000 A 
ATOM      8  C   UNL     1      -0.445  10.011  21.215  0.00  0.00    +0.000 A 
ATOM      9  C   UNL     1      -1.072  11.181  20.796  0.00  0.00    +0.000 A 
ATOM     10  C   UNL     1      -0.787  11.702  19.538  0.00  0.00    +0.000 A 
ATOM     11  C   UNL     1       0.106  11.042  18.686  0.00  0.00    +0.000 A 
ATOM     12  C   UNL     1       0.755   9.863  19.093  0.00  0.00    +0.000 A 
ATOM     13  C   UNL     1       1.687   9.181  18.272  0.00  0.00    +0.000 A 
ENDBRANCH   2   4
BRANCH   1  17
ATOM     14  N   UNL     1       5.598   4.752  13.749  0.00  0.00    +0.000 N 
ATOM     15  C   UNL     1       5.881   4.974  15.111  0.00  0.00    +0.000 A 
ATOM     16  C   UNL     1       4.886   5.529  15.930  0.00  0.00    +0.000 A 
ATOM     17  C   UNL     1       5.163   5.813  17.273  0.00  0.00    +0.000 A 
ATOM     18  C   UNL     1       6.449   5.598  17.749  0.00  0.00    +0.000 A 
ATOM     19  C   UNL     1       7.377   5.067  16.875  0.00  0.00    +0.000 A 
ATOM     20  N   UNL     1       7.115   4.740  15.589  0.00  0.00    +0.000 NA
ATOM     21  H   UNL     1       4.624   4.483  13.665  0.00  0.00    +0.000 HD
BRANCH  14  23
ATOM     22  C   UNL     1       5.572   2.928  12.141  0.00  0.00    +0.000 C 
ATOM     23  C   UNL     1       6.470   3.799  13.034  0.00  0.00    +0.000 C 
ATOM     24  C   UNL     1       7.511   4.492  12.154  0.00  0.00    +0.000 C 
ENDBRANCH  14  23
ENDBRANCH   1  17
BRANCH   1  25
ATOM     25  C   UNL     1       3.824   5.441  19.345  0.00  0.00    +0.000 C 
BRANCH  25  26
ATOM     26  C   UNL     1       2.843   4.307  19.192  0.00  0.00    +0.000 A 
ATOM     27  C   UNL     1       3.108   3.277  18.267  0.00  0.00    +0.000 A 
ATOM     28  C   UNL     1       2.190   2.246  18.081  0.00  0.00    +0.000 A 
ATOM     29  C   UNL     1       1.019   2.243  18.824  0.00  0.00    +0.000 A 
ATOM     30  F   UNL     1       0.120   1.270  18.626  0.00  0.00    +0.000 F 
ATOM     31  C   UNL     1       0.762   3.229  19.772  0.00  0.00    +0.000 A 
ATOM     32  C   UNL     1       1.678   4.260  19.964  0.00  0.00    +0.000 A 
ENDBRANCH  25  26
ENDBRANCH   1  25
TORSDOF 5
ENDMDL
MODEL 4
REMARK VINA RESULT:      -8.2      1.749      2.445
REMARK  Name = 
REMARK  7 active torsions:
REMARK  status: ('A' for Active; 'I' for Inactive)
REMARK    1  A    between atoms: C_1  and  C_2
REMARK    2  A    between atoms: C_2  and  C_3
REMARK    3  A    between atoms: C_2  and  N_4
REMARK    4  A    between atoms: C_7  and  N_8
REMARK    5  A    between atoms: N_8  and  C_9
REMARK    6  A    between atoms: C_9  and  C_10
REMARK    7  A    between atoms: C_17  and  C_19
REMARK                            x       y       z     vdW  Elec       q    Type
REMARK                         _______ _______ _______ _____ _____    ______ ____
ROOT
ATOM      1  N   UNL     1       2.963   7.151  18.669  0.00  0.00    +0.000 N 
ATOM      2  C   UNL     1       2.536   8.329  18.012  0.00  0.00    +0.000 C 
ATOM      3  O   UNL     1       3.088   8.744  16.990  0.00  0.00    +0.000 OA
ENDROOT
BRANCH   2   4
ATOM      4  C   UNL     1       1.363   9.146  18.507  0.00  0.00    +0.000 A 
ATOM      5  C   UNL     1       1.353   9.867  19.705  0.00  0.00    +0.000 A 
ATOM      6  C   UNL     1       0.225  10.578  20.125  0.00  0.00    +0.000 A 
ATOM      7  C   UNL     1      -0.877  10.719  19.286  0.00  0.00    +0.000 A 
ATOM      8  C   UNL     1      -1.967  11.512  19.673  0.00  0.00    +0.000 A 
ATOM      9  C   UNL     1      -3.016  11.749  18.790  0.00  0.00    +0.000 A 
ATOM     10  C   UNL     1      -2.991  11.180  17.521  0.00  0.00    +0.000 A 
ATOM     11  C   UNL     1      -1.929  10.351  17.141  0.00  0.00    +0.000 A 
ATOM     12  C   UNL     1      -0.856  10.105  18.015  0.00  0.00    +0.000 A 
ATOM     13  C   UNL     1       0.250   9.295  17.658  0.00  0.00    +0.000 A 
ENDBRANCH   2   4
BRANCH   1  17
ATOM     14  N   UNL     1       5.921   5.870  14.982  0.00  0.00    +0.000 N 
ATOM     15  C   UNL     1       5.563   5.778  16.342  0.00  0.00    +0.000 A 
ATOM     16  C   UNL     1       4.473   6.527  16.810  0.00  0.00    +0.000 A 
ATOM     17  C   UNL     1       4.136   6.496  18.169  0.00  0.00    +0.000 A 
ATOM     18  C   UNL     1       4.938   5.772  19.040  0.00  0.00    +0.000 A 
ATOM     19  C   UNL     1       6.004   5.078  18.504  0.00  0.00    +0.000 A 
ATOM     20  N   UNL     1       6.316   5.055  17.188  0.00  0.00    +0.000 NA
ATOM     21  H   UNL     1       5.073   5.980  14.437  0.00  0.00    +0.000 HD
BRANCH  14  23
ATOM     22  C   UNL     1       5.822   3.765  13.769  0.00  0.00    +0.000 C 
ATOM     23  C   UNL     1       6.759   4.784  14.438  0.00  0.00    +0.000 C 
ATOM     24  C   UNL     1       7.769   5.275  13.400  0.00  0.00    +0.000 C 
ENDBRANCH  14  23
ENDBRANCH   1  17
BRANCH   1  25
ATOM     25  C   UNL     1       2.215   6.507  19.761  0.00  0.00    +0.000 C 
BRANCH  25  26
ATOM     26  C   UNL     1       1.853   5.049  19.639  0.00  0.00    +0.000 A 
ATOM     27  C   UNL     1       1.781   4.251  20.798  0.00  0.00    +0.000 A 
ATOM     28  C   UNL     1       1.493   2.892  20.699  0.00  0.00    +0.000 A 
ATOM     29  C   UNL     1       1.268   2.339  19.447  0.00  0.00    +0.000 A 
ATOM     30  F   UNL     1       1.021   1.027  19.345  0.00  0.00    +0.000 F 
ATOM     31  C   UNL     1       1.294   3.122  18.296  0.00  0.00    +0.000 A 
ATOM     32  C   UNL     1       1.578   4.482  18.391  0.00  0.00    +0.000 A 
ENDBRANCH  25  26
ENDBRANCH   1  25
TORSDOF 5
ENDMDL
MODEL 5
REMARK VINA RESULT:      -8.2      1.224      1.541
REMARK  Name = 
REMARK  7 active torsions:
REMARK  status: ('A' for Active; 'I' for Inactive)
REMARK    1  A    between atoms: C_1  and  C_2
REMARK    2  A    between atoms: C_2  and  C_3
REMARK    3  A    between atoms: C_2  and  N_4
REMARK    4  A    between atoms: C_7  and  N_8
REMARK    5  A    between atoms: N_8  and  C_9
REMARK    6  A    between atoms: C_9  and  C_10
REMARK    7  A    between atoms: C_17  and  C_19
REMARK                            x       y       z     vdW  Elec       q    Type
REMARK                         _______ _______ _______ _____ _____    ______ ____
ROOT
ATOM      1  N   UNL     1       3.023   6.428  17.935  0.00  0.00    +0.000 N 
ATOM      2  C   UNL     1       3.047   7.822  18.177  0.00  0.00    +0.000 C 
ATOM      3  O   UNL     1       4.022   8.519  17.885  0.00  0.00    +0.000 OA
ENDROOT
BRANCH   2   4
ATOM      4  C   UNL     1       1.873   8.552  18.790  0.00  0.00    +0.000 A 
ATOM      5  C   UNL     1       1.578   8.566  20.157  0.00  0.00    +0.000 A 
ATOM      6  C   UNL     1       0.458   9.233  20.661  0.00  0.00    +0.000 A 
ATOM      7  C   UNL     1      -0.318  10.039  19.833  0.00  0.00    +0.000 A 
ATOM      8  C   UNL     1      -1.384  10.782  20.362  0.00  0.00    +0.000 A 
ATOM      9  C   UNL     1      -2.086  11.677  19.561  0.00  0.00    +0.000 A 
ATOM     10  C   UNL     1      -1.740  11.821  18.221  0.00  0.00    +0.000 A 
ATOM     11  C   UNL     1      -0.707  11.052  17.673  0.00  0.00    +0.000 A 
ATOM     12  C   UNL     1       0.020  10.148  18.467  0.00  0.00    +0.000 A 
ATOM     13  C   UNL     1       1.090   9.373  17.956  0.00  0.00    +0.000 A 
ENDBRANCH   2   4
BRANCH   1  17
ATOM     14  N   UNL     1       6.234   5.627  14.325  0.00  0.00    +0.000 N 
ATOM     15  C   UNL     1       5.769   5.341  15.623  0.00  0.00    +0.000 A 
ATOM     16  C   UNL     1       4.662   6.045  16.119  0.00  0.00    +0.000 A 
ATOM     17  C   UNL     1       4.218   5.819  17.428  0.00  0.00    +0.000 A 
ATOM     18  C   UNL     1       4.934   4.945  18.235  0.00  0.00    +0.000 A 
ATOM     19  C   UNL     1       6.024   4.306  17.678  0.00  0.00    +0.000 A 
ATOM     20  N   UNL     1       6.438   4.473  16.402  0.00  0.00    +0.000 NA
ATOM     21  H   UNL     1       5.434   5.846  13.741  0.00  0.00    +0.000 HD
BRANCH  14  23
ATOM     22  C   UNL     1       6.167   3.620  12.953  0.00  0.00    +0.000 C 
ATOM     23  C   UNL     1       7.089   4.609  13.684  0.00  0.00    +0.000 C 
ATOM     24  C   UNL     1       8.066   5.207  12.671  0.00  0.00    +0.000 C 
ENDBRANCH  14  23
ENDBRANCH   1  17
BRANCH   1  25
ATOM     25  C   UNL     1       1.818   5.596  18.072  0.00  0.00    +0.000 C 
BRANCH  25  26
ATOM     26  C   UNL     1       1.750   4.584  19.188  0.00  0.00    +0.000 A 
ATOM     27  C   UNL     1       2.115   4.965  20.496  0.00  0.00    +0.000 A 
ATOM     28  C   UNL     1       2.101   4.031  21.529  0.00  0.00    +0.000 A 
ATOM     29  C   UNL     1       1.716   2.727  21.255  0.00  0.00    +0.000 A 
ATOM     30  F   UNL     1       1.731   1.819  22.240  0.00  0.00    +0.000 F 
ATOM     31  C   UNL     1       1.313   2.345  19.978  0.00  0.00    +0.000 A 
ATOM     32  C   UNL     1       1.321   3.276  18.943  0.00  0.00    +0.000 A 
ENDBRANCH  25  26
ENDBRANCH   1  25
TORSDOF 5
ENDMDL
MODEL 6
REMARK VINA RESULT:      -8.1      0.957      1.613
REMARK  Name = 
REMARK  7 active torsions:
REMARK  status: ('A' for Active; 'I' for Inactive)
REMARK    1  A    between atoms: C_1  and  C_2
REMARK    2  A    between atoms: C_2  and  C_3
REMARK    3  A    between atoms: C_2  and  N_4
REMARK    4  A    between atoms: C_7  and  N_8
REMARK    5  A    between atoms: N_8  and  C_9
REMARK    6  A    between atoms: C_9  and  C_10
REMARK    7  A    between atoms: C_17  and  C_19
REMARK                            x       y       z     vdW  Elec       q    Type
REMARK                         _______ _______ _______ _____ _____    ______ ____
ROOT
ATOM      1  N   UNL     1       3.126   6.133  17.677  0.00  0.00    +0.000 N 
ATOM      2  C   UNL     1       3.298   7.521  17.897  0.00  0.00    +0.000 C 
ATOM      3  O   UNL     1       4.298   8.125  17.502  0.00  0.00    +0.000 OA
ENDROOT
BRANCH   2   4
ATOM      4  C   UNL     1       2.260   8.357  18.610  0.00  0.00    +0.000 A 
ATOM      5  C   UNL     1       1.317   9.163  17.965  0.00  0.00    +0.000 A 
ATOM      6  C   UNL     1       0.402   9.941  18.681  0.00  0.00    +0.000 A 
ATOM      7  C   UNL     1       0.298   9.819  20.064  0.00  0.00    +0.000 A 
ATOM      8  C   UNL     1      -0.686  10.530  20.768  0.00  0.00    +0.000 A 
ATOM      9  C   UNL     1      -0.868  10.321  22.131  0.00  0.00    +0.000 A 
ATOM     10  C   UNL     1      -0.055   9.414  22.804  0.00  0.00    +0.000 A 
ATOM     11  C   UNL     1       0.958   8.732  22.120  0.00  0.00    +0.000 A 
ATOM     12  C   UNL     1       1.154   8.923  20.741  0.00  0.00    +0.000 A 
ATOM     13  C   UNL     1       2.149   8.231  20.008  0.00  0.00    +0.000 A 
ENDBRANCH   2   4
BRANCH   1  17
ATOM     14  N   UNL     1       5.797   4.921  13.755  0.00  0.00    +0.000 N 
ATOM     15  C   UNL     1       5.483   4.737  15.116  0.00  0.00    +0.000 A 
ATOM     16  C   UNL     1       4.493   5.542  15.700  0.00  0.00    +0.000 A 
ATOM     17  C   UNL     1       4.206   5.416  17.065  0.00  0.00    +0.000 A 
ATOM     18  C   UNL     1       4.960   4.537  17.829  0.00  0.00    +0.000 A 
ATOM     19  C   UNL     1       5.929   3.794  17.183  0.00  0.00    +0.000 A 
ATOM     20  N   UNL     1       6.188   3.865  15.857  0.00  0.00    +0.000 NA
ATOM     21  H   UNL     1       4.946   5.166  13.262  0.00  0.00    +0.000 HD
BRANCH  14  23
ATOM     22  C   UNL     1       5.454   3.034  12.261  0.00  0.00    +0.000 C 
ATOM     23  C   UNL     1       6.498   3.814  13.077  0.00  0.00    +0.000 C 
ATOM     24  C   UNL     1       7.597   4.298  12.130  0.00  0.00    +0.000 C 
ENDBRANCH  14  23
ENDBRANCH   1  17
BRANCH   1  25
ATOM     25  C   UNL     1       1.870   5.414  17.942  0.00  0.00    +0.000 C 
BRANCH  25  26
ATOM     26  C   UNL     1       1.798   4.477  19.121  0.00  0.00    +0.000 A 
ATOM     27  C   UNL     1       1.232   3.196  18.958  0.00  0.00    +0.000 A 
ATOM     28  C   UNL     1       1.116   2.336  20.048  0.00  0.00    +0.000 A 
ATOM     29  C   UNL     1       1.574   2.753  21.289  0.00  0.00    +0.000 A 
ATOM     30  F   UNL     1       1.436   1.940  22.344  0.00  0.00    +0.000 F 
ATOM     31  C   UNL     1       2.173   3.997  21.457  0.00  0.00    +0.000 A 
ATOM     32  C   UNL     1       2.295   4.860  20.371  0.00  0.00    +0.000 A 
ENDBRANCH  25  26
ENDBRANCH   1  25
TORSDOF 5
ENDMDL
MODEL 7
REMARK VINA RESULT:      -7.9      4.909     10.498
REMARK  Name = 
REMARK  7 active torsions:
REMARK  status: ('A' for Active; 'I' for Inactive)
REMARK    1  A    between atoms: C_1  and  C_2
REMARK    2  A    between atoms: C_2  and  C_3
REMARK    3  A    between atoms: C_2  and  N_4
REMARK    4  A    between atoms: C_7  and  N_8
REMARK    5  A    between atoms: N_8  and  C_9
REMARK    6  A    between atoms: C_9  and  C_10
REMARK    7  A    between atoms: C_17  and  C_19
REMARK                            x       y       z     vdW  Elec       q    Type
REMARK                         _______ _______ _______ _____ _____    ______ ____
ROOT
ATOM      1  N   UNL     1       0.616  11.265  20.336  0.00  0.00    +0.000 N 
ATOM      2  C   UNL     1       1.102  10.073  20.924  0.00  0.00    +0.000 C 
ATOM      3  O   UNL     1       1.243   9.958  22.144  0.00  0.00    +0.000 OA
ENDROOT
BRANCH   2   4
ATOM      4  C   UNL     1       1.461   8.858  20.100  0.00  0.00    +0.000 A 
ATOM      5  C   UNL     1       1.888   8.905  18.769  0.00  0.00    +0.000 A 
ATOM      6  C   UNL     1       2.175   7.743  18.047  0.00  0.00    +0.000 A 
ATOM      7  C   UNL     1       2.194   6.502  18.680  0.00  0.00    +0.000 A 
ATOM      8  C   UNL     1       2.575   5.351  17.975  0.00  0.00    +0.000 A 
ATOM      9  C   UNL     1       2.707   4.132  18.633  0.00  0.00    +0.000 A 
ATOM     10  C   UNL     1       2.441   4.052  19.996  0.00  0.00    +0.000 A 
ATOM     11  C   UNL     1       2.018   5.186  20.699  0.00  0.00    +0.000 A 
ATOM     12  C   UNL     1       1.885   6.428  20.056  0.00  0.00    +0.000 A 
ATOM     13  C   UNL     1       1.487   7.603  20.738  0.00  0.00    +0.000 A 
ENDBRANCH   2   4
BRANCH   1  17
ATOM     14  N   UNL     1      -2.034  13.593  23.734  0.00  0.00    +0.000 N 
ATOM     15  C   UNL     1      -0.966  13.593  22.815  0.00  0.00    +0.000 A 
ATOM     16  C   UNL     1      -0.708  12.430  22.073  0.00  0.00    +0.000 A 
ATOM     17  C   UNL     1       0.383  12.387  21.197  0.00  0.00    +0.000 A 
ATOM     18  C   UNL     1       1.232  13.483  21.133  0.00  0.00    +0.000 A 
ATOM     19  C   UNL     1       0.921  14.582  21.910  0.00  0.00    +0.000 A 
ATOM     20  N   UNL     1      -0.157  14.661  22.724  0.00  0.00    +0.000 NA
ATOM     21  H   UNL     1      -2.782  13.024  23.353  0.00  0.00    +0.000 HD
BRANCH  14  23
ATOM     22  C   UNL     1      -4.058  14.930  23.906  0.00  0.00    +0.000 C 
ATOM     23  C   UNL     1      -2.543  14.911  24.164  0.00  0.00    +0.000 C 
ATOM     24  C   UNL     1      -2.295  15.187  25.647  0.00  0.00    +0.000 C 
ENDBRANCH  14  23
ENDBRANCH   1  17
BRANCH   1  25
ATOM     25  C   UNL     1       0.237  11.381  18.919  0.00  0.00    +0.000 C 
BRANCH  25  26
ATOM     26  C   UNL     1      -1.198  11.140  18.523  0.00  0.00    +0.000 A 
ATOM     27  C   UNL     1      -2.194  12.051  18.928  0.00  0.00    +0.000 A 
ATOM     28  C   UNL     1      -3.530  11.819  18.609  0.00  0.00    +0.000 A 
ATOM     29  C   UNL     1      -3.863  10.686  17.881  0.00  0.00    +0.000 A 
ATOM     30  F   UNL     1      -5.150  10.444  17.599  0.00  0.00    +0.000 F 
ATOM     31  C   UNL     1      -2.886   9.799  17.437  0.00  0.00    +0.000 A 
ATOM     32  C   UNL     1      -1.549  10.029  17.750  0.00  0.00    +0.000 A 
ENDBRANCH  25  26
ENDBRANCH   1  25
TORSDOF 5
ENDMDL
MODEL 8
REMARK VINA RESULT:      -7.9      1.530      1.986
REMARK  Name = 
REMARK  7 active torsions:
REMARK  status: ('A' for Active; 'I' for Inactive)
REMARK    1  A    between atoms: C_1  and  C_2
REMARK    2  A    between atoms: C_2  and  C_3
REMARK    3  A    between atoms: C_2  and  N_4
REMARK    4  A    between atoms: C_7  and  N_8
REMARK    5  A    between atoms: N_8  and  C_9
REMARK    6  A    between atoms: C_9  and  C_10
REMARK    7  A    between atoms: C_17  and  C_19
REMARK                            x       y       z     vdW  Elec       q    Type
REMARK                         _______ _______ _______ _____ _____    ______ ____
ROOT
ATOM      1  N   UNL     1       3.578   6.790  18.572  0.00  0.00    +0.000 N 
ATOM      2  C   UNL     1       3.001   7.958  18.020  0.00  0.00    +0.000 C 
ATOM      3  O   UNL     1       3.398   8.443  16.957  0.00  0.00    +0.000 OA
ENDROOT
BRANCH   2   4
ATOM      4  C   UNL     1       1.847   8.677  18.683  0.00  0.00    +0.000 A 
ATOM      5  C   UNL     1       1.659   8.758  20.067  0.00  0.00    +0.000 A 
ATOM      6  C   UNL     1       0.554   9.409  20.622  0.00  0.00    +0.000 A 
ATOM      7  C   UNL     1      -0.319  10.135  19.815  0.00  0.00    +0.000 A 
ATOM      8  C   UNL     1      -1.371  10.866  20.386  0.00  0.00    +0.000 A 
ATOM      9  C   UNL     1      -2.171  11.685  19.596  0.00  0.00    +0.000 A 
ATOM     10  C   UNL     1      -1.937  11.765  18.227  0.00  0.00    +0.000 A 
ATOM     11  C   UNL     1      -0.917  11.006  17.641  0.00  0.00    +0.000 A 
ATOM     12  C   UNL     1      -0.092  10.178  18.422  0.00  0.00    +0.000 A 
ATOM     13  C   UNL     1       0.967   9.417  17.871  0.00  0.00    +0.000 A 
ENDBRANCH   2   4
BRANCH   1  17
ATOM     14  N   UNL     1       6.024   5.610  14.496  0.00  0.00    +0.000 N 
ATOM     15  C   UNL     1       5.904   5.562  15.899  0.00  0.00    +0.000 A 
ATOM     16  C   UNL     1       4.827   6.218  16.513  0.00  0.00    +0.000 A 
ATOM     17  C   UNL     1       4.720   6.233  17.909  0.00  0.00    +0.000 A 
ATOM     18  C   UNL     1       5.730   5.650  18.662  0.00  0.00    +0.000 A 
ATOM     19  C   UNL     1       6.766   5.041  17.983  0.00  0.00    +0.000 A 
ATOM     20  N   UNL     1       6.861   4.972  16.636  0.00  0.00    +0.000 NA
ATOM     21  H   UNL     1       5.092   5.599  14.097  0.00  0.00    +0.000 HD
BRANCH  14  23
ATOM     22  C   UNL     1       5.961   3.623  13.097  0.00  0.00    +0.000 C 
ATOM     23  C   UNL     1       6.879   4.587  13.865  0.00  0.00    +0.000 C 
ATOM     24  C   UNL     1       7.892   5.182  12.885  0.00  0.00    +0.000 C 
ENDBRANCH  14  23
ENDBRANCH   1  17
BRANCH   1  25
ATOM     25  C   UNL     1       3.011   6.062  19.718  0.00  0.00    +0.000 C 
BRANCH  25  26
ATOM     26  C   UNL     1       2.271   4.771  19.471  0.00  0.00    +0.000 A 
ATOM     27  C   UNL     1       2.008   4.362  18.148  0.00  0.00    +0.000 A 
ATOM     28  C   UNL     1       1.287   3.195  17.904  0.00  0.00    +0.000 A 
ATOM     29  C   UNL     1       0.841   2.440  18.978  0.00  0.00    +0.000 A 
ATOM     30  F   UNL     1       0.121   1.335  18.747  0.00  0.00    +0.000 F 
ATOM     31  C   UNL     1       1.129   2.808  20.289  0.00  0.00    +0.000 A 
ATOM     32  C   UNL     1       1.852   3.971  20.539  0.00  0.00    +0.000 A 
ENDBRANCH  25  26
ENDBRANCH   1  25
TORSDOF 5
ENDMDL
MODEL 9
REMARK VINA RESULT:      -7.8      1.605      2.355
REMARK  Name = 
REMARK  7 active torsions:
REMARK  status: ('A' for Active; 'I' for Inactive)
REMARK    1  A    between atoms: C_1  and  C_2
REMARK    2  A    between atoms: C_2  and  C_3
REMARK    3  A    between atoms: C_2  and  N_4
REMARK    4  A    between atoms: C_7  and  N_8
REMARK    5  A    between atoms: N_8  and  C_9
REMARK    6  A    between atoms: C_9  and  C_10
REMARK    7  A    between atoms: C_17  and  C_19
REMARK                            x       y       z     vdW  Elec       q    Type
REMARK                         _______ _______ _______ _____ _____    ______ ____
ROOT
ATOM      1  N   UNL     1       3.179   7.001  18.680  0.00  0.00    +0.000 N 
ATOM      2  C   UNL     1       2.780   8.219  18.079  0.00  0.00    +0.000 C 
ATOM      3  O   UNL     1       3.319   8.650  17.057  0.00  0.00    +0.000 OA
ENDROOT
BRANCH   2   4
ATOM      4  C   UNL     1       1.656   9.061  18.639  0.00  0.00    +0.000 A 
ATOM      5  C   UNL     1       0.587   9.554  17.883  0.00  0.00    +0.000 A 
ATOM      6  C   UNL     1      -0.407  10.356  18.450  0.00  0.00    +0.000 A 
ATOM      7  C   UNL     1      -0.449  10.565  19.826  0.00  0.00    +0.000 A 
ATOM      8  C   UNL     1      -1.502  11.291  20.403  0.00  0.00    +0.000 A 
ATOM      9  C   UNL     1      -1.609  11.400  21.786  0.00  0.00    +0.000 A 
ATOM     10  C   UNL     1      -0.655  10.801  22.601  0.00  0.00    +0.000 A 
ATOM     11  C   UNL     1       0.423  10.111  22.035  0.00  0.00    +0.000 A 
ATOM     12  C   UNL     1       0.547   9.982  20.641  0.00  0.00    +0.000 A 
ATOM     13  C   UNL     1       1.607   9.268  20.030  0.00  0.00    +0.000 A 
ENDBRANCH   2   4
BRANCH   1  17
ATOM     14  N   UNL     1       5.998   5.780  14.865  0.00  0.00    +0.000 N 
ATOM     15  C   UNL     1       5.664   5.634  16.226  0.00  0.00    +0.000 A 
ATOM     16  C   UNL     1       4.620   6.406  16.757  0.00  0.00    +0.000 A 
ATOM     17  C   UNL     1       4.309   6.321  18.119  0.00  0.00    +0.000 A 
ATOM     18  C   UNL     1       5.094   5.516  18.935  0.00  0.00    +0.000 A 
ATOM     19  C   UNL     1       6.116   4.803  18.339  0.00  0.00    +0.000 A 
ATOM     20  N   UNL     1       6.399   4.834  17.017  0.00  0.00    +0.000 NA
ATOM     21  H   UNL     1       5.146   5.957  14.346  0.00  0.00    +0.000 HD
BRANCH  14  23
ATOM     22  C   UNL     1       5.780   3.767  13.519  0.00  0.00    +0.000 C 
ATOM     23  C   UNL     1       6.773   4.686  14.248  0.00  0.00    +0.000 C 
ATOM     24  C   UNL     1       7.807   5.187  13.239  0.00  0.00    +0.000 C 
ENDBRANCH  14  23
ENDBRANCH   1  17
BRANCH   1  25
ATOM     25  C   UNL     1       2.438   6.346  19.769  0.00  0.00    +0.000 C 
BRANCH  25  26
ATOM     26  C   UNL     1       1.863   4.971  19.541  0.00  0.00    +0.000 A 
ATOM     27  C   UNL     1       1.546   4.157  20.646  0.00  0.00    +0.000 A 
ATOM     28  C   UNL     1       1.057   2.867  20.452  0.00  0.00    +0.000 A 
ATOM     29  C   UNL     1       0.878   2.402  19.158  0.00  0.00    +0.000 A 
ATOM     30  F   UNL     1       0.436   1.151  18.967  0.00  0.00    +0.000 F 
ATOM     31  C   UNL     1       1.146   3.208  18.056  0.00  0.00    +0.000 A 
ATOM     32  C   UNL     1       1.632   4.499  18.245  0.00  0.00    +0.000 A 
ENDBRANCH  25  26
ENDBRANCH   1  25
TORSDOF 5
ENDMDL
