MODEL 1
REMARK VINA RESULT:      -6.5      0.000      0.000
REMARK  Name = 
REMARK  7 active torsions:
REMARK  status: ('A' for Active; 'I' for Inactive)
REMARK    1  A    between atoms: C_2  and  C_3
REMARK    2  A    between atoms: C_2  and  C_13
REMARK    3  A    between atoms: C_3  and  S_4
REMARK    4  A    between atoms: S_4  and  C_5
REMARK    5  A    between atoms: C_5  and  C_6
REMARK    6  A    between atoms: C_6  and  C_7
REMARK    7  A    between atoms: C_13  and  C_16
REMARK                            x       y       z     vdW  Elec       q    Type
REMARK                         _______ _______ _______ _____ _____    ______ ____
ROOT
ATOM      1  C   UNL     1       3.497   3.404  17.348  0.00  0.00    +0.000 C 
ENDROOT
BRANCH   1   3
ATOM      2  O   UNL     1       3.282   1.431  18.679  0.00  0.00    +0.000 OA
ATOM      3  C   UNL     1       2.775   2.496  18.319  0.00  0.00    +0.000 C 
BRANCH   3   4
ATOM      4  C   UNL     1       1.429   2.962  18.824  0.00  0.00    +0.000 C 
ATOM      5  F   UNL     1       0.994   4.065  18.140  0.00  0.00    +0.000 F 
ATOM      6  F   UNL     1       0.467   2.016  18.573  0.00  0.00    +0.000 F 
BRANCH   4   7
ATOM      7  C   UNL     1       1.499   3.255  20.322  0.00  0.00    +0.000 C 
ATOM      8  F   UNL     1       0.765   4.322  20.708  0.00  0.00    +0.000 F 
ATOM      9  F   UNL     1       1.061   2.196  21.050  0.00  0.00    +0.000 F 
ATOM     10  F   UNL     1       2.773   3.495  20.729  0.00  0.00    +0.000 F 
ENDBRANCH   4   7
ENDBRANCH   3   4
ENDBRANCH   1   3
BRANCH   1  11
ATOM     11  S   UNL     1       4.829   4.344  18.145  0.00  0.00    +0.000 S 
BRANCH  11  12
ATOM     12  C   UNL     1       4.112   6.034  18.160  0.00  0.00    +0.000 C 
BRANCH  12  13
ATOM     13  C   UNL     1       3.147   6.244  19.325  0.00  0.00    +0.000 C 
BRANCH  13  14
ATOM     14  C   UNL     1       2.368   7.529  19.200  0.00  0.00    +0.000 A 
ATOM     15  C   UNL     1       2.307   8.197  17.968  0.00  0.00    +0.000 A 
ATOM     16  C   UNL     1       1.570   9.374  17.843  0.00  0.00    +0.000 A 
ATOM     17  C   UNL     1       0.896   9.897  18.945  0.00  0.00    +0.000 A 
ATOM     18  C   UNL     1       0.966   9.246  20.176  0.00  0.00    +0.000 A 
ATOM     19  C   UNL     1       1.701   8.069  20.305  0.00  0.00    +0.000 A 
ENDBRANCH  13  14
ENDBRANCH  12  13
ENDBRANCH  11  12
ENDBRANCH   1  11
TORSDOF 7
ENDMDL
MODEL 2
REMARK VINA RESULT:      -6.5      4.201      6.006
REMARK  Name = 
REMARK  7 active torsions:
REMARK  status: ('A' for Active; 'I' for Inactive)
REMARK    1  A    between atoms: C_2  and  C_3
REMARK    2  A    between atoms: C_2  and  C_13
REMARK    3  A    between atoms: C_3  and  S_4
REMARK    4  A    between atoms: S_4  and  C_5
REMARK    5  A    between atoms: C_5  and  C_6
REMARK    6  A    between atoms: C_6  and  C_7
REMARK    7  A    between atoms: C_13  and  C_16
REMARK                            x       y       z     vdW  Elec       q    Type
REMARK                         _______ _______ _______ _____ _____    ______ ____
ROOT
ATOM      1  C   UNL     1       7.248   4.486  17.043  0.00  0.00    +0.000 C 
ENDROOT
BRANCH   1   3
ATOM      2  O   UNL     1       7.859   5.824  15.159  0.00  0.00    +0.000 OA
ATOM      3  C   UNL     1       6.997   5.122  15.693  0.00  0.00    +0.000 C 
BRANCH   3   4
ATOM      4  C   UNL     1       5.662   4.845  15.041  0.00  0.00    +0.000 C 
ATOM      5  F   UNL     1       4.831   4.152  15.880  0.00  0.00    +0.000 F 
ATOM      6  F   UNL     1       4.990   6.017  14.803  0.00  0.00    +0.000 F 
BRANCH   4   7
ATOM      7  C   UNL     1       5.861   4.079  13.734  0.00  0.00    +0.000 C 
ATOM      8  F   UNL     1       6.754   4.648  12.894  0.00  0.00    +0.000 F 
ATOM      9  F   UNL     1       6.297   2.814  13.968  0.00  0.00    +0.000 F 
ATOM     10  F   UNL     1       4.701   3.958  13.039  0.00  0.00    +0.000 F 
ENDBRANCH   4   7
ENDBRANCH   3   4
ENDBRANCH   1   3
BRANCH   1  11
ATOM     11  S   UNL     1       7.054   5.668  18.408  0.00  0.00    +0.000 S 
BRANCH  11  12
ATOM     12  C   UNL     1       5.557   5.006  19.241  0.00  0.00    +0.000 C 
BRANCH  12  13
ATOM     13  C   UNL     1       4.269   5.606  18.680  0.00  0.00    +0.000 C 
BRANCH  13  14
ATOM     14  C   UNL     1       3.051   4.800  19.054  0.00  0.00    +0.000 A 
ATOM     15  C   UNL     1       2.566   4.828  20.369  0.00  0.00    +0.000 A 
ATOM     16  C   UNL     1       1.427   4.101  20.714  0.00  0.00    +0.000 A 
ATOM     17  C   UNL     1       0.769   3.337  19.752  0.00  0.00    +0.000 A 
ATOM     18  C   UNL     1       1.256   3.292  18.446  0.00  0.00    +0.000 A 
ATOM     19  C   UNL     1       2.393   4.018  18.097  0.00  0.00    +0.000 A 
ENDBRANCH  13  14
ENDBRANCH  12  13
ENDBRANCH  11  12
ENDBRANCH   1  11
TORSDOF 7
ENDMDL
MODEL 3
REMARK VINA RESULT:      -6.5      3.799      5.567
REMARK  Name = 
REMARK  7 active torsions:
REMARK  status: ('A' for Active; 'I' for Inactive)
REMARK    1  A    between atoms: C_2  and  C_3
REMARK    2  A    between atoms: C_2  and  C_13
REMARK    3  A    between atoms: C_3  and  S_4
REMARK    4  A    between atoms: S_4  and  C_5
REMARK    5  A    between atoms: C_5  and  C_6
REMARK    6  A    between atoms: C_6  and  C_7
REMARK    7  A    between atoms: C_13  and  C_16
REMARK                            x       y       z     vdW  Elec       q    Type
REMARK                         _______ _______ _______ _____ _____    ______ ____
ROOT
ATOM      1  C   UNL     1       5.163   5.676  16.463  0.00  0.00    +0.000 C 
ENDROOT
BRANCH   1   3
ATOM      2  O   UNL     1       7.429   6.062  15.804  0.00  0.00    +0.000 OA
ATOM      3  C   UNL     1       6.663   5.545  16.621  0.00  0.00    +0.000 C 
BRANCH   3   4
ATOM      4  C   UNL     1       7.162   4.770  17.819  0.00  0.00    +0.000 C 
ATOM      5  F   UNL     1       6.258   3.817  18.209  0.00  0.00    +0.000 F 
ATOM      6  F   UNL     1       8.282   4.049  17.492  0.00  0.00    +0.000 F 
BRANCH   4   7
ATOM      7  C   UNL     1       7.468   5.722  18.974  0.00  0.00    +0.000 C 
ATOM      8  F   UNL     1       6.467   5.832  19.875  0.00  0.00    +0.000 F 
ATOM      9  F   UNL     1       8.569   5.321  19.660  0.00  0.00    +0.000 F 
ATOM     10  F   UNL     1       7.732   6.980  18.534  0.00  0.00    +0.000 F 
ENDBRANCH   4   7
ENDBRANCH   3   4
ENDBRANCH   1   3
BRANCH   1  11
ATOM     11  S   UNL     1       4.508   7.141  17.312  0.00  0.00    +0.000 S 
BRANCH  11  12
ATOM     12  C   UNL     1       2.882   6.516  17.893  0.00  0.00    +0.000 C 
BRANCH  12  13
ATOM     13  C   UNL     1       2.838   6.339  19.409  0.00  0.00    +0.000 C 
BRANCH  13  14
ATOM     14  C   UNL     1       2.257   5.007  19.813  0.00  0.00    +0.000 A 
ATOM     15  C   UNL     1       1.604   4.208  18.864  0.00  0.00    +0.000 A 
ATOM     16  C   UNL     1       1.085   2.966  19.229  0.00  0.00    +0.000 A 
ATOM     17  C   UNL     1       1.207   2.516  20.542  0.00  0.00    +0.000 A 
ATOM     18  C   UNL     1       1.842   3.313  21.494  0.00  0.00    +0.000 A 
ATOM     19  C   UNL     1       2.363   4.554  21.134  0.00  0.00    +0.000 A 
ENDBRANCH  13  14
ENDBRANCH  12  13
ENDBRANCH  11  12
ENDBRANCH   1  11
TORSDOF 7
ENDMDL
MODEL 4
REMARK VINA RESULT:      -6.4      4.327      5.957
REMARK  Name = 
REMARK  7 active torsions:
REMARK  status: ('A' for Active; 'I' for Inactive)
REMARK    1  A    between atoms: C_2  and  C_3
REMARK    2  A    between atoms: C_2  and  C_13
REMARK    3  A    between atoms: C_3  and  S_4
REMARK    4  A    between atoms: S_4  and  C_5
REMARK    5  A    between atoms: C_5  and  C_6
REMARK    6  A    between atoms: C_6  and  C_7
REMARK    7  A    between atoms: C_13  and  C_16
REMARK                            x       y       z     vdW  Elec       q    Type
REMARK                         _______ _______ _______ _____ _____    ______ ____
ROOT
ATOM      1  C   UNL     1       7.624   4.692  17.781  0.00  0.00    +0.000 C 
ENDROOT
BRANCH   1   3
ATOM      2  O   UNL     1       7.517   6.662  16.431  0.00  0.00    +0.000 OA
ATOM      3  C   UNL     1       7.328   5.445  16.502  0.00  0.00    +0.000 C 
BRANCH   3   4
ATOM      4  C   UNL     1       6.810   4.638  15.334  0.00  0.00    +0.000 C 
ATOM      5  F   UNL     1       7.492   4.933  14.183  0.00  0.00    +0.000 F 
ATOM      6  F   UNL     1       7.052   3.302  15.527  0.00  0.00    +0.000 F 
BRANCH   4   7
ATOM      7  C   UNL     1       5.314   4.880  15.145  0.00  0.00    +0.000 C 
ATOM      8  F   UNL     1       4.922   6.143  15.426  0.00  0.00    +0.000 F 
ATOM      9  F   UNL     1       4.933   4.629  13.866  0.00  0.00    +0.000 F 
ATOM     10  F   UNL     1       4.568   4.061  15.931  0.00  0.00    +0.000 F 
ENDBRANCH   4   7
ENDBRANCH   3   4
ENDBRANCH   1   3
BRANCH   1  11
ATOM     11  S   UNL     1       7.085   5.601  19.256  0.00  0.00    +0.000 S 
BRANCH  11  12
ATOM     12  C   UNL     1       5.273   5.312  19.210  0.00  0.00    +0.000 C 
BRANCH  12  13
ATOM     13  C   UNL     1       4.926   3.830  19.080  0.00  0.00    +0.000 C 
BRANCH  13  14
ATOM     14  C   UNL     1       3.476   3.552  19.385  0.00  0.00    +0.000 A 
ATOM     15  C   UNL     1       2.725   4.472  20.130  0.00  0.00    +0.000 A 
ATOM     16  C   UNL     1       1.378   4.230  20.395  0.00  0.00    +0.000 A 
ATOM     17  C   UNL     1       0.772   3.066  19.926  0.00  0.00    +0.000 A 
ATOM     18  C   UNL     1       1.517   2.139  19.198  0.00  0.00    +0.000 A 
ATOM     19  C   UNL     1       2.864   2.378  18.929  0.00  0.00    +0.000 A 
ENDBRANCH  13  14
ENDBRANCH  12  13
ENDBRANCH  11  12
ENDBRANCH   1  11
TORSDOF 7
ENDMDL
MODEL 5
REMARK VINA RESULT:      -6.4      3.869      5.728
REMARK  Name = 
REMARK  7 active torsions:
REMARK  status: ('A' for Active; 'I' for Inactive)
REMARK    1  A    between atoms: C_2  and  C_3
REMARK    2  A    between atoms: C_2  and  C_13
REMARK    3  A    between atoms: C_3  and  S_4
REMARK    4  A    between atoms: S_4  and  C_5
REMARK    5  A    between atoms: C_5  and  C_6
REMARK    6  A    between atoms: C_6  and  C_7
REMARK    7  A    between atoms: C_13  and  C_16
REMARK                            x       y       z     vdW  Elec       q    Type
REMARK                         _______ _______ _______ _____ _____    ______ ____
ROOT
ATOM      1  C   UNL     1       6.767   6.309  17.413  0.00  0.00    +0.000 C 
ENDROOT
BRANCH   1   3
ATOM      2  O   UNL     1       7.919   4.342  16.695  0.00  0.00    +0.000 OA
ATOM      3  C   UNL     1       7.118   5.234  16.407  0.00  0.00    +0.000 C 
BRANCH   3   4
ATOM      4  C   UNL     1       6.435   5.303  15.061  0.00  0.00    +0.000 C 
ATOM      5  F   UNL     1       5.723   6.465  14.922  0.00  0.00    +0.000 F 
ATOM      6  F   UNL     1       7.365   5.364  14.053  0.00  0.00    +0.000 F 
BRANCH   4   7
ATOM      7  C   UNL     1       5.526   4.091  14.865  0.00  0.00    +0.000 C 
ATOM      8  F   UNL     1       4.685   3.863  15.898  0.00  0.00    +0.000 F 
ATOM      9  F   UNL     1       4.754   4.231  13.757  0.00  0.00    +0.000 F 
ATOM     10  F   UNL     1       6.240   2.949  14.689  0.00  0.00    +0.000 F 
ENDBRANCH   4   7
ENDBRANCH   3   4
ENDBRANCH   1   3
BRANCH   1  11
ATOM     11  S   UNL     1       5.463   5.781  18.560  0.00  0.00    +0.000 S 
BRANCH  11  12
ATOM     12  C   UNL     1       3.971   6.474  17.746  0.00  0.00    +0.000 C 
BRANCH  12  13
ATOM     13  C   UNL     1       2.801   6.629  18.717  0.00  0.00    +0.000 C 
BRANCH  13  14
ATOM     14  C   UNL     1       2.135   5.312  19.025  0.00  0.00    +0.000 A 
ATOM     15  C   UNL     1       1.691   5.036  20.327  0.00  0.00    +0.000 A 
ATOM     16  C   UNL     1       1.054   3.829  20.611  0.00  0.00    +0.000 A 
ATOM     17  C   UNL     1       0.863   2.886  19.603  0.00  0.00    +0.000 A 
ATOM     18  C   UNL     1       1.316   3.147  18.310  0.00  0.00    +0.000 A 
ATOM     19  C   UNL     1       1.951   4.353  18.022  0.00  0.00    +0.000 A 
ENDBRANCH  13  14
ENDBRANCH  12  13
ENDBRANCH  11  12
ENDBRANCH   1  11
TORSDOF 7
ENDMDL
MODEL 6
REMARK VINA RESULT:      -6.3      4.416      5.888
REMARK  Name = 
REMARK  7 active torsions:
REMARK  status: ('A' for Active; 'I' for Inactive)
REMARK    1  A    between atoms: C_2  and  C_3
REMARK    2  A    between atoms: C_2  and  C_13
REMARK    3  A    between atoms: C_3  and  S_4
REMARK    4  A    between atoms: S_4  and  C_5
REMARK    5  A    between atoms: C_5  and  C_6
REMARK    6  A    between atoms: C_6  and  C_7
REMARK    7  A    between atoms: C_13  and  C_16
REMARK                            x       y       z     vdW  Elec       q    Type
REMARK                         _______ _______ _______ _____ _____    ______ ____
ROOT
ATOM      1  C   UNL     1       5.428   3.993  17.975  0.00  0.00    +0.000 C 
ENDROOT
BRANCH   1   3
ATOM      2  O   UNL     1       5.655   5.355  19.927  0.00  0.00    +0.000 OA
ATOM      3  C   UNL     1       6.167   4.958  18.877  0.00  0.00    +0.000 C 
BRANCH   3   4
ATOM      4  C   UNL     1       7.547   5.389  18.437  0.00  0.00    +0.000 C 
ATOM      5  F   UNL     1       8.421   5.415  19.491  0.00  0.00    +0.000 F 
ATOM      6  F   UNL     1       8.089   4.465  17.580  0.00  0.00    +0.000 F 
BRANCH   4   7
ATOM      7  C   UNL     1       7.483   6.758  17.762  0.00  0.00    +0.000 C 
ATOM      8  F   UNL     1       6.268   7.347  17.828  0.00  0.00    +0.000 F 
ATOM      9  F   UNL     1       8.367   7.624  18.322  0.00  0.00    +0.000 F 
ATOM     10  F   UNL     1       7.805   6.686  16.444  0.00  0.00    +0.000 F 
ENDBRANCH   4   7
ENDBRANCH   3   4
ENDBRANCH   1   3
BRANCH   1  11
ATOM     11  S   UNL     1       4.490   4.846  16.677  0.00  0.00    +0.000 S 
BRANCH  11  12
ATOM     12  C   UNL     1       3.302   5.824  17.679  0.00  0.00    +0.000 C 
BRANCH  12  13
ATOM     13  C   UNL     1       1.945   5.134  17.804  0.00  0.00    +0.000 C 
BRANCH  13  14
ATOM     14  C   UNL     1       1.820   4.341  19.080  0.00  0.00    +0.000 A 
ATOM     15  C   UNL     1       1.220   3.073  19.065  0.00  0.00    +0.000 A 
ATOM     16  C   UNL     1       1.124   2.327  20.239  0.00  0.00    +0.000 A 
ATOM     17  C   UNL     1       1.617   2.842  21.436  0.00  0.00    +0.000 A 
ATOM     18  C   UNL     1       2.201   4.108  21.461  0.00  0.00    +0.000 A 
ATOM     19  C   UNL     1       2.301   4.856  20.290  0.00  0.00    +0.000 A 
ENDBRANCH  13  14
ENDBRANCH  12  13
ENDBRANCH  11  12
ENDBRANCH   1  11
TORSDOF 7
ENDMDL
MODEL 7
REMARK VINA RESULT:      -6.3      3.890      5.369
REMARK  Name = 
REMARK  7 active torsions:
REMARK  status: ('A' for Active; 'I' for Inactive)
REMARK    1  A    between atoms: C_2  and  C_3
REMARK    2  A    between atoms: C_2  and  C_13
REMARK    3  A    between atoms: C_3  and  S_4
REMARK    4  A    between atoms: S_4  and  C_5
REMARK    5  A    between atoms: C_5  and  C_6
REMARK    6  A    between atoms: C_6  and  C_7
REMARK    7  A    between atoms: C_13  and  C_16
REMARK                            x       y       z     vdW  Elec       q    Type
REMARK                         _______ _______ _______ _____ _____    ______ ____
ROOT
ATOM      1  C   UNL     1       6.086   5.460  15.577  0.00  0.00    +0.000 C 
ENDROOT
BRANCH   1   3
ATOM      2  O   UNL     1       8.016   4.541  16.646  0.00  0.00    +0.000 OA
ATOM      3  C   UNL     1       7.087   5.350  16.706  0.00  0.00    +0.000 C 
BRANCH   3   4
ATOM      4  C   UNL     1       6.898   6.278  17.884  0.00  0.00    +0.000 C 
ATOM      5  F   UNL     1       7.998   7.071  18.076  0.00  0.00    +0.000 F 
ATOM      6  F   UNL     1       5.886   7.170  17.636  0.00  0.00    +0.000 F 
BRANCH   4   7
ATOM      7  C   UNL     1       6.592   5.474  19.147  0.00  0.00    +0.000 C 
ATOM      8  F   UNL     1       5.446   5.835  19.764  0.00  0.00    +0.000 F 
ATOM      9  F   UNL     1       6.486   4.148  18.871  0.00  0.00    +0.000 F 
ATOM     10  F   UNL     1       7.581   5.591  20.071  0.00  0.00    +0.000 F 
ENDBRANCH   4   7
ENDBRANCH   3   4
ENDBRANCH   1   3
BRANCH   1  11
ATOM     11  S   UNL     1       5.278   3.875  15.215  0.00  0.00    +0.000 S 
BRANCH  11  12
ATOM     12  C   UNL     1       4.418   3.544  16.803  0.00  0.00    +0.000 C 
BRANCH  12  13
ATOM     13  C   UNL     1       3.501   4.695  17.216  0.00  0.00    +0.000 C 
BRANCH  13  14
ATOM     14  C   UNL     1       2.553   4.303  18.321  0.00  0.00    +0.000 A 
ATOM     15  C   UNL     1       2.430   5.111  19.461  0.00  0.00    +0.000 A 
ATOM     16  C   UNL     1       1.537   4.764  20.474  0.00  0.00    +0.000 A 
ATOM     17  C   UNL     1       0.768   3.608  20.362  0.00  0.00    +0.000 A 
ATOM     18  C   UNL     1       0.897   2.792  19.238  0.00  0.00    +0.000 A 
ATOM     19  C   UNL     1       1.787   3.136  18.222  0.00  0.00    +0.000 A 
ENDBRANCH  13  14
ENDBRANCH  12  13
ENDBRANCH  11  12
ENDBRANCH   1  11
TORSDOF 7
ENDMDL
MODEL 8
REMARK VINA RESULT:      -6.3      4.550      6.125
REMARK  Name = 
REMARK  7 active torsions:
REMARK  status: ('A' for Active; 'I' for Inactive)
REMARK    1  A    between atoms: C_2  and  C_3
REMARK    2  A    between atoms: C_2  and  C_13
REMARK    3  A    between atoms: C_3  and  S_4
REMARK    4  A    between atoms: S_4  and  C_5
REMARK    5  A    between atoms: C_5  and  C_6
REMARK    6  A    between atoms: C_6  and  C_7
REMARK    7  A    between atoms: C_13  and  C_16
REMARK                            x       y       z     vdW  Elec       q    Type
REMARK                         _______ _______ _______ _____ _____    ______ ____
ROOT
ATOM      1  C   UNL     1       6.579   6.171  17.315  0.00  0.00    +0.000 C 
ENDROOT
BRANCH   1   3
ATOM      2  O   UNL     1       7.980   4.334  16.701  0.00  0.00    +0.000 OA
ATOM      3  C   UNL     1       7.147   5.168  16.335  0.00  0.00    +0.000 C 
BRANCH   3   4
ATOM      4  C   UNL     1       6.639   5.233  14.913  0.00  0.00    +0.000 C 
ATOM      5  F   UNL     1       5.765   6.273  14.743  0.00  0.00    +0.000 F 
ATOM      6  F   UNL     1       7.665   5.518  14.049  0.00  0.00    +0.000 F 
BRANCH   4   7
ATOM      7  C   UNL     1       5.978   3.910  14.527  0.00  0.00    +0.000 C 
ATOM      8  F   UNL     1       4.697   4.036  14.116  0.00  0.00    +0.000 F 
ATOM      9  F   UNL     1       6.654   3.301  13.519  0.00  0.00    +0.000 F 
ATOM     10  F   UNL     1       5.967   3.032  15.563  0.00  0.00    +0.000 F 
ENDBRANCH   4   7
ENDBRANCH   3   4
ENDBRANCH   1   3
BRANCH   1  11
ATOM     11  S   UNL     1       5.437   5.406  18.500  0.00  0.00    +0.000 S 
BRANCH  11  12
ATOM     12  C   UNL     1       3.981   5.079  17.431  0.00  0.00    +0.000 C 
BRANCH  12  13
ATOM     13  C   UNL     1       3.439   3.662  17.608  0.00  0.00    +0.000 C 
BRANCH  13  14
ATOM     14  C   UNL     1       2.727   3.482  18.925  0.00  0.00    +0.000 A 
ATOM     15  C   UNL     1       3.321   2.728  19.948  0.00  0.00    +0.000 A 
ATOM     16  C   UNL     1       2.676   2.578  21.175  0.00  0.00    +0.000 A 
ATOM     17  C   UNL     1       1.433   3.169  21.388  0.00  0.00    +0.000 A 
ATOM     18  C   UNL     1       0.830   3.907  20.369  0.00  0.00    +0.000 A 
ATOM     19  C   UNL     1       1.471   4.061  19.142  0.00  0.00    +0.000 A 
ENDBRANCH  13  14
ENDBRANCH  12  13
ENDBRANCH  11  12
ENDBRANCH   1  11
TORSDOF 7
ENDMDL
MODEL 9
REMARK VINA RESULT:      -6.3      3.289      4.649
REMARK  Name = 
REMARK  7 active torsions:
REMARK  status: ('A' for Active; 'I' for Inactive)
REMARK    1  A    between atoms: C_2  and  C_3
REMARK    2  A    between atoms: C_2  and  C_13
REMARK    3  A    between atoms: C_3  and  S_4
REMARK    4  A    between atoms: S_4  and  C_5
REMARK    5  A    between atoms: C_5  and  C_6
REMARK    6  A    between atoms: C_6  and  C_7
REMARK    7  A    between atoms: C_13  and  C_16
REMARK                            x       y       z     vdW  Elec       q    Type
REMARK                         _______ _______ _______ _____ _____    ______ ____
ROOT
ATOM      1  C   UNL     1       4.795   3.191  19.181  0.00  0.00    +0.000 C 
ENDROOT
BRANCH   1   3
ATOM      2  O   UNL     1       5.084   3.813  16.891  0.00  0.00    +0.000 OA
ATOM      3  C   UNL     1       5.220   4.132  18.075  0.00  0.00    +0.000 C 
BRANCH   3   4
ATOM      4  C   UNL     1       5.797   5.466  18.492  0.00  0.00    +0.000 C 
ATOM      5  F   UNL     1       5.376   6.472  17.663  0.00  0.00    +0.000 F 
ATOM      6  F   UNL     1       5.320   5.832  19.725  0.00  0.00    +0.000 F 
BRANCH   4   7
ATOM      7  C   UNL     1       7.323   5.397  18.517  0.00  0.00    +0.000 C 
ATOM      8  F   UNL     1       7.831   4.274  17.964  0.00  0.00    +0.000 F 
ATOM      9  F   UNL     1       7.872   6.445  17.849  0.00  0.00    +0.000 F 
ATOM     10  F   UNL     1       7.809   5.458  19.784  0.00  0.00    +0.000 F 
ENDBRANCH   4   7
ENDBRANCH   3   4
ENDBRANCH   1   3
BRANCH   1  11
ATOM     11  S   UNL     1       3.529   2.012  18.634  0.00  0.00    +0.000 S 
BRANCH  11  12
ATOM     12  C   UNL     1       2.211   2.300  19.880  0.00  0.00    +0.000 C 
BRANCH  12  13
ATOM     13  C   UNL     1       1.118   3.232  19.361  0.00  0.00    +0.000 C 
BRANCH  13  14
ATOM     14  C   UNL     1       1.580   4.665  19.276  0.00  0.00    +0.000 A 
ATOM     15  C   UNL     1       1.875   5.236  18.029  0.00  0.00    +0.000 A 
ATOM     16  C   UNL     1       2.281   6.567  17.943  0.00  0.00    +0.000 A 
ATOM     17  C   UNL     1       2.402   7.336  19.099  0.00  0.00    +0.000 A 
ATOM     18  C   UNL     1       2.125   6.770  20.343  0.00  0.00    +0.000 A 
ATOM     19  C   UNL     1       1.718   5.440  20.433  0.00  0.00    +0.000 A 
ENDBRANCH  13  14
ENDBRANCH  12  13
ENDBRANCH  11  12
ENDBRANCH   1  11
TORSDOF 7
ENDMDL
