MODEL 1
REMARK VINA RESULT:      -6.8      0.000      0.000
REMARK  Name = 
REMARK  6 active torsions:
REMARK  status: ('A' for Active; 'I' for Inactive)
REMARK    1  A    between atoms: C_1  and  O_2
REMARK    2  A    between atoms: O_2  and  C_3
REMARK    3  A    between atoms: C_13  and  O_14
REMARK    4  A    between atoms: O_14  and  C_15
REMARK    5  A    between atoms: C_15  and  C_16
REMARK    6  A    between atoms: N_25  and  C_26
REMARK                            x       y       z     vdW  Elec       q    Type
REMARK                         _______ _______ _______ _____ _____    ______ ____
ROOT
ATOM      1  C   UNL     1       1.919  15.032  19.280  0.00  0.00    +0.000 C 
ATOM      2  C   UNL     1       2.738  13.812  19.704  0.00  0.00    +0.000 C 
ATOM      3  C   UNL     1       1.895  12.843  20.554  0.00  0.00    +0.000 C 
ATOM      4  C   UNL     1       0.639  12.372  19.798  0.00  0.00    +0.000 C 
ATOM      5  C   UNL     1      -0.059  13.531  18.998  0.00  0.00    +0.000 C 
ATOM      6  C   UNL     1       0.842  14.551  18.316  0.00  0.00    +0.000 C 
ATOM      7  O   UNL     1       1.128  11.556  18.669  0.00  0.00    +0.000 OA
ATOM      8  C   UNL     1       1.022  10.262  19.093  0.00  0.00    +0.000 A 
ATOM      9  C   UNL     1       1.796   9.271  18.488  0.00  0.00    +0.000 A 
ATOM     10  C   UNL     1       1.905   8.085  19.158  0.00  0.00    +0.000 A 
ATOM     11  C   UNL     1       1.277   7.867  20.398  0.00  0.00    +0.000 A 
ATOM     12  C   UNL     1       0.438   8.863  20.944  0.00  0.00    +0.000 A 
ATOM     13  C   UNL     1       0.273  10.079  20.252  0.00  0.00    +0.000 A 
ATOM     14  C   UNL     1      -0.348  11.405  20.653  0.00  0.00    +0.000 C 
ATOM     15  N   UNL     1      -1.688  11.845  20.100  0.00  0.00    +0.000 NA
ATOM     16  C   UNL     1      -2.149  12.532  21.094  0.00  0.00    +0.000 C 
ATOM     17  N   UNL     1      -2.451  13.854  21.177  0.00  0.00    +0.000 N 
ATOM     18  N   UNL     1      -1.955  11.942  22.281  0.00  0.00    +0.000 N 
ATOM     19  C   UNL     1      -2.987  11.937  23.322  0.00  0.00    +0.000 C 
ATOM     20  C   UNL     1      -0.675  11.455  22.197  0.00  0.00    +0.000 C 
ATOM     21  O   UNL     1       0.040  11.146  23.136  0.00  0.00    +0.000 OA
ATOM     22  H   UNL     1      -1.573  14.373  21.081  0.00  0.00    +0.000 HD
ATOM     23  H   UNL     1      -2.696  14.151  22.114  0.00  0.00    +0.000 HD
ENDROOT
BRANCH   1  25
ATOM     24  C   UNL     1       2.046  16.692  20.993  0.00  0.00    +0.000 C 
ATOM     25  O   UNL     1       1.271  15.654  20.403  0.00  0.00    +0.000 OA
ENDBRANCH   1  25
BRANCH  11  26
ATOM     26  O   UNL     1       1.695   6.707  20.994  0.00  0.00    +0.000 OA
BRANCH  26  27
ATOM     27  C   UNL     1       2.014   5.597  20.171  0.00  0.00    +0.000 C 
BRANCH  27  28
ATOM     28  C   UNL     1       1.040   4.490  20.499  0.00  0.00    +0.000 C 
ATOM     29  C   UNL     1       1.029   3.189  19.727  0.00  0.00    +0.000 C 
ATOM     30  C   UNL     1       1.526   3.215  21.144  0.00  0.00    +0.000 C 
ENDBRANCH  27  28
ENDBRANCH  26  27
ENDBRANCH  11  26
TORSDOF 4
ENDMDL
MODEL 2
REMARK VINA RESULT:      -6.7      4.073      5.913
REMARK  Name = 
REMARK  6 active torsions:
REMARK  status: ('A' for Active; 'I' for Inactive)
REMARK    1  A    between atoms: C_1  and  O_2
REMARK    2  A    between atoms: O_2  and  C_3
REMARK    3  A    between atoms: C_13  and  O_14
REMARK    4  A    between atoms: O_14  and  C_15
REMARK    5  A    between atoms: C_15  and  C_16
REMARK    6  A    between atoms: N_25  and  C_26
REMARK                            x       y       z     vdW  Elec       q    Type
REMARK                         _______ _______ _______ _____ _____    ______ ____
ROOT
ATOM      1  C   UNL     1       0.834  14.196  21.351  0.00  0.00    +0.000 C 
ATOM      2  C   UNL     1       0.439  14.203  19.874  0.00  0.00    +0.000 C 
ATOM      3  C   UNL     1       0.527  12.789  19.268  0.00  0.00    +0.000 C 
ATOM      4  C   UNL     1      -0.366  11.790  20.027  0.00  0.00    +0.000 C 
ATOM      5  C   UNL     1      -0.306  11.985  21.586  0.00  0.00    +0.000 C 
ATOM      6  C   UNL     1      -0.229  13.412  22.110  0.00  0.00    +0.000 C 
ATOM      7  O   UNL     1      -1.756  12.221  19.779  0.00  0.00    +0.000 OA
ATOM      8  C   UNL     1      -2.201  11.424  18.764  0.00  0.00    +0.000 A 
ATOM      9  C   UNL     1      -3.278  11.840  17.981  0.00  0.00    +0.000 A 
ATOM     10  C   UNL     1      -3.461  11.186  16.794  0.00  0.00    +0.000 A 
ATOM     11  C   UNL     1      -2.606  10.149  16.374  0.00  0.00    +0.000 A 
ATOM     12  C   UNL     1      -1.574   9.702  17.226  0.00  0.00    +0.000 A 
ATOM     13  C   UNL     1      -1.392  10.329  18.474  0.00  0.00    +0.000 A 
ATOM     14  C   UNL     1      -0.273  10.257  19.499  0.00  0.00    +0.000 C 
ATOM     15  N   UNL     1      -0.454   9.518  20.809  0.00  0.00    +0.000 NA
ATOM     16  C   UNL     1       0.750   9.100  21.022  0.00  0.00    +0.000 C 
ATOM     17  N   UNL     1       1.614   9.398  22.027  0.00  0.00    +0.000 N 
ATOM     18  N   UNL     1       1.341   8.603  19.927  0.00  0.00    +0.000 N 
ATOM     19  C   UNL     1       2.162   7.390  19.971  0.00  0.00    +0.000 C 
ATOM     20  C   UNL     1       0.986   9.486  18.938  0.00  0.00    +0.000 C 
ATOM     21  O   UNL     1       1.551   9.631  17.866  0.00  0.00    +0.000 OA
ATOM     22  H   UNL     1       1.855  10.390  21.937  0.00  0.00    +0.000 HD
ATOM     23  H   UNL     1       2.539   9.008  21.890  0.00  0.00    +0.000 HD
ENDROOT
BRANCH   1  25
ATOM     24  C   UNL     1       3.187  14.465  21.668  0.00  0.00    +0.000 C 
ATOM     25  O   UNL     1       2.102  13.549  21.560  0.00  0.00    +0.000 OA
ENDBRANCH   1  25
BRANCH  11  26
ATOM     26  O   UNL     1      -2.831   9.789  15.071  0.00  0.00    +0.000 OA
BRANCH  26  27
ATOM     27  C   UNL     1      -3.912  10.390  14.377  0.00  0.00    +0.000 C 
BRANCH  27  28
ATOM     28  C   UNL     1      -4.276   9.483  13.226  0.00  0.00    +0.000 C 
ATOM     29  C   UNL     1      -5.155   9.956  12.089  0.00  0.00    +0.000 C 
ATOM     30  C   UNL     1      -3.690   9.720  11.855  0.00  0.00    +0.000 C 
ENDBRANCH  27  28
ENDBRANCH  26  27
ENDBRANCH  11  26
TORSDOF 4
ENDMDL
MODEL 3
REMARK VINA RESULT:      -6.3      2.362      4.743
REMARK  Name = 
REMARK  6 active torsions:
REMARK  status: ('A' for Active; 'I' for Inactive)
REMARK    1  A    between atoms: C_1  and  O_2
REMARK    2  A    between atoms: O_2  and  C_3
REMARK    3  A    between atoms: C_13  and  O_14
REMARK    4  A    between atoms: O_14  and  C_15
REMARK    5  A    between atoms: C_15  and  C_16
REMARK    6  A    between atoms: N_25  and  C_26
REMARK                            x       y       z     vdW  Elec       q    Type
REMARK                         _______ _______ _______ _____ _____    ______ ____
ROOT
ATOM      1  C   UNL     1      -4.377  13.931  23.199  0.00  0.00    +0.000 C 
ATOM      2  C   UNL     1      -4.195  12.644  22.394  0.00  0.00    +0.000 C 
ATOM      3  C   UNL     1      -2.917  12.699  21.536  0.00  0.00    +0.000 C 
ATOM      4  C   UNL     1      -1.664  12.937  22.399  0.00  0.00    +0.000 C 
ATOM      5  C   UNL     1      -1.901  14.002  23.531  0.00  0.00    +0.000 C 
ATOM      6  C   UNL     1      -3.255  13.994  24.228  0.00  0.00    +0.000 C 
ATOM      7  O   UNL     1      -1.509  11.727  23.230  0.00  0.00    +0.000 OA
ATOM      8  C   UNL     1      -0.579  10.966  22.580  0.00  0.00    +0.000 A 
ATOM      9  C   UNL     1      -0.521   9.593  22.820  0.00  0.00    +0.000 A 
ATOM     10  C   UNL     1       0.177   8.843  21.916  0.00  0.00    +0.000 A 
ATOM     11  C   UNL     1       0.804   9.418  20.794  0.00  0.00    +0.000 A 
ATOM     12  C   UNL     1       0.792  10.819  20.625  0.00  0.00    +0.000 A 
ATOM     13  C   UNL     1       0.116  11.619  21.567  0.00  0.00    +0.000 A 
ATOM     14  C   UNL     1      -0.279  13.086  21.564  0.00  0.00    +0.000 C 
ATOM     15  N   UNL     1       0.442  14.097  22.431  0.00  0.00    +0.000 NA
ATOM     16  C   UNL     1       0.349  15.158  21.699  0.00  0.00    +0.000 C 
ATOM     17  N   UNL     1      -0.287  16.334  21.941  0.00  0.00    +0.000 N 
ATOM     18  N   UNL     1       0.597  14.931  20.402  0.00  0.00    +0.000 N 
ATOM     19  C   UNL     1       1.389  15.860  19.590  0.00  0.00    +0.000 C 
ATOM     20  C   UNL     1      -0.053  13.750  20.149  0.00  0.00    +0.000 C 
ATOM     21  O   UNL     1      -0.385  13.332  19.051  0.00  0.00    +0.000 OA
ATOM     22  H   UNL     1      -1.291  16.136  21.977  0.00  0.00    +0.000 HD
ATOM     23  H   UNL     1      -0.288  16.961  21.145  0.00  0.00    +0.000 HD
ENDROOT
BRANCH   1  25
ATOM     24  C   UNL     1      -4.964  16.228  22.902  0.00  0.00    +0.000 C 
ATOM     25  O   UNL     1      -4.285  15.098  22.364  0.00  0.00    +0.000 OA
ENDBRANCH   1  25
BRANCH  11  26
ATOM     26  O   UNL     1       1.251   8.473  19.909  0.00  0.00    +0.000 OA
BRANCH  26  27
ATOM     27  C   UNL     1       1.876   8.904  18.711  0.00  0.00    +0.000 C 
BRANCH  27  28
ATOM     28  C   UNL     1       2.261   7.672  17.927  0.00  0.00    +0.000 C 
ATOM     29  C   UNL     1       3.705   7.358  17.603  0.00  0.00    +0.000 C 
ATOM     30  C   UNL     1       2.965   6.524  18.610  0.00  0.00    +0.000 C 
ENDBRANCH  27  28
ENDBRANCH  26  27
ENDBRANCH  11  26
TORSDOF 4
ENDMDL
MODEL 4
REMARK VINA RESULT:      -6.1      3.089      5.594
REMARK  Name = 
REMARK  6 active torsions:
REMARK  status: ('A' for Active; 'I' for Inactive)
REMARK    1  A    between atoms: C_1  and  O_2
REMARK    2  A    between atoms: O_2  and  C_3
REMARK    3  A    between atoms: C_13  and  O_14
REMARK    4  A    between atoms: O_14  and  C_15
REMARK    5  A    between atoms: C_15  and  C_16
REMARK    6  A    between atoms: N_25  and  C_26
REMARK                            x       y       z     vdW  Elec       q    Type
REMARK                         _______ _______ _______ _____ _____    ______ ____
ROOT
ATOM      1  C   UNL     1      -4.628  14.253  23.925  0.00  0.00    +0.000 C 
ATOM      2  C   UNL     1      -4.463  13.100  22.934  0.00  0.00    +0.000 C 
ATOM      3  C   UNL     1      -3.254  13.332  22.007  0.00  0.00    +0.000 C 
ATOM      4  C   UNL     1      -1.950  13.504  22.807  0.00  0.00    +0.000 C 
ATOM      5  C   UNL     1      -2.139  14.389  24.093  0.00  0.00    +0.000 C 
ATOM      6  C   UNL     1      -3.436  14.223  24.872  0.00  0.00    +0.000 C 
ATOM      7  O   UNL     1      -1.692  12.198  23.445  0.00  0.00    +0.000 OA
ATOM      8  C   UNL     1      -0.787  11.577  22.632  0.00  0.00    +0.000 A 
ATOM      9  C   UNL     1      -0.663  10.188  22.670  0.00  0.00    +0.000 A 
ATOM     10  C   UNL     1      -0.008   9.603  21.622  0.00  0.00    +0.000 A 
ATOM     11  C   UNL     1       0.514  10.356  20.553  0.00  0.00    +0.000 A 
ATOM     12  C   UNL     1       0.440  11.766  20.586  0.00  0.00    +0.000 A 
ATOM     13  C   UNL     1      -0.192  12.396  21.676  0.00  0.00    +0.000 A 
ATOM     14  C   UNL     1      -0.637  13.830  21.908  0.00  0.00    +0.000 C 
ATOM     15  N   UNL     1       0.111  14.741  22.859  0.00  0.00    +0.000 NA
ATOM     16  C   UNL     1      -0.073  15.889  22.293  0.00  0.00    +0.000 C 
ATOM     17  N   UNL     1      -0.729  16.990  22.743  0.00  0.00    +0.000 N 
ATOM     18  N   UNL     1       0.086  15.855  20.963  0.00  0.00    +0.000 N 
ATOM     19  C   UNL     1       0.783  16.923  20.239  0.00  0.00    +0.000 C 
ATOM     20  C   UNL     1      -0.540  14.693  20.590  0.00  0.00    +0.000 C 
ATOM     21  O   UNL     1      -0.937  14.418  19.469  0.00  0.00    +0.000 OA
ATOM     22  H   UNL     1      -1.721  16.743  22.820  0.00  0.00    +0.000 HD
ATOM     23  H   UNL     1      -0.812  17.720  22.046  0.00  0.00    +0.000 HD
ENDROOT
BRANCH   1  25
ATOM     24  C   UNL     1      -5.825  16.278  23.504  0.00  0.00    +0.000 C 
ATOM     25  O   UNL     1      -4.639  15.529  23.259  0.00  0.00    +0.000 OA
ENDBRANCH   1  25
BRANCH  11  26
ATOM     26  O   UNL     1       0.926   9.564  19.515  0.00  0.00    +0.000 OA
BRANCH  26  27
ATOM     27  C   UNL     1       0.475   9.871  18.205  0.00  0.00    +0.000 C 
BRANCH  27  28
ATOM     28  C   UNL     1      -1.033   9.946  18.248  0.00  0.00    +0.000 C 
ATOM     29  C   UNL     1      -1.780  11.168  17.761  0.00  0.00    +0.000 C 
ATOM     30  C   UNL     1      -1.835   9.892  16.970  0.00  0.00    +0.000 C 
ENDBRANCH  27  28
ENDBRANCH  26  27
ENDBRANCH  11  26
TORSDOF 4
ENDMDL
MODEL 5
REMARK VINA RESULT:      -6.0      2.254      4.299
REMARK  Name = 
REMARK  6 active torsions:
REMARK  status: ('A' for Active; 'I' for Inactive)
REMARK    1  A    between atoms: C_1  and  O_2
REMARK    2  A    between atoms: O_2  and  C_3
REMARK    3  A    between atoms: C_13  and  O_14
REMARK    4  A    between atoms: O_14  and  C_15
REMARK    5  A    between atoms: C_15  and  C_16
REMARK    6  A    between atoms: N_25  and  C_26
REMARK                            x       y       z     vdW  Elec       q    Type
REMARK                         _______ _______ _______ _____ _____    ______ ____
ROOT
ATOM      1  C   UNL     1      -3.870  14.429  21.922  0.00  0.00    +0.000 C 
ATOM      2  C   UNL     1      -3.802  12.967  21.480  0.00  0.00    +0.000 C 
ATOM      3  C   UNL     1      -2.458  12.655  20.795  0.00  0.00    +0.000 C 
ATOM      4  C   UNL     1      -1.265  12.961  21.720  0.00  0.00    +0.000 C 
ATOM      5  C   UNL     1      -1.449  14.300  22.524  0.00  0.00    +0.000 C 
ATOM      6  C   UNL     1      -2.846  14.625  23.033  0.00  0.00    +0.000 C 
ATOM      7  O   UNL     1      -1.356  11.994  22.832  0.00  0.00    +0.000 OA
ATOM      8  C   UNL     1      -0.489  10.991  22.503  0.00  0.00    +0.000 A 
ATOM      9  C   UNL     1      -0.646   9.728  23.074  0.00  0.00    +0.000 A 
ATOM     10  C   UNL     1       0.017   8.696  22.469  0.00  0.00    +0.000 A 
ATOM     11  C   UNL     1       0.815   8.890  21.326  0.00  0.00    +0.000 A 
ATOM     12  C   UNL     1       1.015  10.193  20.823  0.00  0.00    +0.000 A 
ATOM     13  C   UNL     1       0.378  11.280  21.453  0.00  0.00    +0.000 A 
ATOM     14  C   UNL     1       0.195  12.732  21.047  0.00  0.00    +0.000 C 
ATOM     15  N   UNL     1       0.973  13.842  21.725  0.00  0.00    +0.000 NA
ATOM     16  C   UNL     1       1.095  14.684  20.752  0.00  0.00    +0.000 C 
ATOM     17  N   UNL     1       0.613  15.947  20.623  0.00  0.00    +0.000 N 
ATOM     18  N   UNL     1       1.423  14.105  19.589  0.00  0.00    +0.000 N 
ATOM     19  C   UNL     1       2.406  14.699  18.677  0.00  0.00    +0.000 C 
ATOM     20  C   UNL     1       0.637  12.981  19.552  0.00  0.00    +0.000 C 
ATOM     21  O   UNL     1       0.348  12.337  18.556  0.00  0.00    +0.000 OA
ATOM     22  H   UNL     1      -0.409  15.881  20.585  0.00  0.00    +0.000 HD
ATOM     23  H   UNL     1       0.770  16.345  19.705  0.00  0.00    +0.000 HD
ENDROOT
BRANCH   1  25
ATOM     24  C   UNL     1      -4.120  16.618  20.996  0.00  0.00    +0.000 C 
ATOM     25  O   UNL     1      -3.541  15.326  20.846  0.00  0.00    +0.000 OA
ENDBRANCH   1  25
BRANCH  11  26
ATOM     26  O   UNL     1       1.201   7.705  20.757  0.00  0.00    +0.000 OA
BRANCH  26  27
ATOM     27  C   UNL     1       2.086   7.739  19.649  0.00  0.00    +0.000 C 
BRANCH  27  28
ATOM     28  C   UNL     1       2.629   6.343  19.456  0.00  0.00    +0.000 C 
ATOM     29  C   UNL     1       2.329   5.542  18.208  0.00  0.00    +0.000 C 
ATOM     30  C   UNL     1       3.712   6.081  18.437  0.00  0.00    +0.000 C 
ENDBRANCH  27  28
ENDBRANCH  26  27
ENDBRANCH  11  26
TORSDOF 4
ENDMDL
MODEL 6
REMARK VINA RESULT:      -6.0      8.668     10.560
REMARK  Name = 
REMARK  6 active torsions:
REMARK  status: ('A' for Active; 'I' for Inactive)
REMARK    1  A    between atoms: C_1  and  O_2
REMARK    2  A    between atoms: O_2  and  C_3
REMARK    3  A    between atoms: C_13  and  O_14
REMARK    4  A    between atoms: O_14  and  C_15
REMARK    5  A    between atoms: C_15  and  C_16
REMARK    6  A    between atoms: N_25  and  C_26
REMARK                            x       y       z     vdW  Elec       q    Type
REMARK                         _______ _______ _______ _____ _____    ______ ____
ROOT
ATOM      1  C   UNL     1      11.892  11.900  18.485  0.00  0.00    +0.000 C 
ATOM      2  C   UNL     1      11.908  12.045  20.007  0.00  0.00    +0.000 C 
ATOM      3  C   UNL     1      11.031  13.226  20.464  0.00  0.00    +0.000 C 
ATOM      4  C   UNL     1       9.576  13.070  19.985  0.00  0.00    +0.000 C 
ATOM      5  C   UNL     1       9.476  12.538  18.509  0.00  0.00    +0.000 C 
ATOM      6  C   UNL     1      10.485  11.483  18.076  0.00  0.00    +0.000 C 
ATOM      7  O   UNL     1       9.036  11.900  20.704  0.00  0.00    +0.000 OA
ATOM      8  C   UNL     1       8.343  12.419  21.760  0.00  0.00    +0.000 A 
ATOM      9  C   UNL     1       8.092  11.625  22.879  0.00  0.00    +0.000 A 
ATOM     10  C   UNL     1       7.705  12.276  24.018  0.00  0.00    +0.000 A 
ATOM     11  C   UNL     1       7.570  13.677  24.067  0.00  0.00    +0.000 A 
ATOM     12  C   UNL     1       7.756  14.441  22.896  0.00  0.00    +0.000 A 
ATOM     13  C   UNL     1       8.112  13.790  21.698  0.00  0.00    +0.000 A 
ATOM     14  C   UNL     1       8.599  14.313  20.358  0.00  0.00    +0.000 C 
ATOM     15  N   UNL     1       7.699  14.314  19.140  0.00  0.00    +0.000 NA
ATOM     16  C   UNL     1       8.133  15.358  18.515  0.00  0.00    +0.000 C 
ATOM     17  N   UNL     1       8.733  15.463  17.300  0.00  0.00    +0.000 N 
ATOM     18  N   UNL     1       8.348  16.406  19.321  0.00  0.00    +0.000 N 
ATOM     19  C   UNL     1       7.978  17.771  18.933  0.00  0.00    +0.000 C 
ATOM     20  C   UNL     1       8.949  15.852  20.422  0.00  0.00    +0.000 C 
ATOM     21  O   UNL     1       9.617  16.446  21.253  0.00  0.00    +0.000 OA
ATOM     22  H   UNL     1       9.638  14.988  17.365  0.00  0.00    +0.000 HD
ATOM     23  H   UNL     1       9.070  16.397  17.099  0.00  0.00    +0.000 HD
ENDROOT
BRANCH   1  25
ATOM     24  C   UNL     1      12.054  13.081  16.415  0.00  0.00    +0.000 C 
ATOM     25  O   UNL     1      12.200  13.143  17.830  0.00  0.00    +0.000 OA
ENDBRANCH   1  25
BRANCH  11  26
ATOM     26  O   UNL     1       7.395  14.134  25.346  0.00  0.00    +0.000 OA
BRANCH  26  27
ATOM     27  C   UNL     1       6.268  13.684  26.081  0.00  0.00    +0.000 C 
BRANCH  27  28
ATOM     28  C   UNL     1       6.655  13.659  27.541  0.00  0.00    +0.000 C 
ATOM     29  C   UNL     1       7.207  12.411  28.194  0.00  0.00    +0.000 C 
ATOM     30  C   UNL     1       8.109  13.586  27.942  0.00  0.00    +0.000 C 
ENDBRANCH  27  28
ENDBRANCH  26  27
ENDBRANCH  11  26
TORSDOF 4
ENDMDL
MODEL 7
REMARK VINA RESULT:      -5.9      2.460      4.665
REMARK  Name = 
REMARK  6 active torsions:
REMARK  status: ('A' for Active; 'I' for Inactive)
REMARK    1  A    between atoms: C_1  and  O_2
REMARK    2  A    between atoms: O_2  and  C_3
REMARK    3  A    between atoms: C_13  and  O_14
REMARK    4  A    between atoms: O_14  and  C_15
REMARK    5  A    between atoms: C_15  and  C_16
REMARK    6  A    between atoms: N_25  and  C_26
REMARK                            x       y       z     vdW  Elec       q    Type
REMARK                         _______ _______ _______ _____ _____    ______ ____
ROOT
ATOM      1  C   UNL     1      -3.400  14.473  23.359  0.00  0.00    +0.000 C 
ATOM      2  C   UNL     1      -3.498  13.406  22.268  0.00  0.00    +0.000 C 
ATOM      3  C   UNL     1      -2.328  13.521  21.272  0.00  0.00    +0.000 C 
ATOM      4  C   UNL     1      -0.966  13.398  21.980  0.00  0.00    +0.000 C 
ATOM      5  C   UNL     1      -0.919  14.178  23.345  0.00  0.00    +0.000 C 
ATOM      6  C   UNL     1      -2.174  14.157  24.206  0.00  0.00    +0.000 C 
ATOM      7  O   UNL     1      -0.897  12.013  22.487  0.00  0.00    +0.000 OA
ATOM      8  C   UNL     1      -0.164  11.331  21.558  0.00  0.00    +0.000 A 
ATOM      9  C   UNL     1      -0.279   9.943  21.473  0.00  0.00    +0.000 A 
ATOM     10  C   UNL     1       0.199   9.358  20.333  0.00  0.00    +0.000 A 
ATOM     11  C   UNL     1       0.774  10.111  19.292  0.00  0.00    +0.000 A 
ATOM     12  C   UNL     1       0.946  11.504  19.446  0.00  0.00    +0.000 A 
ATOM     13  C   UNL     1       0.501  12.125  20.629  0.00  0.00    +0.000 A 
ATOM     14  C   UNL     1       0.325  13.585  21.012  0.00  0.00    +0.000 C 
ATOM     15  N   UNL     1       1.276  14.267  21.972  0.00  0.00    +0.000 NA
ATOM     16  C   UNL     1       1.257  15.477  21.519  0.00  0.00    +0.000 C 
ATOM     17  N   UNL     1       0.829  16.624  22.106  0.00  0.00    +0.000 N 
ATOM     18  N   UNL     1       1.325  15.542  20.182  0.00  0.00    +0.000 N 
ATOM     19  C   UNL     1       2.147  16.543  19.495  0.00  0.00    +0.000 C 
ATOM     20  C   UNL     1       0.486  14.540  19.765  0.00  0.00    +0.000 C 
ATOM     21  O   UNL     1      -0.022  14.440  18.660  0.00  0.00    +0.000 OA
ATOM     22  H   UNL     1      -0.183  16.539  22.239  0.00  0.00    +0.000 HD
ATOM     23  H   UNL     1       0.830  17.420  21.480  0.00  0.00    +0.000 HD
ENDROOT
BRANCH   1  25
ATOM     24  C   UNL     1      -4.468  16.461  22.573  0.00  0.00    +0.000 C 
ATOM     25  O   UNL     1      -3.234  15.789  22.803  0.00  0.00    +0.000 OA
ENDBRANCH   1  25
BRANCH  11  26
ATOM     26  O   UNL     1       0.979   9.362  18.164  0.00  0.00    +0.000 OA
BRANCH  26  27
ATOM     27  C   UNL     1       2.297   8.933  17.863  0.00  0.00    +0.000 C 
BRANCH  27  28
ATOM     28  C   UNL     1       2.316   7.426  17.946  0.00  0.00    +0.000 C 
ATOM     29  C   UNL     1       3.610   6.656  18.099  0.00  0.00    +0.000 C 
ATOM     30  C   UNL     1       2.647   6.738  19.249  0.00  0.00    +0.000 C 
ENDBRANCH  27  28
ENDBRANCH  26  27
ENDBRANCH  11  26
TORSDOF 4
ENDMDL
MODEL 8
REMARK VINA RESULT:      -5.8      3.481      6.322
REMARK  Name = 
REMARK  6 active torsions:
REMARK  status: ('A' for Active; 'I' for Inactive)
REMARK    1  A    between atoms: C_1  and  O_2
REMARK    2  A    between atoms: O_2  and  C_3
REMARK    3  A    between atoms: C_13  and  O_14
REMARK    4  A    between atoms: O_14  and  C_15
REMARK    5  A    between atoms: C_15  and  C_16
REMARK    6  A    between atoms: N_25  and  C_26
REMARK                            x       y       z     vdW  Elec       q    Type
REMARK                         _______ _______ _______ _____ _____    ______ ____
ROOT
ATOM      1  C   UNL     1       2.559  15.498  19.616  0.00  0.00    +0.000 C 
ATOM      2  C   UNL     1       1.155  15.880  20.087  0.00  0.00    +0.000 C 
ATOM      3  C   UNL     1       0.156  14.732  19.848  0.00  0.00    +0.000 C 
ATOM      4  C   UNL     1       0.596  13.439  20.561  0.00  0.00    +0.000 C 
ATOM      5  C   UNL     1       2.141  13.177  20.443  0.00  0.00    +0.000 C 
ATOM      6  C   UNL     1       3.064  14.385  20.525  0.00  0.00    +0.000 C 
ATOM      7  O   UNL     1       0.505  13.724  22.006  0.00  0.00    +0.000 OA
ATOM      8  C   UNL     1      -0.696  13.203  22.397  0.00  0.00    +0.000 A 
ATOM      9  C   UNL     1      -1.307  13.673  23.560  0.00  0.00    +0.000 A 
ATOM     10  C   UNL     1      -2.632  13.375  23.719  0.00  0.00    +0.000 A 
ATOM     11  C   UNL     1      -3.351  12.637  22.760  0.00  0.00    +0.000 A 
ATOM     12  C   UNL     1      -2.683  12.110  21.634  0.00  0.00    +0.000 A 
ATOM     13  C   UNL     1      -1.307  12.366  21.468  0.00  0.00    +0.000 A 
ATOM     14  C   UNL     1      -0.364  12.156  20.296  0.00  0.00    +0.000 C 
ATOM     15  N   UNL     1       0.670  11.049  20.308  0.00  0.00    +0.000 NA
ATOM     16  C   UNL     1       0.735  10.761  19.050  0.00  0.00    +0.000 C 
ATOM     17  N   UNL     1       1.772  10.872  18.180  0.00  0.00    +0.000 N 
ATOM     18  N   UNL     1      -0.466  10.694  18.460  0.00  0.00    +0.000 N 
ATOM     19  C   UNL     1      -0.794   9.649  17.485  0.00  0.00    +0.000 C 
ATOM     20  C   UNL     1      -1.144  11.768  18.979  0.00  0.00    +0.000 C 
ATOM     21  O   UNL     1      -2.132  12.297  18.497  0.00  0.00    +0.000 OA
ATOM     22  H   UNL     1       1.977  11.870  18.076  0.00  0.00    +0.000 HD
ATOM     23  H   UNL     1       1.514  10.673  17.221  0.00  0.00    +0.000 HD
ENDROOT
BRANCH   1  25
ATOM     24  C   UNL     1       3.529  15.622  17.436  0.00  0.00    +0.000 C 
ATOM     25  O   UNL     1       2.550  15.004  18.265  0.00  0.00    +0.000 OA
ENDBRANCH   1  25
BRANCH  11  26
ATOM     26  O   UNL     1      -4.699  12.645  23.005  0.00  0.00    +0.000 OA
BRANCH  26  27
ATOM     27  C   UNL     1      -5.495  13.647  22.392  0.00  0.00    +0.000 C 
BRANCH  27  28
ATOM     28  C   UNL     1      -6.796  13.004  21.974  0.00  0.00    +0.000 C 
ATOM     29  C   UNL     1      -7.413  13.271  20.619  0.00  0.00    +0.000 C 
ATOM     30  C   UNL     1      -6.808  11.928  20.916  0.00  0.00    +0.000 C 
ENDBRANCH  27  28
ENDBRANCH  26  27
ENDBRANCH  11  26
TORSDOF 4
ENDMDL
MODEL 9
REMARK VINA RESULT:      -5.8      3.486      6.677
REMARK  Name = 
REMARK  6 active torsions:
REMARK  status: ('A' for Active; 'I' for Inactive)
REMARK    1  A    between atoms: C_1  and  O_2
REMARK    2  A    between atoms: O_2  and  C_3
REMARK    3  A    between atoms: C_13  and  O_14
REMARK    4  A    between atoms: O_14  and  C_15
REMARK    5  A    between atoms: C_15  and  C_16
REMARK    6  A    between atoms: N_25  and  C_26
REMARK                            x       y       z     vdW  Elec       q    Type
REMARK                         _______ _______ _______ _____ _____    ______ ____
ROOT
ATOM      1  C   UNL     1       2.449  15.784  19.557  0.00  0.00    +0.000 C 
ATOM      2  C   UNL     1       1.027  16.078  20.037  0.00  0.00    +0.000 C 
ATOM      3  C   UNL     1       0.105  14.863  19.824  0.00  0.00    +0.000 C 
ATOM      4  C   UNL     1       0.637  13.614  20.552  0.00  0.00    +0.000 C 
ATOM      5  C   UNL     1       2.195  13.454  20.422  0.00  0.00    +0.000 C 
ATOM      6  C   UNL     1       3.036  14.722  20.478  0.00  0.00    +0.000 C 
ATOM      7  O   UNL     1       0.540  13.914  21.994  0.00  0.00    +0.000 OA
ATOM      8  C   UNL     1      -0.619  13.320  22.404  0.00  0.00    +0.000 A 
ATOM      9  C   UNL     1      -1.250  13.766  23.566  0.00  0.00    +0.000 A 
ATOM     10  C   UNL     1      -2.551  13.383  23.742  0.00  0.00    +0.000 A 
ATOM     11  C   UNL     1      -3.228  12.583  22.802  0.00  0.00    +0.000 A 
ATOM     12  C   UNL     1      -2.535  12.085  21.677  0.00  0.00    +0.000 A 
ATOM     13  C   UNL     1      -1.182  12.430  21.494  0.00  0.00    +0.000 A 
ATOM     14  C   UNL     1      -0.237  12.265  20.316  0.00  0.00    +0.000 C 
ATOM     15  N   UNL     1       0.869  11.230  20.334  0.00  0.00    +0.000 NA
ATOM     16  C   UNL     1       0.942  10.927  19.080  0.00  0.00    +0.000 C 
ATOM     17  N   UNL     1       1.961  11.094  18.198  0.00  0.00    +0.000 N 
ATOM     18  N   UNL     1      -0.257  10.771  18.502  0.00  0.00    +0.000 N 
ATOM     19  C   UNL     1      -0.523   9.692  17.546  0.00  0.00    +0.000 C 
ATOM     20  C   UNL     1      -1.001  11.805  19.013  0.00  0.00    +0.000 C 
ATOM     21  O   UNL     1      -2.027  12.260  18.532  0.00  0.00    +0.000 OA
ATOM     22  H   UNL     1       2.098  12.102  18.077  0.00  0.00    +0.000 HD
ATOM     23  H   UNL     1       1.708  10.863  17.244  0.00  0.00    +0.000 HD
ENDROOT
BRANCH   1  25
ATOM     24  C   UNL     1       3.720  15.423  17.567  0.00  0.00    +0.000 C 
ATOM     25  O   UNL     1       2.461  15.270  18.214  0.00  0.00    +0.000 OA
ENDBRANCH   1  25
BRANCH  11  26
ATOM     26  O   UNL     1      -4.570  12.505  23.060  0.00  0.00    +0.000 OA
BRANCH  26  27
ATOM     27  C   UNL     1      -5.162  13.494  23.888  0.00  0.00    +0.000 C 
BRANCH  27  28
ATOM     28  C   UNL     1      -6.574  13.714  23.399  0.00  0.00    +0.000 C 
ATOM     29  C   UNL     1      -7.751  13.709  24.348  0.00  0.00    +0.000 C 
ATOM     30  C   UNL     1      -7.301  14.998  23.720  0.00  0.00    +0.000 C 
ENDBRANCH  27  28
ENDBRANCH  26  27
ENDBRANCH  11  26
TORSDOF 4
ENDMDL
