MODEL 1
REMARK VINA RESULT:      -7.3      0.000      0.000
REMARK  Name = 
REMARK  5 active torsions:
REMARK  status: ('A' for Active; 'I' for Inactive)
REMARK    1  A    between atoms: C_1  and  C_2
REMARK    2  A    between atoms: C_2  and  O_3
REMARK    3  A    between atoms: O_3  and  C_4
REMARK    4  A    between atoms: C_4  and  C_6
REMARK    5  A    between atoms: C_19  and  C_20
REMARK                            x       y       z     vdW  Elec       q    Type
REMARK                         _______ _______ _______ _____ _____    ______ ____
ROOT
ATOM      1  C   UNL     1       3.295   3.247  20.387  0.00  0.00    +0.000 A 
ATOM      2  N   UNL     1       2.336   2.809  21.222  0.00  0.00    +0.000 NA
ATOM      3  O   UNL     1       1.504   3.882  21.441  0.00  0.00    +0.000 OA
ATOM      4  C   UNL     1       1.972   4.969  20.782  0.00  0.00    +0.000 A 
ATOM      5  N   UNL     1       1.345   6.152  20.837  0.00  0.00    +0.000 NA
ATOM      6  C   UNL     1       1.996   7.069  20.134  0.00  0.00    +0.000 A 
ATOM      7  N   UNL     1       3.132   6.901  19.438  0.00  0.00    +0.000 NA
ATOM      8  C   UNL     1       3.759   5.690  19.376  0.00  0.00    +0.000 A 
ATOM      9  N   UNL     1       4.932   5.622  18.658  0.00  0.00    +0.000 N 
ATOM     10  C   UNL     1       6.062   4.809  19.109  0.00  0.00    +0.000 C 
ATOM     11  C   UNL     1       7.342   5.639  19.180  0.00  0.00    +0.000 C 
ATOM     12  C   UNL     1       7.609   6.401  17.887  0.00  0.00    +0.000 C 
ATOM     13  C   UNL     1       6.382   7.198  17.446  0.00  0.00    +0.000 C 
ATOM     14  C   UNL     1       5.142   6.292  17.354  0.00  0.00    +0.000 C 
ATOM     15  C   UNL     1       3.964   7.052  16.750  0.00  0.00    +0.000 C 
ATOM     16  C   UNL     1       3.136   4.642  20.101  0.00  0.00    +0.000 A 
ENDROOT
BRANCH   1  17
ATOM     17  C   UNL     1       4.266   2.281  19.883  0.00  0.00    +0.000 C 
ATOM     18  O   UNL     1       5.111   1.741  20.590  0.00  0.00    +0.000 OA
BRANCH  17  19
ATOM     19  O   UNL     1       4.146   2.074  18.537  0.00  0.00    +0.000 OA
BRANCH  19  21
ATOM     20  C   UNL     1       2.636   3.096  16.939  0.00  0.00    +0.000 C 
ATOM     21  C   UNL     1       2.816   2.024  17.999  0.00  0.00    +0.000 C 
ENDBRANCH  19  21
ENDBRANCH  17  19
ENDBRANCH   1  17
TORSDOF 3
ENDMDL
MODEL 2
REMARK VINA RESULT:      -6.9      2.554      4.792
REMARK  Name = 
REMARK  5 active torsions:
REMARK  status: ('A' for Active; 'I' for Inactive)
REMARK    1  A    between atoms: C_1  and  C_2
REMARK    2  A    between atoms: C_2  and  O_3
REMARK    3  A    between atoms: O_3  and  C_4
REMARK    4  A    between atoms: C_4  and  C_6
REMARK    5  A    between atoms: C_19  and  C_20
REMARK                            x       y       z     vdW  Elec       q    Type
REMARK                         _______ _______ _______ _____ _____    ______ ____
ROOT
ATOM      1  C   UNL     1       5.731   5.834  17.289  0.00  0.00    +0.000 A 
ATOM      2  N   UNL     1       6.351   6.838  16.643  0.00  0.00    +0.000 NA
ATOM      3  O   UNL     1       5.466   7.891  16.639  0.00  0.00    +0.000 OA
ATOM      4  C   UNL     1       4.309   7.520  17.238  0.00  0.00    +0.000 A 
ATOM      5  N   UNL     1       3.275   8.364  17.359  0.00  0.00    +0.000 NA
ATOM      6  C   UNL     1       2.247   7.776  17.958  0.00  0.00    +0.000 A 
ATOM      7  N   UNL     1       2.185   6.511  18.405  0.00  0.00    +0.000 NA
ATOM      8  C   UNL     1       3.247   5.661  18.290  0.00  0.00    +0.000 A 
ATOM      9  N   UNL     1       3.080   4.376  18.757  0.00  0.00    +0.000 N 
ATOM     10  C   UNL     1       3.649   3.225  18.057  0.00  0.00    +0.000 C 
ATOM     11  C   UNL     1       2.580   2.173  17.768  0.00  0.00    +0.000 C 
ATOM     12  C   UNL     1       1.783   1.804  19.013  0.00  0.00    +0.000 C 
ATOM     13  C   UNL     1       1.249   3.047  19.723  0.00  0.00    +0.000 C 
ATOM     14  C   UNL     1       2.384   4.041  20.021  0.00  0.00    +0.000 C 
ATOM     15  C   UNL     1       1.876   5.197  20.879  0.00  0.00    +0.000 C 
ATOM     16  C   UNL     1       4.397   6.200  17.660  0.00  0.00    +0.000 A 
ENDROOT
BRANCH   1  17
ATOM     17  C   UNL     1       6.484   4.611  17.548  0.00  0.00    +0.000 C 
ATOM     18  O   UNL     1       6.700   4.175  18.674  0.00  0.00    +0.000 OA
BRANCH  17  19
ATOM     19  O   UNL     1       6.946   4.029  16.399  0.00  0.00    +0.000 OA
BRANCH  19  21
ATOM     20  C   UNL     1       6.382   4.136  14.044  0.00  0.00    +0.000 C 
ATOM     21  C   UNL     1       5.967   3.649  15.420  0.00  0.00    +0.000 C 
ENDBRANCH  19  21
ENDBRANCH  17  19
ENDBRANCH   1  17
TORSDOF 3
ENDMDL
MODEL 3
REMARK VINA RESULT:      -6.7      2.319      5.045
REMARK  Name = 
REMARK  5 active torsions:
REMARK  status: ('A' for Active; 'I' for Inactive)
REMARK    1  A    between atoms: C_1  and  C_2
REMARK    2  A    between atoms: C_2  and  O_3
REMARK    3  A    between atoms: O_3  and  C_4
REMARK    4  A    between atoms: C_4  and  C_6
REMARK    5  A    between atoms: C_19  and  C_20
REMARK                            x       y       z     vdW  Elec       q    Type
REMARK                         _______ _______ _______ _____ _____    ______ ____
ROOT
ATOM      1  C   UNL     1       5.284   5.543  16.676  0.00  0.00    +0.000 A 
ATOM      2  N   UNL     1       5.825   6.489  15.887  0.00  0.00    +0.000 NA
ATOM      3  O   UNL     1       5.062   7.619  16.072  0.00  0.00    +0.000 OA
ATOM      4  C   UNL     1       4.048   7.353  16.930  0.00  0.00    +0.000 A 
ATOM      5  N   UNL     1       3.152   8.288  17.274  0.00  0.00    +0.000 NA
ATOM      6  C   UNL     1       2.242   7.794  18.104  0.00  0.00    +0.000 A 
ATOM      7  N   UNL     1       2.173   6.538  18.575  0.00  0.00    +0.000 NA
ATOM      8  C   UNL     1       3.097   5.594  18.230  0.00  0.00    +0.000 A 
ATOM      9  N   UNL     1       2.928   4.328  18.744  0.00  0.00    +0.000 N 
ATOM     10  C   UNL     1       3.211   3.133  17.950  0.00  0.00    +0.000 C 
ATOM     11  C   UNL     1       2.013   2.185  17.934  0.00  0.00    +0.000 C 
ATOM     12  C   UNL     1       1.498   1.884  19.337  0.00  0.00    +0.000 C 
ATOM     13  C   UNL     1       1.259   3.168  20.131  0.00  0.00    +0.000 C 
ATOM     14  C   UNL     1       2.518   4.051  20.140  0.00  0.00    +0.000 C 
ATOM     15  C   UNL     1       2.330   5.245  21.074  0.00  0.00    +0.000 C 
ATOM     16  C   UNL     1       4.112   6.029  17.341  0.00  0.00    +0.000 A 
ENDROOT
BRANCH   1  17
ATOM     17  C   UNL     1       5.963   4.254  16.773  0.00  0.00    +0.000 C 
ATOM     18  O   UNL     1       5.949   3.414  15.879  0.00  0.00    +0.000 OA
BRANCH  17  19
ATOM     19  O   UNL     1       6.584   4.081  17.979  0.00  0.00    +0.000 OA
BRANCH  19  21
ATOM     20  C   UNL     1       7.797   5.772  19.223  0.00  0.00    +0.000 C 
ATOM     21  C   UNL     1       7.867   4.702  18.148  0.00  0.00    +0.000 C 
ENDBRANCH  19  21
ENDBRANCH  17  19
ENDBRANCH   1  17
TORSDOF 3
ENDMDL
MODEL 4
REMARK VINA RESULT:      -6.6      1.024      1.969
REMARK  Name = 
REMARK  5 active torsions:
REMARK  status: ('A' for Active; 'I' for Inactive)
REMARK    1  A    between atoms: C_1  and  C_2
REMARK    2  A    between atoms: C_2  and  O_3
REMARK    3  A    between atoms: O_3  and  C_4
REMARK    4  A    between atoms: C_4  and  C_6
REMARK    5  A    between atoms: C_19  and  C_20
REMARK                            x       y       z     vdW  Elec       q    Type
REMARK                         _______ _______ _______ _____ _____    ______ ____
ROOT
ATOM      1  C   UNL     1       3.332   3.147  20.444  0.00  0.00    +0.000 A 
ATOM      2  N   UNL     1       2.355   2.714  21.261  0.00  0.00    +0.000 NA
ATOM      3  O   UNL     1       1.504   3.781  21.434  0.00  0.00    +0.000 OA
ATOM      4  C   UNL     1       1.979   4.860  20.765  0.00  0.00    +0.000 A 
ATOM      5  N   UNL     1       1.336   6.036  20.777  0.00  0.00    +0.000 NA
ATOM      6  C   UNL     1       1.996   6.947  20.073  0.00  0.00    +0.000 A 
ATOM      7  N   UNL     1       3.153   6.778  19.414  0.00  0.00    +0.000 NA
ATOM      8  C   UNL     1       3.796   5.574  19.395  0.00  0.00    +0.000 A 
ATOM      9  N   UNL     1       4.989   5.506  18.712  0.00  0.00    +0.000 N 
ATOM     10  C   UNL     1       6.116   4.717  19.212  0.00  0.00    +0.000 C 
ATOM     11  C   UNL     1       7.384   5.564  19.302  0.00  0.00    +0.000 C 
ATOM     12  C   UNL     1       7.678   6.302  18.001  0.00  0.00    +0.000 C 
ATOM     13  C   UNL     1       6.454   7.074  17.509  0.00  0.00    +0.000 C 
ATOM     14  C   UNL     1       5.229   6.151  17.400  0.00  0.00    +0.000 C 
ATOM     15  C   UNL     1       4.060   6.884  16.747  0.00  0.00    +0.000 C 
ATOM     16  C   UNL     1       3.166   4.533  20.124  0.00  0.00    +0.000 A 
ENDROOT
BRANCH   1  17
ATOM     17  C   UNL     1       4.329   2.183  19.989  0.00  0.00    +0.000 C 
ATOM     18  O   UNL     1       4.389   1.766  18.837  0.00  0.00    +0.000 OA
BRANCH  17  19
ATOM     19  O   UNL     1       5.161   1.777  20.995  0.00  0.00    +0.000 OA
BRANCH  19  21
ATOM     20  C   UNL     1       6.301   0.067  22.281  0.00  0.00    +0.000 C 
ATOM     21  C   UNL     1       5.558   0.398  20.999  0.00  0.00    +0.000 C 
ENDBRANCH  19  21
ENDBRANCH  17  19
ENDBRANCH   1  17
TORSDOF 3
ENDMDL
MODEL 5
REMARK VINA RESULT:      -6.3      3.151      5.664
REMARK  Name = 
REMARK  5 active torsions:
REMARK  status: ('A' for Active; 'I' for Inactive)
REMARK    1  A    between atoms: C_1  and  C_2
REMARK    2  A    between atoms: C_2  and  O_3
REMARK    3  A    between atoms: O_3  and  C_4
REMARK    4  A    between atoms: C_4  and  C_6
REMARK    5  A    between atoms: C_19  and  C_20
REMARK                            x       y       z     vdW  Elec       q    Type
REMARK                         _______ _______ _______ _____ _____    ______ ____
ROOT
ATOM      1  C   UNL     1       6.366   4.618  15.821  0.00  0.00    +0.000 A 
ATOM      2  N   UNL     1       7.362   5.394  15.357  0.00  0.00    +0.000 NA
ATOM      3  O   UNL     1       7.896   6.024  16.457  0.00  0.00    +0.000 OA
ATOM      4  C   UNL     1       7.209   5.669  17.569  0.00  0.00    +0.000 A 
ATOM      5  N   UNL     1       7.526   6.152  18.778  0.00  0.00    +0.000 NA
ATOM      6  C   UNL     1       6.706   5.682  19.709  0.00  0.00    +0.000 A 
ATOM      7  N   UNL     1       5.679   4.835  19.531  0.00  0.00    +0.000 NA
ATOM      8  C   UNL     1       5.370   4.336  18.298  0.00  0.00    +0.000 A 
ATOM      9  N   UNL     1       4.285   3.494  18.211  0.00  0.00    +0.000 N 
ATOM     10  C   UNL     1       3.366   3.539  17.073  0.00  0.00    +0.000 C 
ATOM     11  C   UNL     1       1.921   3.699  17.539  0.00  0.00    +0.000 C 
ATOM     12  C   UNL     1       1.539   2.671  18.598  0.00  0.00    +0.000 C 
ATOM     13  C   UNL     1       2.554   2.642  19.739  0.00  0.00    +0.000 C 
ATOM     14  C   UNL     1       3.980   2.434  19.201  0.00  0.00    +0.000 C 
ATOM     15  C   UNL     1       4.965   2.235  20.350  0.00  0.00    +0.000 C 
ATOM     16  C   UNL     1       6.194   4.784  17.233  0.00  0.00    +0.000 A 
ENDROOT
BRANCH   1  17
ATOM     17  C   UNL     1       5.684   3.734  14.881  0.00  0.00    +0.000 C 
ATOM     18  O   UNL     1       5.398   2.568  15.135  0.00  0.00    +0.000 OA
BRANCH  17  19
ATOM     19  O   UNL     1       5.434   4.341  13.682  0.00  0.00    +0.000 OA
BRANCH  19  21
ATOM     20  C   UNL     1       4.575   3.273  11.682  0.00  0.00    +0.000 C 
ATOM     21  C   UNL     1       5.808   3.623  12.496  0.00  0.00    +0.000 C 
ENDBRANCH  19  21
ENDBRANCH  17  19
ENDBRANCH   1  17
TORSDOF 3
ENDMDL
MODEL 6
REMARK VINA RESULT:      -6.1      1.875      4.244
REMARK  Name = 
REMARK  5 active torsions:
REMARK  status: ('A' for Active; 'I' for Inactive)
REMARK    1  A    between atoms: C_1  and  C_2
REMARK    2  A    between atoms: C_2  and  O_3
REMARK    3  A    between atoms: O_3  and  C_4
REMARK    4  A    between atoms: C_4  and  C_6
REMARK    5  A    between atoms: C_19  and  C_20
REMARK                            x       y       z     vdW  Elec       q    Type
REMARK                         _______ _______ _______ _____ _____    ______ ____
ROOT
ATOM      1  C   UNL     1       2.162   5.787  19.960  0.00  0.00    +0.000 A 
ATOM      2  N   UNL     1       1.126   5.243  20.624  0.00  0.00    +0.000 NA
ATOM      3  O   UNL     1       1.517   3.968  20.958  0.00  0.00    +0.000 OA
ATOM      4  C   UNL     1       2.757   3.725  20.469  0.00  0.00    +0.000 A 
ATOM      5  N   UNL     1       3.368   2.546  20.650  0.00  0.00    +0.000 NA
ATOM      6  C   UNL     1       4.560   2.532  20.066  0.00  0.00    +0.000 A 
ATOM      7  N   UNL     1       5.134   3.529  19.373  0.00  0.00    +0.000 NA
ATOM      8  C   UNL     1       4.510   4.731  19.203  0.00  0.00    +0.000 A 
ATOM      9  N   UNL     1       5.168   5.683  18.457  0.00  0.00    +0.000 N 
ATOM     10  C   UNL     1       4.452   6.566  17.536  0.00  0.00    +0.000 C 
ATOM     11  C   UNL     1       5.062   6.512  16.136  0.00  0.00    +0.000 C 
ATOM     12  C   UNL     1       6.570   6.735  16.156  0.00  0.00    +0.000 C 
ATOM     13  C   UNL     1       7.257   5.814  17.163  0.00  0.00    +0.000 C 
ATOM     14  C   UNL     1       6.621   5.953  18.557  0.00  0.00    +0.000 C 
ATOM     15  C   UNL     1       7.418   5.164  19.593  0.00  0.00    +0.000 C 
ATOM     16  C   UNL     1       3.225   4.842  19.793  0.00  0.00    +0.000 A 
ENDROOT
BRANCH   1  17
ATOM     17  C   UNL     1       2.074   7.193  19.577  0.00  0.00    +0.000 C 
ATOM     18  O   UNL     1       2.116   7.581  18.415  0.00  0.00    +0.000 OA
BRANCH  17  19
ATOM     19  O   UNL     1       1.975   8.023  20.660  0.00  0.00    +0.000 OA
BRANCH  19  21
ATOM     20  C   UNL     1      -0.174   8.637  21.599  0.00  0.00    +0.000 C 
ATOM     21  C   UNL     1       0.934   9.012  20.631  0.00  0.00    +0.000 C 
ENDBRANCH  19  21
ENDBRANCH  17  19
ENDBRANCH   1  17
TORSDOF 3
ENDMDL
MODEL 7
REMARK VINA RESULT:      -6.0      3.071      5.616
REMARK  Name = 
REMARK  5 active torsions:
REMARK  status: ('A' for Active; 'I' for Inactive)
REMARK    1  A    between atoms: C_1  and  C_2
REMARK    2  A    between atoms: C_2  and  O_3
REMARK    3  A    between atoms: O_3  and  C_4
REMARK    4  A    between atoms: C_4  and  C_6
REMARK    5  A    between atoms: C_19  and  C_20
REMARK                            x       y       z     vdW  Elec       q    Type
REMARK                         _______ _______ _______ _____ _____    ______ ____
ROOT
ATOM      1  C   UNL     1       6.356   6.095  16.514  0.00  0.00    +0.000 A 
ATOM      2  N   UNL     1       7.486   6.798  16.319  0.00  0.00    +0.000 NA
ATOM      3  O   UNL     1       8.215   6.673  17.479  0.00  0.00    +0.000 OA
ATOM      4  C   UNL     1       7.520   5.940  18.382  0.00  0.00    +0.000 A 
ATOM      5  N   UNL     1       8.007   5.677  19.602  0.00  0.00    +0.000 NA
ATOM      6  C   UNL     1       7.146   4.964  20.316  0.00  0.00    +0.000 A 
ATOM      7  N   UNL     1       5.935   4.532  19.928  0.00  0.00    +0.000 NA
ATOM      8  C   UNL     1       5.450   4.793  18.679  0.00  0.00    +0.000 A 
ATOM      9  N   UNL     1       4.188   4.329  18.382  0.00  0.00    +0.000 N 
ATOM     10  C   UNL     1       3.252   5.114  17.577  0.00  0.00    +0.000 C 
ATOM     11  C   UNL     1       1.915   5.283  18.297  0.00  0.00    +0.000 C 
ATOM     12  C   UNL     1       1.348   3.954  18.780  0.00  0.00    +0.000 C 
ATOM     13  C   UNL     1       2.382   3.163  19.580  0.00  0.00    +0.000 C 
ATOM     14  C   UNL     1       3.684   2.994  18.778  0.00  0.00    +0.000 C 
ATOM     15  C   UNL     1       4.647   2.061  19.507  0.00  0.00    +0.000 C 
ATOM     16  C   UNL     1       6.302   5.554  17.839  0.00  0.00    +0.000 A 
ENDROOT
BRANCH   1  17
ATOM     17  C   UNL     1       5.430   5.952  15.394  0.00  0.00    +0.000 C 
ATOM     18  O   UNL     1       4.835   6.895  14.885  0.00  0.00    +0.000 OA
BRANCH  17  19
ATOM     19  O   UNL     1       5.281   4.650  15.004  0.00  0.00    +0.000 OA
BRANCH  19  21
ATOM     20  C   UNL     1       6.042   3.632  12.939  0.00  0.00    +0.000 C 
ATOM     21  C   UNL     1       6.403   4.028  14.360  0.00  0.00    +0.000 C 
ENDBRANCH  19  21
ENDBRANCH  17  19
ENDBRANCH   1  17
TORSDOF 3
ENDMDL
MODEL 8
REMARK VINA RESULT:      -5.9      9.287     11.522
REMARK  Name = 
REMARK  5 active torsions:
REMARK  status: ('A' for Active; 'I' for Inactive)
REMARK    1  A    between atoms: C_1  and  C_2
REMARK    2  A    between atoms: C_2  and  O_3
REMARK    3  A    between atoms: O_3  and  C_4
REMARK    4  A    between atoms: C_4  and  C_6
REMARK    5  A    between atoms: C_19  and  C_20
REMARK                            x       y       z     vdW  Elec       q    Type
REMARK                         _______ _______ _______ _____ _____    ______ ____
ROOT
ATOM      1  C   UNL     1      10.384  12.690  18.241  0.00  0.00    +0.000 A 
ATOM      2  N   UNL     1      11.505  12.089  17.800  0.00  0.00    +0.000 NA
ATOM      3  O   UNL     1      12.292  13.091  17.281  0.00  0.00    +0.000 OA
ATOM      4  C   UNL     1      11.643  14.277  17.368  0.00  0.00    +0.000 A 
ATOM      5  N   UNL     1      12.192  15.416  16.923  0.00  0.00    +0.000 NA
ATOM      6  C   UNL     1      11.367  16.441  17.093  0.00  0.00    +0.000 A 
ATOM      7  N   UNL     1      10.137  16.410  17.630  0.00  0.00    +0.000 NA
ATOM      8  C   UNL     1       9.589  15.249  18.093  0.00  0.00    +0.000 A 
ATOM      9  N   UNL     1       8.312  15.313  18.605  0.00  0.00    +0.000 N 
ATOM     10  C   UNL     1       7.337  14.247  18.372  0.00  0.00    +0.000 C 
ATOM     11  C   UNL     1       6.040  14.806  17.791  0.00  0.00    +0.000 C 
ATOM     12  C   UNL     1       5.496  15.971  18.610  0.00  0.00    +0.000 C 
ATOM     13  C   UNL     1       6.569  17.031  18.854  0.00  0.00    +0.000 C 
ATOM     14  C   UNL     1       7.827  16.405  19.480  0.00  0.00    +0.000 C 
ATOM     15  C   UNL     1       8.825  17.490  19.879  0.00  0.00    +0.000 C 
ATOM     16  C   UNL     1      10.398  14.092  17.953  0.00  0.00    +0.000 A 
ENDROOT
BRANCH   1  17
ATOM     17  C   UNL     1       9.402  11.878  18.955  0.00  0.00    +0.000 C 
ATOM     18  O   UNL     1       9.159  12.007  20.150  0.00  0.00    +0.000 OA
BRANCH  17  19
ATOM     19  O   UNL     1       8.814  10.944  18.148  0.00  0.00    +0.000 OA
BRANCH  19  21
ATOM     20  C   UNL     1       7.947   8.723  17.707  0.00  0.00    +0.000 C 
ATOM     21  C   UNL     1       8.781   9.592  18.631  0.00  0.00    +0.000 C 
ENDBRANCH  19  21
ENDBRANCH  17  19
ENDBRANCH   1  17
TORSDOF 3
ENDMDL
MODEL 9
REMARK VINA RESULT:      -5.8     10.048     12.216
REMARK  Name = 
REMARK  5 active torsions:
REMARK  status: ('A' for Active; 'I' for Inactive)
REMARK    1  A    between atoms: C_1  and  C_2
REMARK    2  A    between atoms: C_2  and  O_3
REMARK    3  A    between atoms: O_3  and  C_4
REMARK    4  A    between atoms: C_4  and  C_6
REMARK    5  A    between atoms: C_19  and  C_20
REMARK                            x       y       z     vdW  Elec       q    Type
REMARK                         _______ _______ _______ _____ _____    ______ ____
ROOT
ATOM      1  C   UNL     1       7.548  16.316  18.486  0.00  0.00    +0.000 A 
ATOM      2  N   UNL     1       7.167  17.606  18.515  0.00  0.00    +0.000 NA
ATOM      3  O   UNL     1       8.305  18.342  18.280  0.00  0.00    +0.000 OA
ATOM      4  C   UNL     1       9.370  17.514  18.152  0.00  0.00    +0.000 A 
ATOM      5  N   UNL     1      10.604  17.983  17.924  0.00  0.00    +0.000 NA
ATOM      6  C   UNL     1      11.485  16.993  17.856  0.00  0.00    +0.000 A 
ATOM      7  N   UNL     1      11.239  15.679  17.988  0.00  0.00    +0.000 NA
ATOM      8  C   UNL     1       9.976  15.208  18.207  0.00  0.00    +0.000 A 
ATOM      9  N   UNL     1       9.827  13.847  18.354  0.00  0.00    +0.000 N 
ATOM     10  C   UNL     1       8.890  13.278  19.321  0.00  0.00    +0.000 C 
ATOM     11  C   UNL     1       9.587  12.275  20.239  0.00  0.00    +0.000 C 
ATOM     12  C   UNL     1      10.376  11.231  19.458  0.00  0.00    +0.000 C 
ATOM     13  C   UNL     1      11.307  11.884  18.437  0.00  0.00    +0.000 C 
ATOM     14  C   UNL     1      10.531  12.845  17.521  0.00  0.00    +0.000 C 
ATOM     15  C   UNL     1      11.428  13.360  16.398  0.00  0.00    +0.000 C 
ATOM     16  C   UNL     1       8.962  16.195  18.297  0.00  0.00    +0.000 A 
ENDROOT
BRANCH   1  17
ATOM     17  C   UNL     1       6.515  15.289  18.593  0.00  0.00    +0.000 C 
ATOM     18  O   UNL     1       6.143  14.605  17.646  0.00  0.00    +0.000 OA
BRANCH  17  19
ATOM     19  O   UNL     1       5.992  15.204  19.854  0.00  0.00    +0.000 OA
BRANCH  19  21
ATOM     20  C   UNL     1       3.816  14.435  20.595  0.00  0.00    +0.000 C 
ATOM     21  C   UNL     1       4.619  15.588  20.019  0.00  0.00    +0.000 C 
ENDBRANCH  19  21
ENDBRANCH  17  19
ENDBRANCH   1  17
TORSDOF 3
ENDMDL
