MODEL 1
REMARK VINA RESULT:      -7.0      0.000      0.000
REMARK  Name = 
REMARK  2 active torsions:
REMARK  status: ('A' for Active; 'I' for Inactive)
REMARK    1  A    between atoms: C_2  and  C_9
REMARK    2  A    between atoms: C_14  and  C_16
REMARK                            x       y       z     vdW  Elec       q    Type
REMARK                         _______ _______ _______ _____ _____    ______ ____
ROOT
ATOM      1  C   UNL     1       3.295   4.321  19.428  0.00  0.00    +0.000 C 
ATOM      2  C   UNL     1       2.582   3.087  20.000  0.00  0.00    +0.000 C 
ATOM      3  C   UNL     1       1.806   3.641  21.177  0.00  0.00    +0.000 C 
ATOM      4  C   UNL     1       1.440   5.050  20.746  0.00  0.00    +0.000 C 
ATOM      5  N   UNL     1       2.277   5.370  19.596  0.00  0.00    +0.000 N 
ATOM      6  C   UNL     1       2.587   6.679  19.194  0.00  0.00    +0.000 C 
ATOM      7  O   UNL     1       3.491   6.842  18.370  0.00  0.00    +0.000 OA
ENDROOT
BRANCH   1   9
ATOM      8  O   UNL     1       3.116   3.340  17.254  0.00  0.00    +0.000 OA
ATOM      9  C   UNL     1       3.850   3.942  18.041  0.00  0.00    +0.000 C 
ATOM     10  N   UNL     1       5.061   4.516  17.742  0.00  0.00    +0.000 N 
ATOM     11  C   UNL     1       5.581   4.476  16.477  0.00  0.00    +0.000 A 
ATOM     12  N   UNL     1       5.055   4.013  15.372  0.00  0.00    +0.000 NA
ATOM     13  C   UNL     1       5.950   4.158  14.336  0.00  0.00    +0.000 A 
ATOM     14  C   UNL     1       7.146   4.760  14.663  0.00  0.00    +0.000 A 
ATOM     15  S   UNL     1       7.138   5.173  16.331  0.00  0.00    +0.000 S 
ATOM     16  H   UNL     1       5.613   4.949  18.466  0.00  0.00    +0.000 HD
ENDBRANCH   1   9
BRANCH   6  17
ATOM     17  C   UNL     1       1.845   7.806  19.778  0.00  0.00    +0.000 A 
ATOM     18  C   UNL     1       1.388   8.052  21.064  0.00  0.00    +0.000 A 
ATOM     19  C   UNL     1       0.861   9.367  21.231  0.00  0.00    +0.000 A 
ATOM     20  C   UNL     1       0.804  10.049  20.040  0.00  0.00    +0.000 A 
ATOM     21  S   UNL     1       1.416   9.120  18.744  0.00  0.00    +0.000 S 
ENDBRANCH   6  17
TORSDOF 2
ENDMDL
MODEL 2
REMARK VINA RESULT:      -6.2      2.218      6.870
REMARK  Name = 
REMARK  2 active torsions:
REMARK  status: ('A' for Active; 'I' for Inactive)
REMARK    1  A    between atoms: C_2  and  C_9
REMARK    2  A    between atoms: C_14  and  C_16
REMARK                            x       y       z     vdW  Elec       q    Type
REMARK                         _______ _______ _______ _____ _____    ______ ____
ROOT
ATOM      1  C   UNL     1       2.246   6.323  19.364  0.00  0.00    +0.000 C 
ATOM      2  C   UNL     1       1.863   5.523  20.617  0.00  0.00    +0.000 C 
ATOM      3  C   UNL     1       2.576   4.201  20.424  0.00  0.00    +0.000 C 
ATOM      4  C   UNL     1       3.842   4.572  19.673  0.00  0.00    +0.000 C 
ATOM      5  N   UNL     1       3.647   5.923  19.160  0.00  0.00    +0.000 N 
ATOM      6  C   UNL     1       4.344   6.452  18.061  0.00  0.00    +0.000 C 
ATOM      7  O   UNL     1       3.937   7.501  17.556  0.00  0.00    +0.000 OA
ENDROOT
BRANCH   1   9
ATOM      8  O   UNL     1       1.839   8.569  18.647  0.00  0.00    +0.000 OA
ATOM      9  C   UNL     1       1.847   7.792  19.605  0.00  0.00    +0.000 C 
ATOM     10  N   UNL     1       1.325   8.037  20.851  0.00  0.00    +0.000 N 
ATOM     11  C   UNL     1       0.710   9.223  21.151  0.00  0.00    +0.000 A 
ATOM     12  N   UNL     1       0.431  10.239  20.375  0.00  0.00    +0.000 NA
ATOM     13  C   UNL     1      -0.174  11.233  21.111  0.00  0.00    +0.000 A 
ATOM     14  C   UNL     1      -0.375  10.946  22.444  0.00  0.00    +0.000 A 
ATOM     15  S   UNL     1       0.204   9.364  22.781  0.00  0.00    +0.000 S 
ATOM     16  H   UNL     1       1.420   7.356  21.587  0.00  0.00    +0.000 HD
ENDBRANCH   1   9
BRANCH   6  17
ATOM     17  C   UNL     1       5.515   5.733  17.539  0.00  0.00    +0.000 A 
ATOM     18  C   UNL     1       6.802   5.570  18.029  0.00  0.00    +0.000 A 
ATOM     19  C   UNL     1       7.577   4.638  17.277  0.00  0.00    +0.000 A 
ATOM     20  C   UNL     1       6.911   4.211  16.154  0.00  0.00    +0.000 A 
ATOM     21  S   UNL     1       5.354   4.904  16.033  0.00  0.00    +0.000 S 
ENDBRANCH   6  17
TORSDOF 2
ENDMDL
MODEL 3
REMARK VINA RESULT:      -6.2      3.477      6.929
REMARK  Name = 
REMARK  2 active torsions:
REMARK  status: ('A' for Active; 'I' for Inactive)
REMARK    1  A    between atoms: C_2  and  C_9
REMARK    2  A    between atoms: C_14  and  C_16
REMARK                            x       y       z     vdW  Elec       q    Type
REMARK                         _______ _______ _______ _____ _____    ______ ____
ROOT
ATOM      1  C   UNL     1       6.365   4.527  18.152  0.00  0.00    +0.000 C 
ATOM      2  C   UNL     1       6.537   5.833  18.941  0.00  0.00    +0.000 C 
ATOM      3  C   UNL     1       7.472   6.650  18.075  0.00  0.00    +0.000 C 
ATOM      4  C   UNL     1       7.119   6.233  16.658  0.00  0.00    +0.000 C 
ATOM      5  N   UNL     1       6.332   5.010  16.762  0.00  0.00    +0.000 N 
ATOM      6  C   UNL     1       6.204   4.071  15.726  0.00  0.00    +0.000 C 
ATOM      7  O   UNL     1       5.727   2.965  15.991  0.00  0.00    +0.000 OA
ENDROOT
BRANCH   1   9
ATOM      8  O   UNL     1       5.372   3.121  19.812  0.00  0.00    +0.000 OA
ATOM      9  C   UNL     1       5.184   3.755  18.772  0.00  0.00    +0.000 C 
ATOM     10  N   UNL     1       3.966   4.037  18.203  0.00  0.00    +0.000 N 
ATOM     11  C   UNL     1       2.794   3.623  18.776  0.00  0.00    +0.000 A 
ATOM     12  N   UNL     1       2.591   3.015  19.917  0.00  0.00    +0.000 NA
ATOM     13  C   UNL     1       1.246   2.769  20.079  0.00  0.00    +0.000 A 
ATOM     14  C   UNL     1       0.433   3.222  19.063  0.00  0.00    +0.000 A 
ATOM     15  S   UNL     1       1.393   3.999  17.868  0.00  0.00    +0.000 S 
ATOM     16  H   UNL     1       3.915   4.525  17.323  0.00  0.00    +0.000 HD
ENDBRANCH   1   9
BRANCH   6  17
ATOM     17  C   UNL     1       6.659   4.425  14.374  0.00  0.00    +0.000 A 
ATOM     18  C   UNL     1       7.574   5.360  13.915  0.00  0.00    +0.000 A 
ATOM     19  C   UNL     1       7.841   5.248  12.518  0.00  0.00    +0.000 A 
ATOM     20  C   UNL     1       7.028   4.318  11.917  0.00  0.00    +0.000 A 
ATOM     21  S   UNL     1       5.979   3.568  13.038  0.00  0.00    +0.000 S 
ENDBRANCH   6  17
TORSDOF 2
ENDMDL
MODEL 4
REMARK VINA RESULT:      -6.1      2.032      2.548
REMARK  Name = 
REMARK  2 active torsions:
REMARK  status: ('A' for Active; 'I' for Inactive)
REMARK    1  A    between atoms: C_2  and  C_9
REMARK    2  A    between atoms: C_14  and  C_16
REMARK                            x       y       z     vdW  Elec       q    Type
REMARK                         _______ _______ _______ _____ _____    ______ ____
ROOT
ATOM      1  C   UNL     1       4.418   4.977  17.330  0.00  0.00    +0.000 C 
ATOM      2  C   UNL     1       3.779   3.619  17.009  0.00  0.00    +0.000 C 
ATOM      3  C   UNL     1       2.637   3.521  17.998  0.00  0.00    +0.000 C 
ATOM      4  C   UNL     1       2.184   4.959  18.179  0.00  0.00    +0.000 C 
ATOM      5  N   UNL     1       3.241   5.805  17.637  0.00  0.00    +0.000 N 
ATOM      6  C   UNL     1       3.438   7.145  18.008  0.00  0.00    +0.000 C 
ATOM      7  O   UNL     1       4.494   7.695  17.685  0.00  0.00    +0.000 OA
ENDROOT
BRANCH   1   9
ATOM      8  O   UNL     1       6.301   6.119  16.397  0.00  0.00    +0.000 OA
ATOM      9  C   UNL     1       5.380   5.329  16.179  0.00  0.00    +0.000 C 
ATOM     10  N   UNL     1       5.235   4.541  15.063  0.00  0.00    +0.000 N 
ATOM     11  C   UNL     1       6.153   4.561  14.047  0.00  0.00    +0.000 A 
ATOM     12  N   UNL     1       7.295   5.195  13.965  0.00  0.00    +0.000 NA
ATOM     13  C   UNL     1       7.879   4.941  12.744  0.00  0.00    +0.000 A 
ATOM     14  C   UNL     1       7.181   4.088  11.917  0.00  0.00    +0.000 A 
ATOM     15  S   UNL     1       5.746   3.573  12.710  0.00  0.00    +0.000 S 
ATOM     16  H   UNL     1       4.421   3.958  14.953  0.00  0.00    +0.000 HD
ENDBRANCH   1   9
BRANCH   6  17
ATOM     17  C   UNL     1       2.398   7.838  18.782  0.00  0.00    +0.000 A 
ATOM     18  C   UNL     1       1.953   7.686  20.087  0.00  0.00    +0.000 A 
ATOM     19  C   UNL     1       1.032   8.698  20.489  0.00  0.00    +0.000 A 
ATOM     20  C   UNL     1       0.692   9.522  19.443  0.00  0.00    +0.000 A 
ATOM     21  S   UNL     1       1.507   9.095  18.004  0.00  0.00    +0.000 S 
ENDBRANCH   6  17
TORSDOF 2
ENDMDL
MODEL 5
REMARK VINA RESULT:      -6.1      3.953      5.870
REMARK  Name = 
REMARK  2 active torsions:
REMARK  status: ('A' for Active; 'I' for Inactive)
REMARK    1  A    between atoms: C_2  and  C_9
REMARK    2  A    between atoms: C_14  and  C_16
REMARK                            x       y       z     vdW  Elec       q    Type
REMARK                         _______ _______ _______ _____ _____    ______ ____
ROOT
ATOM      1  C   UNL     1       6.893   5.375  17.441  0.00  0.00    +0.000 C 
ATOM      2  C   UNL     1       7.200   5.635  15.959  0.00  0.00    +0.000 C 
ATOM      3  C   UNL     1       6.274   4.682  15.233  0.00  0.00    +0.000 C 
ATOM      4  C   UNL     1       5.051   4.604  16.129  0.00  0.00    +0.000 C 
ATOM      5  N   UNL     1       5.438   5.161  17.420  0.00  0.00    +0.000 N 
ATOM      6  C   UNL     1       4.784   4.866  18.627  0.00  0.00    +0.000 C 
ATOM      7  O   UNL     1       5.331   5.185  19.686  0.00  0.00    +0.000 OA
ENDROOT
BRANCH   1   9
ATOM      8  O   UNL     1       8.230   6.221  19.236  0.00  0.00    +0.000 OA
ATOM      9  C   UNL     1       7.535   6.512  18.260  0.00  0.00    +0.000 C 
ATOM     10  N   UNL     1       7.439   7.752  17.676  0.00  0.00    +0.000 N 
ATOM     11  C   UNL     1       8.148   8.823  18.145  0.00  0.00    +0.000 A 
ATOM     12  N   UNL     1       9.049   8.878  19.093  0.00  0.00    +0.000 NA
ATOM     13  C   UNL     1       9.485  10.175  19.245  0.00  0.00    +0.000 A 
ATOM     14  C   UNL     1       8.925  11.094  18.384  0.00  0.00    +0.000 A 
ATOM     15  S   UNL     1       7.823  10.296  17.335  0.00  0.00    +0.000 S 
ATOM     16  H   UNL     1       6.806   7.905  16.906  0.00  0.00    +0.000 HD
ENDBRANCH   1   9
BRANCH   6  17
ATOM     17  C   UNL     1       3.489   4.171  18.593  0.00  0.00    +0.000 A 
ATOM     18  C   UNL     1       2.195   4.624  18.380  0.00  0.00    +0.000 A 
ATOM     19  C   UNL     1       1.243   3.569  18.258  0.00  0.00    +0.000 A 
ATOM     20  C   UNL     1       1.806   2.342  18.513  0.00  0.00    +0.000 A 
ATOM     21  S   UNL     1       3.475   2.465  18.860  0.00  0.00    +0.000 S 
ENDBRANCH   6  17
TORSDOF 2
ENDMDL
MODEL 6
REMARK VINA RESULT:      -6.1      1.605      6.344
REMARK  Name = 
REMARK  2 active torsions:
REMARK  status: ('A' for Active; 'I' for Inactive)
REMARK    1  A    between atoms: C_2  and  C_9
REMARK    2  A    between atoms: C_14  and  C_16
REMARK                            x       y       z     vdW  Elec       q    Type
REMARK                         _______ _______ _______ _____ _____    ______ ____
ROOT
ATOM      1  C   UNL     1       2.055   4.590  18.927  0.00  0.00    +0.000 C 
ATOM      2  C   UNL     1       1.621   3.206  19.431  0.00  0.00    +0.000 C 
ATOM      3  C   UNL     1       2.226   2.255  18.420  0.00  0.00    +0.000 C 
ATOM      4  C   UNL     1       3.512   2.942  17.994  0.00  0.00    +0.000 C 
ATOM      5  N   UNL     1       3.419   4.326  18.442  0.00  0.00    +0.000 N 
ATOM      6  C   UNL     1       4.147   5.383  17.873  0.00  0.00    +0.000 C 
ATOM      7  O   UNL     1       3.820   6.540  18.151  0.00  0.00    +0.000 OA
ENDROOT
BRANCH   1   9
ATOM      8  O   UNL     1       2.045   5.298  21.212  0.00  0.00    +0.000 OA
ATOM      9  C   UNL     1       1.775   5.608  20.050  0.00  0.00    +0.000 C 
ATOM     10  N   UNL     1       1.446   6.864  19.603  0.00  0.00    +0.000 N 
ATOM     11  C   UNL     1       1.395   7.938  20.451  0.00  0.00    +0.000 A 
ATOM     12  N   UNL     1       1.706   8.014  21.720  0.00  0.00    +0.000 NA
ATOM     13  C   UNL     1       1.476   9.293  22.177  0.00  0.00    +0.000 A 
ATOM     14  C   UNL     1       1.016  10.187  21.234  0.00  0.00    +0.000 A 
ATOM     15  S   UNL     1       0.882   9.395  19.715  0.00  0.00    +0.000 S 
ATOM     16  H   UNL     1       1.195   7.013  18.638  0.00  0.00    +0.000 HD
ENDBRANCH   1   9
BRANCH   6  17
ATOM     17  C   UNL     1       5.254   5.082  16.953  0.00  0.00    +0.000 A 
ATOM     18  C   UNL     1       5.313   4.976  15.572  0.00  0.00    +0.000 A 
ATOM     19  C   UNL     1       6.643   4.838  15.075  0.00  0.00    +0.000 A 
ATOM     20  C   UNL     1       7.556   4.708  16.092  0.00  0.00    +0.000 A 
ATOM     21  S   UNL     1       6.815   4.788  17.629  0.00  0.00    +0.000 S 
ENDBRANCH   6  17
TORSDOF 2
ENDMDL
MODEL 7
REMARK VINA RESULT:      -6.1      7.177      8.617
REMARK  Name = 
REMARK  2 active torsions:
REMARK  status: ('A' for Active; 'I' for Inactive)
REMARK    1  A    between atoms: C_2  and  C_9
REMARK    2  A    between atoms: C_14  and  C_16
REMARK                            x       y       z     vdW  Elec       q    Type
REMARK                         _______ _______ _______ _____ _____    ______ ____
ROOT
ATOM      1  C   UNL     1      -0.230  10.661  20.827  0.00  0.00    +0.000 C 
ATOM      2  C   UNL     1      -0.189   9.210  21.329  0.00  0.00    +0.000 C 
ATOM      3  C   UNL     1      -0.180   9.356  22.836  0.00  0.00    +0.000 C 
ATOM      4  C   UNL     1      -1.002  10.608  23.089  0.00  0.00    +0.000 C 
ATOM      5  N   UNL     1      -1.119  11.300  21.810  0.00  0.00    +0.000 N 
ATOM      6  C   UNL     1      -1.383  12.674  21.686  0.00  0.00    +0.000 C 
ATOM      7  O   UNL     1      -1.219  13.207  20.585  0.00  0.00    +0.000 OA
ENDROOT
BRANCH   1   9
ATOM      8  O   UNL     1       0.246  10.139  18.542  0.00  0.00    +0.000 OA
ATOM      9  C   UNL     1      -0.571  10.629  19.325  0.00  0.00    +0.000 C 
ATOM     10  N   UNL     1      -1.871  10.963  19.034  0.00  0.00    +0.000 N 
ATOM     11  C   UNL     1      -2.402  10.763  17.789  0.00  0.00    +0.000 A 
ATOM     12  N   UNL     1      -1.875  10.186  16.739  0.00  0.00    +0.000 NA
ATOM     13  C   UNL     1      -2.766  10.230  15.690  0.00  0.00    +0.000 A 
ATOM     14  C   UNL     1      -3.980  10.821  15.965  0.00  0.00    +0.000 A 
ATOM     15  S   UNL     1      -4.009  11.325  17.608  0.00  0.00    +0.000 S 
ATOM     16  H   UNL     1      -2.452  11.403  19.730  0.00  0.00    +0.000 HD
ENDBRANCH   1   9
BRANCH   6  17
ATOM     17  C   UNL     1      -1.820  13.433  22.866  0.00  0.00    +0.000 A 
ATOM     18  C   UNL     1      -1.142  14.275  23.736  0.00  0.00    +0.000 A 
ATOM     19  C   UNL     1      -2.003  14.946  24.654  0.00  0.00    +0.000 A 
ATOM     20  C   UNL     1      -3.299  14.504  24.554  0.00  0.00    +0.000 A 
ATOM     21  S   UNL     1      -3.477  13.317  23.339  0.00  0.00    +0.000 S 
ENDBRANCH   6  17
TORSDOF 2
ENDMDL
MODEL 8
REMARK VINA RESULT:      -6.0      2.740      4.215
REMARK  Name = 
REMARK  2 active torsions:
REMARK  status: ('A' for Active; 'I' for Inactive)
REMARK    1  A    between atoms: C_2  and  C_9
REMARK    2  A    between atoms: C_14  and  C_16
REMARK                            x       y       z     vdW  Elec       q    Type
REMARK                         _______ _______ _______ _____ _____    ______ ____
ROOT
ATOM      1  C   UNL     1       6.594   6.056  17.962  0.00  0.00    +0.000 C 
ATOM      2  C   UNL     1       7.841   5.545  18.699  0.00  0.00    +0.000 C 
ATOM      3  C   UNL     1       7.317   5.183  20.073  0.00  0.00    +0.000 C 
ATOM      4  C   UNL     1       5.896   4.714  19.812  0.00  0.00    +0.000 C 
ATOM      5  N   UNL     1       5.548   5.153  18.465  0.00  0.00    +0.000 N 
ATOM      6  C   UNL     1       4.229   5.334  18.018  0.00  0.00    +0.000 C 
ATOM      7  O   UNL     1       4.046   5.937  16.957  0.00  0.00    +0.000 OA
ENDROOT
BRANCH   1   9
ATOM      8  O   UNL     1       7.776   6.972  16.095  0.00  0.00    +0.000 OA
ATOM      9  C   UNL     1       6.938   6.146  16.463  0.00  0.00    +0.000 C 
ATOM     10  N   UNL     1       6.420   5.125  15.704  0.00  0.00    +0.000 N 
ATOM     11  C   UNL     1       6.816   4.921  14.410  0.00  0.00    +0.000 A 
ATOM     12  N   UNL     1       7.743   5.529  13.714  0.00  0.00    +0.000 NA
ATOM     13  C   UNL     1       7.781   5.010  12.439  0.00  0.00    +0.000 A 
ATOM     14  C   UNL     1       6.893   3.986  12.187  0.00  0.00    +0.000 A 
ATOM     15  S   UNL     1       5.989   3.652  13.610  0.00  0.00    +0.000 S 
ATOM     16  H   UNL     1       5.702   4.525  16.078  0.00  0.00    +0.000 HD
ENDBRANCH   1   9
BRANCH   6  17
ATOM     17  C   UNL     1       3.116   4.824  18.832  0.00  0.00    +0.000 A 
ATOM     18  C   UNL     1       2.428   5.363  19.908  0.00  0.00    +0.000 A 
ATOM     19  C   UNL     1       1.290   4.593  20.291  0.00  0.00    +0.000 A 
ATOM     20  C   UNL     1       1.210   3.417  19.586  0.00  0.00    +0.000 A 
ATOM     21  S   UNL     1       2.479   3.266  18.452  0.00  0.00    +0.000 S 
ENDBRANCH   6  17
TORSDOF 2
ENDMDL
MODEL 9
REMARK VINA RESULT:      -5.9      3.265      6.929
REMARK  Name = 
REMARK  2 active torsions:
REMARK  status: ('A' for Active; 'I' for Inactive)
REMARK    1  A    between atoms: C_2  and  C_9
REMARK    2  A    between atoms: C_14  and  C_16
REMARK                            x       y       z     vdW  Elec       q    Type
REMARK                         _______ _______ _______ _____ _____    ______ ____
ROOT
ATOM      1  C   UNL     1       2.709   7.937  18.663  0.00  0.00    +0.000 C 
ATOM      2  C   UNL     1       3.455   7.911  17.322  0.00  0.00    +0.000 C 
ATOM      3  C   UNL     1       4.283   6.646  17.401  0.00  0.00    +0.000 C 
ATOM      4  C   UNL     1       3.431   5.701  18.229  0.00  0.00    +0.000 C 
ATOM      5  N   UNL     1       2.405   6.512  18.873  0.00  0.00    +0.000 N 
ATOM      6  C   UNL     1       1.727   6.134  20.043  0.00  0.00    +0.000 C 
ATOM      7  O   UNL     1       1.064   6.985  20.640  0.00  0.00    +0.000 OA
ENDROOT
BRANCH   1   9
ATOM      8  O   UNL     1       0.941   9.072  17.520  0.00  0.00    +0.000 OA
ATOM      9  C   UNL     1       1.596   8.998  18.562  0.00  0.00    +0.000 C 
ATOM     10  N   UNL     1       1.302   9.621  19.750  0.00  0.00    +0.000 N 
ATOM     11  C   UNL     1       0.194  10.413  19.889  0.00  0.00    +0.000 A 
ATOM     12  N   UNL     1      -0.775  10.651  19.042  0.00  0.00    +0.000 NA
ATOM     13  C   UNL     1      -1.673  11.533  19.601  0.00  0.00    +0.000 A 
ATOM     14  C   UNL     1      -1.388  11.936  20.887  0.00  0.00    +0.000 A 
ATOM     15  S   UNL     1       0.053  11.167  21.420  0.00  0.00    +0.000 S 
ATOM     16  H   UNL     1       1.924   9.538  20.538  0.00  0.00    +0.000 HD
ENDBRANCH   1   9
BRANCH   6  17
ATOM     17  C   UNL     1       1.846   4.751  20.528  0.00  0.00    +0.000 A 
ATOM     18  C   UNL     1       2.564   4.190  21.574  0.00  0.00    +0.000 A 
ATOM     19  C   UNL     1       2.250   2.817  21.799  0.00  0.00    +0.000 A 
ATOM     20  C   UNL     1       1.400   2.324  20.839  0.00  0.00    +0.000 A 
ATOM     21  S   UNL     1       0.961   3.521  19.701  0.00  0.00    +0.000 S 
ENDBRANCH   6  17
TORSDOF 2
ENDMDL
