MODEL 1
REMARK VINA RESULT:      -7.6      0.000      0.000
REMARK  Name = 
REMARK  9 active torsions:
REMARK  status: ('A' for Active; 'I' for Inactive)
REMARK    1  A    between atoms: C_2  and  C_3
REMARK    2  A    between atoms: C_2  and  C_15
REMARK    3  A    between atoms: C_3  and  C_4
REMARK    4  A    between atoms: C_4  and  C_5
REMARK    5  A    between atoms: C_5  and  C_6
REMARK    6  A    between atoms: C_6  and  C_7
REMARK    7  A    between atoms: C_7  and  C_8
REMARK    8  A    between atoms: C_8  and  C_9
REMARK    9  A    between atoms: C_18  and  C_19
REMARK                            x       y       z     vdW  Elec       q    Type
REMARK                         _______ _______ _______ _____ _____    ______ ____
ROOT
ATOM      1  O   UNL     1       3.366   6.062  18.943  0.00  0.00    +0.000 OA
ATOM      2  C   UNL     1       3.314   7.069  18.234  0.00  0.00    +0.000 C 
ENDROOT
BRANCH   2   3
ATOM      3  C   UNL     1       2.342   8.131  18.421  0.00  0.00    +0.000 A 
ATOM      4  N   UNL     1       1.891   8.940  17.479  0.00  0.00    +0.000 NA
ATOM      5  C   UNL     1       1.032   9.771  18.151  0.00  0.00    +0.000 A 
ATOM      6  C   UNL     1       0.989   9.447  19.490  0.00  0.00    +0.000 A 
ATOM      7  O   UNL     1       1.826   8.377  19.671  0.00  0.00    +0.000 OA
BRANCH   6   8
ATOM      8  C   UNL     1       0.304   9.990  20.658  0.00  0.00    +0.000 A 
ATOM      9  C   UNL     1      -0.543  11.108  20.581  0.00  0.00    +0.000 A 
ATOM     10  C   UNL     1      -1.213  11.586  21.717  0.00  0.00    +0.000 A 
ATOM     11  C   UNL     1      -1.045  10.949  22.944  0.00  0.00    +0.000 A 
ATOM     12  C   UNL     1      -0.202   9.849  23.025  0.00  0.00    +0.000 A 
ATOM     13  F   UNL     1      -0.037   9.233  24.203  0.00  0.00    +0.000 F 
ATOM     14  C   UNL     1       0.468   9.369  21.906  0.00  0.00    +0.000 A 
ENDBRANCH   6   8
ENDBRANCH   2   3
BRANCH   2  15
ATOM     15  C   UNL     1       4.297   7.285  17.082  0.00  0.00    +0.000 C 
BRANCH  15  16
ATOM     16  C   UNL     1       5.317   6.153  16.987  0.00  0.00    +0.000 C 
BRANCH  16  17
ATOM     17  C   UNL     1       5.112   5.263  15.760  0.00  0.00    +0.000 C 
BRANCH  17  18
ATOM     18  C   UNL     1       5.253   3.787  16.145  0.00  0.00    +0.000 C 
BRANCH  18  19
ATOM     19  C   UNL     1       4.813   3.516  17.585  0.00  0.00    +0.000 C 
BRANCH  19  20
ATOM     20  C   UNL     1       3.648   2.522  17.621  0.00  0.00    +0.000 C 
BRANCH  20  21
ATOM     21  C   UNL     1       2.830   2.662  18.880  0.00  0.00    +0.000 A 
ATOM     22  C   UNL     1       1.465   2.970  18.812  0.00  0.00    +0.000 A 
ATOM     23  C   UNL     1       0.719   3.138  19.979  0.00  0.00    +0.000 A 
ATOM     24  C   UNL     1       1.329   3.001  21.224  0.00  0.00    +0.000 A 
ATOM     25  C   UNL     1       2.685   2.686  21.304  0.00  0.00    +0.000 A 
ATOM     26  C   UNL     1       3.432   2.517  20.138  0.00  0.00    +0.000 A 
ENDBRANCH  20  21
ENDBRANCH  19  20
ENDBRANCH  18  19
ENDBRANCH  17  18
ENDBRANCH  16  17
ENDBRANCH  15  16
ENDBRANCH   2  15
TORSDOF 9
ENDMDL
MODEL 2
REMARK VINA RESULT:      -7.6      6.085      9.103
REMARK  Name = 
REMARK  9 active torsions:
REMARK  status: ('A' for Active; 'I' for Inactive)
REMARK    1  A    between atoms: C_2  and  C_3
REMARK    2  A    between atoms: C_2  and  C_15
REMARK    3  A    between atoms: C_3  and  C_4
REMARK    4  A    between atoms: C_4  and  C_5
REMARK    5  A    between atoms: C_5  and  C_6
REMARK    6  A    between atoms: C_6  and  C_7
REMARK    7  A    between atoms: C_7  and  C_8
REMARK    8  A    between atoms: C_8  and  C_9
REMARK    9  A    between atoms: C_18  and  C_19
REMARK                            x       y       z     vdW  Elec       q    Type
REMARK                         _______ _______ _______ _____ _____    ______ ____
ROOT
ATOM      1  O   UNL     1       8.082   6.198  19.223  0.00  0.00    +0.000 OA
ATOM      2  C   UNL     1       7.426   6.410  18.200  0.00  0.00    +0.000 C 
ENDROOT
BRANCH   2   3
ATOM      3  C   UNL     1       6.223   5.675  17.854  0.00  0.00    +0.000 A 
ATOM      4  N   UNL     1       5.883   5.280  16.640  0.00  0.00    +0.000 NA
ATOM      5  C   UNL     1       4.671   4.666  16.828  0.00  0.00    +0.000 A 
ATOM      6  C   UNL     1       4.304   4.711  18.157  0.00  0.00    +0.000 A 
ATOM      7  O   UNL     1       5.311   5.352  18.830  0.00  0.00    +0.000 OA
BRANCH   6   8
ATOM      8  C   UNL     1       3.141   4.269  18.917  0.00  0.00    +0.000 A 
ATOM      9  C   UNL     1       2.863   4.742  20.210  0.00  0.00    +0.000 A 
ATOM     10  C   UNL     1       1.718   4.322  20.903  0.00  0.00    +0.000 A 
ATOM     11  C   UNL     1       0.835   3.423  20.308  0.00  0.00    +0.000 A 
ATOM     12  C   UNL     1       1.111   2.947  19.034  0.00  0.00    +0.000 A 
ATOM     13  F   UNL     1       0.266   2.083  18.458  0.00  0.00    +0.000 F 
ATOM     14  C   UNL     1       2.244   3.356  18.341  0.00  0.00    +0.000 A 
ENDBRANCH   6   8
ENDBRANCH   2   3
BRANCH   2  15
ATOM     15  C   UNL     1       7.836   7.493  17.201  0.00  0.00    +0.000 C 
BRANCH  15  16
ATOM     16  C   UNL     1       7.651   8.895  17.776  0.00  0.00    +0.000 C 
BRANCH  16  17
ATOM     17  C   UNL     1       8.889   9.408  18.514  0.00  0.00    +0.000 C 
BRANCH  17  18
ATOM     18  C   UNL     1       8.979  10.934  18.404  0.00  0.00    +0.000 C 
BRANCH  18  19
ATOM     19  C   UNL     1      10.417  11.420  18.217  0.00  0.00    +0.000 C 
BRANCH  19  20
ATOM     20  C   UNL     1      11.140  11.512  19.565  0.00  0.00    +0.000 C 
BRANCH  20  21
ATOM     21  C   UNL     1      10.730  12.739  20.339  0.00  0.00    +0.000 A 
ATOM     22  C   UNL     1      11.272  13.993  20.026  0.00  0.00    +0.000 A 
ATOM     23  C   UNL     1      10.921  15.120  20.769  0.00  0.00    +0.000 A 
ATOM     24  C   UNL     1      10.027  15.006  21.831  0.00  0.00    +0.000 A 
ATOM     25  C   UNL     1       9.475  13.766  22.146  0.00  0.00    +0.000 A 
ATOM     26  C   UNL     1       9.824  12.637  21.404  0.00  0.00    +0.000 A 
ENDBRANCH  20  21
ENDBRANCH  19  20
ENDBRANCH  18  19
ENDBRANCH  17  18
ENDBRANCH  16  17
ENDBRANCH  15  16
ENDBRANCH   2  15
TORSDOF 9
ENDMDL
MODEL 3
REMARK VINA RESULT:      -7.6      4.435      6.583
REMARK  Name = 
REMARK  9 active torsions:
REMARK  status: ('A' for Active; 'I' for Inactive)
REMARK    1  A    between atoms: C_2  and  C_3
REMARK    2  A    between atoms: C_2  and  C_15
REMARK    3  A    between atoms: C_3  and  C_4
REMARK    4  A    between atoms: C_4  and  C_5
REMARK    5  A    between atoms: C_5  and  C_6
REMARK    6  A    between atoms: C_6  and  C_7
REMARK    7  A    between atoms: C_7  and  C_8
REMARK    8  A    between atoms: C_8  and  C_9
REMARK    9  A    between atoms: C_18  and  C_19
REMARK                            x       y       z     vdW  Elec       q    Type
REMARK                         _______ _______ _______ _____ _____    ______ ____
ROOT
ATOM      1  O   UNL     1       7.297   4.561  15.773  0.00  0.00    +0.000 OA
ATOM      2  C   UNL     1       6.798   5.575  16.269  0.00  0.00    +0.000 C 
ENDROOT
BRANCH   2   3
ATOM      3  C   UNL     1       7.440   6.357  17.309  0.00  0.00    +0.000 A 
ATOM      4  N   UNL     1       7.831   5.902  18.487  0.00  0.00    +0.000 NA
ATOM      5  C   UNL     1       8.342   7.013  19.109  0.00  0.00    +0.000 A 
ATOM      6  C   UNL     1       8.242   8.118  18.290  0.00  0.00    +0.000 A 
ATOM      7  O   UNL     1       7.671   7.698  17.117  0.00  0.00    +0.000 OA
BRANCH   6   8
ATOM      8  C   UNL     1       8.575   9.531  18.426  0.00  0.00    +0.000 A 
ATOM      9  C   UNL     1       9.478  10.001  19.394  0.00  0.00    +0.000 A 
ATOM     10  C   UNL     1       9.802  11.364  19.477  0.00  0.00    +0.000 A 
ATOM     11  C   UNL     1       9.228  12.272  18.591  0.00  0.00    +0.000 A 
ATOM     12  C   UNL     1       8.330  11.811  17.639  0.00  0.00    +0.000 A 
ATOM     13  F   UNL     1       7.775  12.680  16.784  0.00  0.00    +0.000 F 
ATOM     14  C   UNL     1       8.000  10.464  17.549  0.00  0.00    +0.000 A 
ENDBRANCH   6   8
ENDBRANCH   2   3
BRANCH   2  15
ATOM     15  C   UNL     1       5.437   6.099  15.808  0.00  0.00    +0.000 C 
BRANCH  15  16
ATOM     16  C   UNL     1       4.342   5.810  16.831  0.00  0.00    +0.000 C 
BRANCH  16  17
ATOM     17  C   UNL     1       3.887   7.058  17.590  0.00  0.00    +0.000 C 
BRANCH  17  18
ATOM     18  C   UNL     1       2.485   6.845  18.172  0.00  0.00    +0.000 C 
BRANCH  18  19
ATOM     19  C   UNL     1       2.488   6.812  19.701  0.00  0.00    +0.000 C 
BRANCH  19  20
ATOM     20  C   UNL     1       1.801   5.545  20.220  0.00  0.00    +0.000 C 
BRANCH  20  21
ATOM     21  C   UNL     1       2.310   4.307  19.526  0.00  0.00    +0.000 A 
ATOM     22  C   UNL     1       1.451   3.527  18.740  0.00  0.00    +0.000 A 
ATOM     23  C   UNL     1       1.913   2.360  18.131  0.00  0.00    +0.000 A 
ATOM     24  C   UNL     1       3.237   1.960  18.302  0.00  0.00    +0.000 A 
ATOM     25  C   UNL     1       4.103   2.733  19.075  0.00  0.00    +0.000 A 
ATOM     26  C   UNL     1       3.642   3.900  19.684  0.00  0.00    +0.000 A 
ENDBRANCH  20  21
ENDBRANCH  19  20
ENDBRANCH  18  19
ENDBRANCH  17  18
ENDBRANCH  16  17
ENDBRANCH  15  16
ENDBRANCH   2  15
TORSDOF 9
ENDMDL
MODEL 4
REMARK VINA RESULT:      -7.5      1.726      3.884
REMARK  Name = 
REMARK  9 active torsions:
REMARK  status: ('A' for Active; 'I' for Inactive)
REMARK    1  A    between atoms: C_2  and  C_3
REMARK    2  A    between atoms: C_2  and  C_15
REMARK    3  A    between atoms: C_3  and  C_4
REMARK    4  A    between atoms: C_4  and  C_5
REMARK    5  A    between atoms: C_5  and  C_6
REMARK    6  A    between atoms: C_6  and  C_7
REMARK    7  A    between atoms: C_7  and  C_8
REMARK    8  A    between atoms: C_8  and  C_9
REMARK    9  A    between atoms: C_18  and  C_19
REMARK                            x       y       z     vdW  Elec       q    Type
REMARK                         _______ _______ _______ _____ _____    ______ ____
ROOT
ATOM      1  O   UNL     1       4.192   5.509  19.764  0.00  0.00    +0.000 OA
ATOM      2  C   UNL     1       2.983   5.690  19.927  0.00  0.00    +0.000 C 
ENDROOT
BRANCH   2   3
ATOM      3  C   UNL     1       2.331   6.972  19.724  0.00  0.00    +0.000 A 
ATOM      4  N   UNL     1       2.413   7.717  18.636  0.00  0.00    +0.000 NA
ATOM      5  C   UNL     1       1.661   8.821  18.943  0.00  0.00    +0.000 A 
ATOM      6  C   UNL     1       1.144   8.719  20.217  0.00  0.00    +0.000 A 
ATOM      7  O   UNL     1       1.564   7.517  20.725  0.00  0.00    +0.000 OA
BRANCH   6   8
ATOM      8  C   UNL     1       0.329   9.579  21.067  0.00  0.00    +0.000 A 
ATOM      9  C   UNL     1       0.046   9.262  22.406  0.00  0.00    +0.000 A 
ATOM     10  C   UNL     1      -0.715  10.127  23.207  0.00  0.00    +0.000 A 
ATOM     11  C   UNL     1      -1.201  11.320  22.678  0.00  0.00    +0.000 A 
ATOM     12  C   UNL     1      -0.930  11.631  21.353  0.00  0.00    +0.000 A 
ATOM     13  F   UNL     1      -1.396  12.777  20.839  0.00  0.00    +0.000 F 
ATOM     14  C   UNL     1      -0.180  10.781  20.550  0.00  0.00    +0.000 A 
ENDBRANCH   6   8
ENDBRANCH   2   3
BRANCH   2  15
ATOM     15  C   UNL     1       2.057   4.551  20.357  0.00  0.00    +0.000 C 
BRANCH  15  16
ATOM     16  C   UNL     1       1.233   4.018  19.188  0.00  0.00    +0.000 C 
BRANCH  16  17
ATOM     17  C   UNL     1       1.905   2.851  18.464  0.00  0.00    +0.000 C 
BRANCH  17  18
ATOM     18  C   UNL     1       2.602   3.344  17.192  0.00  0.00    +0.000 C 
BRANCH  18  19
ATOM     19  C   UNL     1       4.120   3.169  17.256  0.00  0.00    +0.000 C 
BRANCH  19  20
ATOM     20  C   UNL     1       4.816   4.080  16.239  0.00  0.00    +0.000 C 
BRANCH  20  21
ATOM     21  C   UNL     1       5.781   5.029  16.904  0.00  0.00    +0.000 A 
ATOM     22  C   UNL     1       5.677   6.411  16.697  0.00  0.00    +0.000 A 
ATOM     23  C   UNL     1       6.594   7.285  17.281  0.00  0.00    +0.000 A 
ATOM     24  C   UNL     1       7.625   6.787  18.077  0.00  0.00    +0.000 A 
ATOM     25  C   UNL     1       7.733   5.415  18.296  0.00  0.00    +0.000 A 
ATOM     26  C   UNL     1       6.816   4.540  17.713  0.00  0.00    +0.000 A 
ENDBRANCH  20  21
ENDBRANCH  19  20
ENDBRANCH  18  19
ENDBRANCH  17  18
ENDBRANCH  16  17
ENDBRANCH  15  16
ENDBRANCH   2  15
TORSDOF 9
ENDMDL
MODEL 5
REMARK VINA RESULT:      -7.5      5.093      6.727
REMARK  Name = 
REMARK  9 active torsions:
REMARK  status: ('A' for Active; 'I' for Inactive)
REMARK    1  A    between atoms: C_2  and  C_3
REMARK    2  A    between atoms: C_2  and  C_15
REMARK    3  A    between atoms: C_3  and  C_4
REMARK    4  A    between atoms: C_4  and  C_5
REMARK    5  A    between atoms: C_5  and  C_6
REMARK    6  A    between atoms: C_6  and  C_7
REMARK    7  A    between atoms: C_7  and  C_8
REMARK    8  A    between atoms: C_8  and  C_9
REMARK    9  A    between atoms: C_18  and  C_19
REMARK                            x       y       z     vdW  Elec       q    Type
REMARK                         _______ _______ _______ _____ _____    ______ ____
ROOT
ATOM      1  O   UNL     1       8.237   5.639  19.298  0.00  0.00    +0.000 OA
ATOM      2  C   UNL     1       7.646   6.313  18.451  0.00  0.00    +0.000 C 
ENDROOT
BRANCH   2   3
ATOM      3  C   UNL     1       7.905   7.724  18.227  0.00  0.00    +0.000 A 
ATOM      4  N   UNL     1       7.394   8.457  17.254  0.00  0.00    +0.000 NA
ATOM      5  C   UNL     1       7.957   9.692  17.451  0.00  0.00    +0.000 A 
ATOM      6  C   UNL     1       8.803   9.673  18.539  0.00  0.00    +0.000 A 
ATOM      7  O   UNL     1       8.765   8.404  19.055  0.00  0.00    +0.000 OA
BRANCH   6   8
ATOM      8  C   UNL     1       9.676  10.650  19.179  0.00  0.00    +0.000 A 
ATOM      9  C   UNL     1      10.830  11.151  18.554  0.00  0.00    +0.000 A 
ATOM     10  C   UNL     1      11.632  12.115  19.184  0.00  0.00    +0.000 A 
ATOM     11  C   UNL     1      11.286  12.592  20.447  0.00  0.00    +0.000 A 
ATOM     12  C   UNL     1      10.151  12.092  21.070  0.00  0.00    +0.000 A 
ATOM     13  F   UNL     1       9.815  12.546  22.284  0.00  0.00    +0.000 F 
ATOM     14  C   UNL     1       9.352  11.135  20.456  0.00  0.00    +0.000 A 
ENDBRANCH   6   8
ENDBRANCH   2   3
BRANCH   2  15
ATOM     15  C   UNL     1       6.575   5.698  17.549  0.00  0.00    +0.000 C 
BRANCH  15  16
ATOM     16  C   UNL     1       7.119   4.520  16.744  0.00  0.00    +0.000 C 
BRANCH  16  17
ATOM     17  C   UNL     1       6.099   3.943  15.762  0.00  0.00    +0.000 C 
BRANCH  17  18
ATOM     18  C   UNL     1       4.674   4.187  16.271  0.00  0.00    +0.000 C 
BRANCH  18  19
ATOM     19  C   UNL     1       4.099   2.971  16.997  0.00  0.00    +0.000 C 
BRANCH  19  20
ATOM     20  C   UNL     1       2.618   3.184  17.328  0.00  0.00    +0.000 C 
BRANCH  20  21
ATOM     21  C   UNL     1       2.371   3.196  18.815  0.00  0.00    +0.000 A 
ATOM     22  C   UNL     1       3.341   2.708  19.701  0.00  0.00    +0.000 A 
ATOM     23  C   UNL     1       3.095   2.682  21.075  0.00  0.00    +0.000 A 
ATOM     24  C   UNL     1       1.879   3.142  21.576  0.00  0.00    +0.000 A 
ATOM     25  C   UNL     1       0.910   3.637  20.704  0.00  0.00    +0.000 A 
ATOM     26  C   UNL     1       1.154   3.664  19.331  0.00  0.00    +0.000 A 
ENDBRANCH  20  21
ENDBRANCH  19  20
ENDBRANCH  18  19
ENDBRANCH  17  18
ENDBRANCH  16  17
ENDBRANCH  15  16
ENDBRANCH   2  15
TORSDOF 9
ENDMDL
MODEL 6
REMARK VINA RESULT:      -7.4      3.913      8.554
REMARK  Name = 
REMARK  9 active torsions:
REMARK  status: ('A' for Active; 'I' for Inactive)
REMARK    1  A    between atoms: C_2  and  C_3
REMARK    2  A    between atoms: C_2  and  C_15
REMARK    3  A    between atoms: C_3  and  C_4
REMARK    4  A    between atoms: C_4  and  C_5
REMARK    5  A    between atoms: C_5  and  C_6
REMARK    6  A    between atoms: C_6  and  C_7
REMARK    7  A    between atoms: C_7  and  C_8
REMARK    8  A    between atoms: C_8  and  C_9
REMARK    9  A    between atoms: C_18  and  C_19
REMARK                            x       y       z     vdW  Elec       q    Type
REMARK                         _______ _______ _______ _____ _____    ______ ____
ROOT
ATOM      1  O   UNL     1       1.442   3.738  17.307  0.00  0.00    +0.000 OA
ATOM      2  C   UNL     1       2.517   3.264  17.681  0.00  0.00    +0.000 C 
ENDROOT
BRANCH   2   3
ATOM      3  C   UNL     1       3.808   3.757  17.238  0.00  0.00    +0.000 A 
ATOM      4  N   UNL     1       4.703   4.368  17.994  0.00  0.00    +0.000 NA
ATOM      5  C   UNL     1       5.720   4.660  17.121  0.00  0.00    +0.000 A 
ATOM      6  C   UNL     1       5.411   4.221  15.851  0.00  0.00    +0.000 A 
ATOM      7  O   UNL     1       4.179   3.623  15.921  0.00  0.00    +0.000 OA
BRANCH   6   8
ATOM      8  C   UNL     1       6.072   4.284  14.553  0.00  0.00    +0.000 A 
ATOM      9  C   UNL     1       7.148   5.151  14.299  0.00  0.00    +0.000 A 
ATOM     10  C   UNL     1       7.784   5.165  13.048  0.00  0.00    +0.000 A 
ATOM     11  C   UNL     1       7.351   4.310  12.037  0.00  0.00    +0.000 A 
ATOM     12  C   UNL     1       6.283   3.459  12.283  0.00  0.00    +0.000 A 
ATOM     13  F   UNL     1       5.862   2.635  11.314  0.00  0.00    +0.000 F 
ATOM     14  C   UNL     1       5.645   3.439  13.518  0.00  0.00    +0.000 A 
ENDBRANCH   6   8
ENDBRANCH   2   3
BRANCH   2  15
ATOM     15  C   UNL     1       2.573   2.097  18.670  0.00  0.00    +0.000 C 
BRANCH  15  16
ATOM     16  C   UNL     1       3.000   2.553  20.062  0.00  0.00    +0.000 C 
BRANCH  16  17
ATOM     17  C   UNL     1       1.819   2.786  21.005  0.00  0.00    +0.000 C 
BRANCH  17  18
ATOM     18  C   UNL     1       1.165   4.141  20.714  0.00  0.00    +0.000 C 
BRANCH  18  19
ATOM     19  C   UNL     1       2.188   5.276  20.636  0.00  0.00    +0.000 C 
BRANCH  19  20
ATOM     20  C   UNL     1       1.542   6.617  20.999  0.00  0.00    +0.000 C 
BRANCH  20  21
ATOM     21  C   UNL     1       1.729   7.642  19.909  0.00  0.00    +0.000 A 
ATOM     22  C   UNL     1       1.153   8.915  20.023  0.00  0.00    +0.000 A 
ATOM     23  C   UNL     1       1.293   9.849  18.996  0.00  0.00    +0.000 A 
ATOM     24  C   UNL     1       2.008   9.520  17.845  0.00  0.00    +0.000 A 
ATOM     25  C   UNL     1       2.591   8.260  17.725  0.00  0.00    +0.000 A 
ATOM     26  C   UNL     1       2.453   7.325  18.752  0.00  0.00    +0.000 A 
ENDBRANCH  20  21
ENDBRANCH  19  20
ENDBRANCH  18  19
ENDBRANCH  17  18
ENDBRANCH  16  17
ENDBRANCH  15  16
ENDBRANCH   2  15
TORSDOF 9
ENDMDL
MODEL 7
REMARK VINA RESULT:      -7.4      3.687      8.757
REMARK  Name = 
REMARK  9 active torsions:
REMARK  status: ('A' for Active; 'I' for Inactive)
REMARK    1  A    between atoms: C_2  and  C_3
REMARK    2  A    between atoms: C_2  and  C_15
REMARK    3  A    between atoms: C_3  and  C_4
REMARK    4  A    between atoms: C_4  and  C_5
REMARK    5  A    between atoms: C_5  and  C_6
REMARK    6  A    between atoms: C_6  and  C_7
REMARK    7  A    between atoms: C_7  and  C_8
REMARK    8  A    between atoms: C_8  and  C_9
REMARK    9  A    between atoms: C_18  and  C_19
REMARK                            x       y       z     vdW  Elec       q    Type
REMARK                         _______ _______ _______ _____ _____    ______ ____
ROOT
ATOM      1  O   UNL     1       3.373   3.327  19.976  0.00  0.00    +0.000 OA
ATOM      2  C   UNL     1       3.585   4.206  19.137  0.00  0.00    +0.000 C 
ENDROOT
BRANCH   2   3
ATOM      3  C   UNL     1       4.809   4.295  18.362  0.00  0.00    +0.000 A 
ATOM      4  N   UNL     1       6.018   4.508  18.850  0.00  0.00    +0.000 NA
ATOM      5  C   UNL     1       6.816   4.537  17.735  0.00  0.00    +0.000 A 
ATOM      6  C   UNL     1       6.066   4.345  16.595  0.00  0.00    +0.000 A 
ATOM      7  O   UNL     1       4.765   4.174  16.994  0.00  0.00    +0.000 OA
BRANCH   6   8
ATOM      8  C   UNL     1       6.356   4.315  15.166  0.00  0.00    +0.000 A 
ATOM      9  C   UNL     1       5.603   3.548  14.261  0.00  0.00    +0.000 A 
ATOM     10  C   UNL     1       5.889   3.566  12.888  0.00  0.00    +0.000 A 
ATOM     11  C   UNL     1       6.930   4.354  12.402  0.00  0.00    +0.000 A 
ATOM     12  C   UNL     1       7.681   5.106  13.295  0.00  0.00    +0.000 A 
ATOM     13  F   UNL     1       8.684   5.864  12.834  0.00  0.00    +0.000 F 
ATOM     14  C   UNL     1       7.408   5.093  14.658  0.00  0.00    +0.000 A 
ENDBRANCH   6   8
ENDBRANCH   2   3
BRANCH   2  15
ATOM     15  C   UNL     1       2.546   5.288  18.838  0.00  0.00    +0.000 C 
BRANCH  15  16
ATOM     16  C   UNL     1       3.125   6.691  18.997  0.00  0.00    +0.000 C 
BRANCH  16  17
ATOM     17  C   UNL     1       3.076   7.510  17.706  0.00  0.00    +0.000 C 
BRANCH  17  18
ATOM     18  C   UNL     1       1.905   8.497  17.747  0.00  0.00    +0.000 C 
BRANCH  18  19
ATOM     19  C   UNL     1       1.640   9.027  19.158  0.00  0.00    +0.000 C 
BRANCH  19  20
ATOM     20  C   UNL     1       0.394   9.918  19.179  0.00  0.00    +0.000 C 
BRANCH  20  21
ATOM     21  C   UNL     1      -0.093  10.167  20.585  0.00  0.00    +0.000 A 
ATOM     22  C   UNL     1       0.012   9.168  21.562  0.00  0.00    +0.000 A 
ATOM     23  C   UNL     1      -0.476   9.386  22.851  0.00  0.00    +0.000 A 
ATOM     24  C   UNL     1      -1.074  10.602  23.176  0.00  0.00    +0.000 A 
ATOM     25  C   UNL     1      -1.176  11.606  22.214  0.00  0.00    +0.000 A 
ATOM     26  C   UNL     1      -0.688  11.389  20.924  0.00  0.00    +0.000 A 
ENDBRANCH  20  21
ENDBRANCH  19  20
ENDBRANCH  18  19
ENDBRANCH  17  18
ENDBRANCH  16  17
ENDBRANCH  15  16
ENDBRANCH   2  15
TORSDOF 9
ENDMDL
MODEL 8
REMARK VINA RESULT:      -7.3      5.193      6.935
REMARK  Name = 
REMARK  9 active torsions:
REMARK  status: ('A' for Active; 'I' for Inactive)
REMARK    1  A    between atoms: C_2  and  C_3
REMARK    2  A    between atoms: C_2  and  C_15
REMARK    3  A    between atoms: C_3  and  C_4
REMARK    4  A    between atoms: C_4  and  C_5
REMARK    5  A    between atoms: C_5  and  C_6
REMARK    6  A    between atoms: C_6  and  C_7
REMARK    7  A    between atoms: C_7  and  C_8
REMARK    8  A    between atoms: C_8  and  C_9
REMARK    9  A    between atoms: C_18  and  C_19
REMARK                            x       y       z     vdW  Elec       q    Type
REMARK                         _______ _______ _______ _____ _____    ______ ____
ROOT
ATOM      1  O   UNL     1       7.026   5.430  19.578  0.00  0.00    +0.000 OA
ATOM      2  C   UNL     1       7.553   5.846  18.544  0.00  0.00    +0.000 C 
ENDROOT
BRANCH   2   3
ATOM      3  C   UNL     1       7.716   7.257  18.240  0.00  0.00    +0.000 A 
ATOM      4  N   UNL     1       7.064   7.926  17.306  0.00  0.00    +0.000 NA
ATOM      5  C   UNL     1       7.584   9.192  17.392  0.00  0.00    +0.000 A 
ATOM      6  C   UNL     1       8.546   9.256  18.377  0.00  0.00    +0.000 A 
ATOM      7  O   UNL     1       8.628   8.009  18.940  0.00  0.00    +0.000 OA
BRANCH   6   8
ATOM      8  C   UNL     1       9.436  10.297  18.878  0.00  0.00    +0.000 A 
ATOM      9  C   UNL     1       9.449  10.691  20.227  0.00  0.00    +0.000 A 
ATOM     10  C   UNL     1      10.340  11.673  20.684  0.00  0.00    +0.000 A 
ATOM     11  C   UNL     1      11.232  12.271  19.797  0.00  0.00    +0.000 A 
ATOM     12  C   UNL     1      11.216  11.890  18.462  0.00  0.00    +0.000 A 
ATOM     13  F   UNL     1      12.070  12.463  17.605  0.00  0.00    +0.000 F 
ATOM     14  C   UNL     1      10.335  10.920  17.999  0.00  0.00    +0.000 A 
ENDBRANCH   6   8
ENDBRANCH   2   3
BRANCH   2  15
ATOM     15  C   UNL     1       8.093   4.887  17.483  0.00  0.00    +0.000 C 
BRANCH  15  16
ATOM     16  C   UNL     1       6.971   4.127  16.781  0.00  0.00    +0.000 C 
BRANCH  16  17
ATOM     17  C   UNL     1       6.144   5.009  15.844  0.00  0.00    +0.000 C 
BRANCH  17  18
ATOM     18  C   UNL     1       4.648   4.789  16.089  0.00  0.00    +0.000 C 
BRANCH  18  19
ATOM     19  C   UNL     1       4.384   3.761  17.190  0.00  0.00    +0.000 C 
BRANCH  19  20
ATOM     20  C   UNL     1       2.882   3.487  17.330  0.00  0.00    +0.000 C 
BRANCH  20  21
ATOM     21  C   UNL     1       2.455   3.433  18.775  0.00  0.00    +0.000 A 
ATOM     22  C   UNL     1       3.131   2.612  19.687  0.00  0.00    +0.000 A 
ATOM     23  C   UNL     1       2.709   2.532  21.015  0.00  0.00    +0.000 A 
ATOM     24  C   UNL     1       1.607   3.271  21.444  0.00  0.00    +0.000 A 
ATOM     25  C   UNL     1       0.932   4.097  20.547  0.00  0.00    +0.000 A 
ATOM     26  C   UNL     1       1.353   4.178  19.219  0.00  0.00    +0.000 A 
ENDBRANCH  20  21
ENDBRANCH  19  20
ENDBRANCH  18  19
ENDBRANCH  17  18
ENDBRANCH  16  17
ENDBRANCH  15  16
ENDBRANCH   2  15
TORSDOF 9
ENDMDL
MODEL 9
REMARK VINA RESULT:      -7.3      1.860      4.018
REMARK  Name = 
REMARK  9 active torsions:
REMARK  status: ('A' for Active; 'I' for Inactive)
REMARK    1  A    between atoms: C_2  and  C_3
REMARK    2  A    between atoms: C_2  and  C_15
REMARK    3  A    between atoms: C_3  and  C_4
REMARK    4  A    between atoms: C_4  and  C_5
REMARK    5  A    between atoms: C_5  and  C_6
REMARK    6  A    between atoms: C_6  and  C_7
REMARK    7  A    between atoms: C_7  and  C_8
REMARK    8  A    between atoms: C_8  and  C_9
REMARK    9  A    between atoms: C_18  and  C_19
REMARK                            x       y       z     vdW  Elec       q    Type
REMARK                         _______ _______ _______ _____ _____    ______ ____
ROOT
ATOM      1  O   UNL     1       1.810   4.075  21.039  0.00  0.00    +0.000 OA
ATOM      2  C   UNL     1       2.552   4.696  20.276  0.00  0.00    +0.000 C 
ENDROOT
BRANCH   2   3
ATOM      3  C   UNL     1       2.324   6.074  19.880  0.00  0.00    +0.000 A 
ATOM      4  N   UNL     1       2.808   6.657  18.797  0.00  0.00    +0.000 NA
ATOM      5  C   UNL     1       2.341   7.943  18.887  0.00  0.00    +0.000 A 
ATOM      6  C   UNL     1       1.587   8.108  20.030  0.00  0.00    +0.000 A 
ATOM      7  O   UNL     1       1.561   6.898  20.672  0.00  0.00    +0.000 OA
BRANCH   6   8
ATOM      8  C   UNL     1       0.892   9.231  20.649  0.00  0.00    +0.000 A 
ATOM      9  C   UNL     1       0.775  10.482  20.021  0.00  0.00    +0.000 A 
ATOM     10  C   UNL     1       0.071  11.532  20.630  0.00  0.00    +0.000 A 
ATOM     11  C   UNL     1      -0.525  11.343  21.874  0.00  0.00    +0.000 A 
ATOM     12  C   UNL     1      -0.403  10.110  22.501  0.00  0.00    +0.000 A 
ATOM     13  F   UNL     1      -0.974   9.923  23.698  0.00  0.00    +0.000 F 
ATOM     14  C   UNL     1       0.294   9.064  21.908  0.00  0.00    +0.000 A 
ENDBRANCH   6   8
ENDBRANCH   2   3
BRANCH   2  15
ATOM     15  C   UNL     1       3.804   4.048  19.680  0.00  0.00    +0.000 C 
BRANCH  15  16
ATOM     16  C   UNL     1       3.480   2.738  18.967  0.00  0.00    +0.000 C 
BRANCH  16  17
ATOM     17  C   UNL     1       3.645   2.825  17.448  0.00  0.00    +0.000 C 
BRANCH  17  18
ATOM     18  C   UNL     1       4.106   4.229  17.044  0.00  0.00    +0.000 C 
BRANCH  18  19
ATOM     19  C   UNL     1       4.956   4.218  15.772  0.00  0.00    +0.000 C 
BRANCH  19  20
ATOM     20  C   UNL     1       6.431   3.968  16.106  0.00  0.00    +0.000 C 
BRANCH  20  21
ATOM     21  C   UNL     1       7.003   5.062  16.972  0.00  0.00    +0.000 A 
ATOM     22  C   UNL     1       7.457   4.780  18.267  0.00  0.00    +0.000 A 
ATOM     23  C   UNL     1       7.949   5.800  19.082  0.00  0.00    +0.000 A 
ATOM     24  C   UNL     1       7.991   7.111  18.612  0.00  0.00    +0.000 A 
ATOM     25  C   UNL     1       7.550   7.402  17.322  0.00  0.00    +0.000 A 
ATOM     26  C   UNL     1       7.058   6.383  16.506  0.00  0.00    +0.000 A 
ENDBRANCH  20  21
ENDBRANCH  19  20
ENDBRANCH  18  19
ENDBRANCH  17  18
ENDBRANCH  16  17
ENDBRANCH  15  16
ENDBRANCH   2  15
TORSDOF 9
ENDMDL
