MODEL 1
REMARK VINA RESULT:      -7.0      0.000      0.000
REMARK  Name = 
REMARK  7 active torsions:
REMARK  status: ('A' for Active; 'I' for Inactive)
REMARK    1  A    between atoms: C_1  and  C_2
REMARK    2  A    between atoms: C_2  and  C_3
REMARK    3  A    between atoms: C_9  and  N_10
REMARK    4  A    between atoms: C_11  and  C_13
REMARK    5  A    between atoms: C_18  and  C_19
REMARK    6  A    between atoms: C_19  and  O_21
REMARK    7  A    between atoms: C_22  and  C_23
REMARK                            x       y       z     vdW  Elec       q    Type
REMARK                         _______ _______ _______ _____ _____    ______ ____
ROOT
ATOM      1  N   UNL     1       1.834   7.426  20.670  0.00  0.00    +0.000 N 
ATOM      2  C   UNL     1       2.595   6.847  19.669  0.00  0.00    +0.000 C 
ATOM      3  O   UNL     1       2.813   7.394  18.584  0.00  0.00    +0.000 OA
ATOM      4  H   UNL     1       1.394   6.809  21.343  0.00  0.00    +0.000 HD
ENDROOT
BRANCH   1  11
ATOM      5  C   UNL     1      -0.973  12.813  18.757  0.00  0.00    +0.000 C 
ATOM      6  C   UNL     1      -1.637  12.500  20.121  0.00  0.00    +0.000 C 
ATOM      7  C   UNL     1      -0.711  11.853  21.160  0.00  0.00    +0.000 C 
ATOM      8  C   UNL     1       0.076  10.715  20.580  0.00  0.00    +0.000 A 
ATOM      9  C   UNL     1       0.301  10.616  19.224  0.00  0.00    +0.000 A 
ATOM     10  S   UNL     1       1.067   9.133  18.823  0.00  0.00    +0.000 S 
ATOM     11  C   UNL     1       1.217   8.664  20.465  0.00  0.00    +0.000 A 
ATOM     12  C   UNL     1       0.669   9.616  21.308  0.00  0.00    +0.000 A 
ATOM     13  C   UNL     1      -0.153  11.613  18.186  0.00  0.00    +0.000 C 
BRANCH   5  15
ATOM     14  C   UNL     1       1.276  14.131  18.752  0.00  0.00    +0.000 C 
ATOM     15  C   UNL     1      -0.247  14.182  18.818  0.00  0.00    +0.000 C 
ENDBRANCH   5  15
BRANCH  12  16
ATOM     16  C   UNL     1       0.553   9.502  22.727  0.00  0.00    +0.000 C 
ATOM     17  N   UNL     1       0.363   9.499  23.878  0.00  0.00    +0.000 NA
ENDBRANCH  12  16
ENDBRANCH   1  11
BRANCH   2  18
ATOM     18  C   UNL     1       3.057   5.380  19.847  0.00  0.00    +0.000 C 
ATOM     19  C   UNL     1       2.228   4.459  20.756  0.00  0.00    +0.000 C 
ATOM     20  C   UNL     1       1.154   3.690  20.050  0.00  0.00    +0.000 C 
ATOM     21  C   UNL     1       1.077   3.589  18.717  0.00  0.00    +0.000 C 
ATOM     22  C   UNL     1       2.081   4.197  17.784  0.00  0.00    +0.000 C 
ATOM     23  C   UNL     1       3.344   4.747  18.468  0.00  0.00    +0.000 C 
BRANCH  23  24
ATOM     24  C   UNL     1       4.411   3.661  18.595  0.00  0.00    +0.000 C 
ATOM     25  O   UNL     1       5.323   3.665  19.397  0.00  0.00    +0.000 OA
BRANCH  24  26
ATOM     26  O   UNL     1       4.260   2.661  17.689  0.00  0.00    +0.000 OA
ATOM     27  H   UNL     1       5.056   2.459  17.150  0.00  0.00    +0.000 HD
ENDBRANCH  24  26
ENDBRANCH  23  24
ENDBRANCH   2  18
TORSDOF 6
ENDMDL
MODEL 2
REMARK VINA RESULT:      -7.0      1.837      2.922
REMARK  Name = 
REMARK  7 active torsions:
REMARK  status: ('A' for Active; 'I' for Inactive)
REMARK    1  A    between atoms: C_1  and  C_2
REMARK    2  A    between atoms: C_2  and  C_3
REMARK    3  A    between atoms: C_9  and  N_10
REMARK    4  A    between atoms: C_11  and  C_13
REMARK    5  A    between atoms: C_18  and  C_19
REMARK    6  A    between atoms: C_19  and  O_21
REMARK    7  A    between atoms: C_22  and  C_23
REMARK                            x       y       z     vdW  Elec       q    Type
REMARK                         _______ _______ _______ _____ _____    ______ ____
ROOT
ATOM      1  N   UNL     1       2.313   7.282  20.511  0.00  0.00    +0.000 N 
ATOM      2  C   UNL     1       1.748   6.021  20.439  0.00  0.00    +0.000 C 
ATOM      3  O   UNL     1       0.532   5.820  20.494  0.00  0.00    +0.000 OA
ATOM      4  H   UNL     1       3.272   7.352  20.831  0.00  0.00    +0.000 HD
ENDROOT
BRANCH   1  11
ATOM      5  C   UNL     1      -1.274  12.192  22.407  0.00  0.00    +0.000 C 
ATOM      6  C   UNL     1      -0.495  12.738  21.183  0.00  0.00    +0.000 C 
ATOM      7  C   UNL     1      -0.235  11.713  20.070  0.00  0.00    +0.000 C 
ATOM      8  C   UNL     1       0.294  10.418  20.612  0.00  0.00    +0.000 A 
ATOM      9  C   UNL     1       0.083  10.050  21.923  0.00  0.00    +0.000 A 
ATOM     10  S   UNL     1       0.945   8.618  22.317  0.00  0.00    +0.000 S 
ATOM     11  C   UNL     1       1.507   8.408  20.711  0.00  0.00    +0.000 A 
ATOM     12  C   UNL     1       1.062   9.430  19.889  0.00  0.00    +0.000 A 
ATOM     13  C   UNL     1      -0.707  10.839  22.939  0.00  0.00    +0.000 C 
BRANCH   5  15
ATOM     14  C   UNL     1      -3.624  13.063  23.124  0.00  0.00    +0.000 C 
ATOM     15  C   UNL     1      -2.800  12.246  22.135  0.00  0.00    +0.000 C 
ENDBRANCH   5  15
BRANCH  12  16
ATOM     16  C   UNL     1       1.413   9.605  18.516  0.00  0.00    +0.000 C 
ATOM     17  N   UNL     1       1.825   9.734  17.431  0.00  0.00    +0.000 NA
ENDBRANCH  12  16
ENDBRANCH   1  11
BRANCH   2  18
ATOM     18  C   UNL     1       2.687   4.790  20.458  0.00  0.00    +0.000 C 
ATOM     19  C   UNL     1       2.358   3.634  21.416  0.00  0.00    +0.000 C 
ATOM     20  C   UNL     1       1.498   2.559  20.824  0.00  0.00    +0.000 C 
ATOM     21  C   UNL     1       1.252   2.454  19.512  0.00  0.00    +0.000 C 
ATOM     22  C   UNL     1       1.844   3.373  18.485  0.00  0.00    +0.000 C 
ATOM     23  C   UNL     1       2.947   4.304  19.015  0.00  0.00    +0.000 C 
BRANCH  23  24
ATOM     24  C   UNL     1       4.317   3.635  18.920  0.00  0.00    +0.000 C 
ATOM     25  O   UNL     1       5.286   3.922  19.592  0.00  0.00    +0.000 OA
BRANCH  24  26
ATOM     26  O   UNL     1       4.368   2.665  17.970  0.00  0.00    +0.000 OA
ATOM     27  H   UNL     1       4.592   2.974  17.065  0.00  0.00    +0.000 HD
ENDBRANCH  24  26
ENDBRANCH  23  24
ENDBRANCH   2  18
TORSDOF 6
ENDMDL
MODEL 3
REMARK VINA RESULT:      -6.7      1.550      2.654
REMARK  Name = 
REMARK  7 active torsions:
REMARK  status: ('A' for Active; 'I' for Inactive)
REMARK    1  A    between atoms: C_1  and  C_2
REMARK    2  A    between atoms: C_2  and  C_3
REMARK    3  A    between atoms: C_9  and  N_10
REMARK    4  A    between atoms: C_11  and  C_13
REMARK    5  A    between atoms: C_18  and  C_19
REMARK    6  A    between atoms: C_19  and  O_21
REMARK    7  A    between atoms: C_22  and  C_23
REMARK                            x       y       z     vdW  Elec       q    Type
REMARK                         _______ _______ _______ _____ _____    ______ ____
ROOT
ATOM      1  N   UNL     1       2.258   7.073  20.642  0.00  0.00    +0.000 N 
ATOM      2  C   UNL     1       2.220   6.033  19.729  0.00  0.00    +0.000 C 
ATOM      3  O   UNL     1       1.600   6.091  18.664  0.00  0.00    +0.000 OA
ATOM      4  H   UNL     1       2.448   6.842  21.610  0.00  0.00    +0.000 HD
ENDROOT
BRANCH   1  11
ATOM      5  C   UNL     1      -1.286  12.364  20.583  0.00  0.00    +0.000 C 
ATOM      6  C   UNL     1      -0.150  12.654  19.570  0.00  0.00    +0.000 C 
ATOM      7  C   UNL     1       0.326  11.438  18.763  0.00  0.00    +0.000 C 
ATOM      8  C   UNL     1       0.567  10.243  19.638  0.00  0.00    +0.000 A 
ATOM      9  C   UNL     1      -0.035  10.124  20.871  0.00  0.00    +0.000 A 
ATOM     10  S   UNL     1       0.555   8.757  21.727  0.00  0.00    +0.000 S 
ATOM     11  C   UNL     1       1.528   8.243  20.412  0.00  0.00    +0.000 A 
ATOM     12  C   UNL     1       1.422   9.116  19.342  0.00  0.00    +0.000 A 
ATOM     13  C   UNL     1      -1.010  11.109  21.469  0.00  0.00    +0.000 C 
BRANCH   5  15
ATOM     14  C   UNL     1      -3.833  12.900  20.723  0.00  0.00    +0.000 C 
ATOM     15  C   UNL     1      -2.663  12.420  19.871  0.00  0.00    +0.000 C 
ENDBRANCH   5  15
BRANCH  12  16
ATOM     16  C   UNL     1       2.160   9.029  18.122  0.00  0.00    +0.000 C 
ATOM     17  N   UNL     1       2.713   8.839  17.113  0.00  0.00    +0.000 NA
ENDBRANCH  12  16
ENDBRANCH   1  11
BRANCH   2  18
ATOM     18  C   UNL     1       2.844   4.674  20.132  0.00  0.00    +0.000 C 
ATOM     19  C   UNL     1       2.246   3.923  21.332  0.00  0.00    +0.000 C 
ATOM     20  C   UNL     1       1.162   2.950  20.982  0.00  0.00    +0.000 C 
ATOM     21  C   UNL     1       0.907   2.554  19.728  0.00  0.00    +0.000 C 
ATOM     22  C   UNL     1       1.705   3.005  18.541  0.00  0.00    +0.000 C 
ATOM     23  C   UNL     1       2.992   3.773  18.887  0.00  0.00    +0.000 C 
BRANCH  23  24
ATOM     24  C   UNL     1       4.167   2.813  19.064  0.00  0.00    +0.000 C 
ATOM     25  O   UNL     1       5.170   3.044  19.707  0.00  0.00    +0.000 OA
BRANCH  24  26
ATOM     26  O   UNL     1       3.998   1.640  18.401  0.00  0.00    +0.000 OA
ATOM     27  H   UNL     1       4.132   0.829  18.940  0.00  0.00    +0.000 HD
ENDBRANCH  24  26
ENDBRANCH  23  24
ENDBRANCH   2  18
TORSDOF 6
ENDMDL
MODEL 4
REMARK VINA RESULT:      -6.5      3.002      8.067
REMARK  Name = 
REMARK  7 active torsions:
REMARK  status: ('A' for Active; 'I' for Inactive)
REMARK    1  A    between atoms: C_1  and  C_2
REMARK    2  A    between atoms: C_2  and  C_3
REMARK    3  A    between atoms: C_9  and  N_10
REMARK    4  A    between atoms: C_11  and  C_13
REMARK    5  A    between atoms: C_18  and  C_19
REMARK    6  A    between atoms: C_19  and  O_21
REMARK    7  A    between atoms: C_22  and  C_23
REMARK                            x       y       z     vdW  Elec       q    Type
REMARK                         _______ _______ _______ _____ _____    ______ ____
ROOT
ATOM      1  N   UNL     1       2.205   7.995  19.233  0.00  0.00    +0.000 N 
ATOM      2  C   UNL     1       1.664   9.142  18.679  0.00  0.00    +0.000 C 
ATOM      3  O   UNL     1       1.679   9.380  17.468  0.00  0.00    +0.000 OA
ATOM      4  H   UNL     1       2.493   8.031  20.204  0.00  0.00    +0.000 HD
ENDROOT
BRANCH   1  11
ATOM      5  C   UNL     1       5.824   4.483  15.343  0.00  0.00    +0.000 C 
ATOM      6  C   UNL     1       5.388   3.495  16.454  0.00  0.00    +0.000 C 
ATOM      7  C   UNL     1       3.975   3.725  17.008  0.00  0.00    +0.000 C 
ATOM      8  C   UNL     1       3.726   5.169  17.331  0.00  0.00    +0.000 A 
ATOM      9  C   UNL     1       4.462   6.173  16.741  0.00  0.00    +0.000 A 
ATOM     10  S   UNL     1       4.092   7.704  17.425  0.00  0.00    +0.000 S 
ATOM     11  C   UNL     1       2.859   7.059  18.425  0.00  0.00    +0.000 A 
ATOM     12  C   UNL     1       2.746   5.688  18.258  0.00  0.00    +0.000 A 
ATOM     13  C   UNL     1       5.542   5.975  15.705  0.00  0.00    +0.000 C 
BRANCH   5  15
ATOM     14  C   UNL     1       6.381   3.738  12.908  0.00  0.00    +0.000 C 
ATOM     15  C   UNL     1       5.310   3.996  13.963  0.00  0.00    +0.000 C 
ENDBRANCH   5  15
BRANCH  12  16
ATOM     16  C   UNL     1       1.877   4.829  18.997  0.00  0.00    +0.000 C 
ATOM     17  N   UNL     1       1.235   4.162  19.707  0.00  0.00    +0.000 NA
ENDBRANCH  12  16
ENDBRANCH   1  11
BRANCH   2  18
ATOM     18  C   UNL     1       1.166  10.257  19.631  0.00  0.00    +0.000 C 
ATOM     19  C   UNL     1       1.269  11.718  19.163  0.00  0.00    +0.000 C 
ATOM     20  C   UNL     1       0.055  12.233  18.453  0.00  0.00    +0.000 C 
ATOM     21  C   UNL     1      -1.122  11.594  18.452  0.00  0.00    +0.000 C 
ATOM     22  C   UNL     1      -1.368  10.315  19.196  0.00  0.00    +0.000 C 
ATOM     23  C   UNL     1      -0.242   9.906  20.160  0.00  0.00    +0.000 C 
BRANCH  23  24
ATOM     24  C   UNL     1      -0.457  10.522  21.541  0.00  0.00    +0.000 C 
ATOM     25  O   UNL     1      -1.355  11.284  21.837  0.00  0.00    +0.000 OA
BRANCH  24  26
ATOM     26  O   UNL     1       0.486  10.146  22.443  0.00  0.00    +0.000 OA
ATOM     27  H   UNL     1       1.150   9.501  22.113  0.00  0.00    +0.000 HD
ENDBRANCH  24  26
ENDBRANCH  23  24
ENDBRANCH   2  18
TORSDOF 6
ENDMDL
MODEL 5
REMARK VINA RESULT:      -6.4      1.035      1.152
REMARK  Name = 
REMARK  7 active torsions:
REMARK  status: ('A' for Active; 'I' for Inactive)
REMARK    1  A    between atoms: C_1  and  C_2
REMARK    2  A    between atoms: C_2  and  C_3
REMARK    3  A    between atoms: C_9  and  N_10
REMARK    4  A    between atoms: C_11  and  C_13
REMARK    5  A    between atoms: C_18  and  C_19
REMARK    6  A    between atoms: C_19  and  O_21
REMARK    7  A    between atoms: C_22  and  C_23
REMARK                            x       y       z     vdW  Elec       q    Type
REMARK                         _______ _______ _______ _____ _____    ______ ____
ROOT
ATOM      1  N   UNL     1       2.266   7.581  19.934  0.00  0.00    +0.000 N 
ATOM      2  C   UNL     1       1.710   6.403  20.402  0.00  0.00    +0.000 C 
ATOM      3  O   UNL     1       0.552   6.320  20.817  0.00  0.00    +0.000 OA
ATOM      4  H   UNL     1       3.274   7.673  19.968  0.00  0.00    +0.000 HD
ENDROOT
BRANCH   1  11
ATOM      5  C   UNL     1      -1.231  12.840  19.105  0.00  0.00    +0.000 C 
ATOM      6  C   UNL     1      -1.612  12.349  20.524  0.00  0.00    +0.000 C 
ATOM      7  C   UNL     1      -0.467  11.698  21.314  0.00  0.00    +0.000 C 
ATOM      8  C   UNL     1       0.283  10.692  20.491  0.00  0.00    +0.000 A 
ATOM      9  C   UNL     1       0.265  10.736  19.114  0.00  0.00    +0.000 A 
ATOM     10  S   UNL     1       1.053   9.369  18.435  0.00  0.00    +0.000 S 
ATOM     11  C   UNL     1       1.532   8.772  19.968  0.00  0.00    +0.000 A 
ATOM     12  C   UNL     1       1.077   9.592  20.988  0.00  0.00    +0.000 A 
ATOM     13  C   UNL     1      -0.442  11.776  18.279  0.00  0.00    +0.000 C 
BRANCH   5  15
ATOM     14  C   UNL     1       0.907  14.330  19.018  0.00  0.00    +0.000 C 
ATOM     15  C   UNL     1      -0.608  14.258  19.181  0.00  0.00    +0.000 C 
ENDBRANCH   5  15
BRANCH  12  16
ATOM     16  C   UNL     1       1.229   9.342  22.386  0.00  0.00    +0.000 C 
ATOM     17  N   UNL     1       1.321   9.264  23.547  0.00  0.00    +0.000 NA
ENDBRANCH  12  16
ENDBRANCH   1  11
BRANCH   2  18
ATOM     18  C   UNL     1       2.630   5.169  20.568  0.00  0.00    +0.000 C 
ATOM     19  C   UNL     1       2.108   3.972  21.378  0.00  0.00    +0.000 C 
ATOM     20  C   UNL     1       1.403   2.928  20.566  0.00  0.00    +0.000 C 
ATOM     21  C   UNL     1       1.448   2.885  19.228  0.00  0.00    +0.000 C 
ATOM     22  C   UNL     1       2.243   3.846  18.396  0.00  0.00    +0.000 C 
ATOM     23  C   UNL     1       3.199   4.748  19.195  0.00  0.00    +0.000 C 
BRANCH  23  24
ATOM     24  C   UNL     1       4.561   4.078  19.369  0.00  0.00    +0.000 C 
ATOM     25  O   UNL     1       4.744   2.885  19.495  0.00  0.00    +0.000 OA
BRANCH  24  26
ATOM     26  O   UNL     1       5.590   4.965  19.388  0.00  0.00    +0.000 OA
ATOM     27  H   UNL     1       5.874   5.299  18.509  0.00  0.00    +0.000 HD
ENDBRANCH  24  26
ENDBRANCH  23  24
ENDBRANCH   2  18
TORSDOF 6
ENDMDL
MODEL 6
REMARK VINA RESULT:      -6.4      1.668      2.779
REMARK  Name = 
REMARK  7 active torsions:
REMARK  status: ('A' for Active; 'I' for Inactive)
REMARK    1  A    between atoms: C_1  and  C_2
REMARK    2  A    between atoms: C_2  and  C_3
REMARK    3  A    between atoms: C_9  and  N_10
REMARK    4  A    between atoms: C_11  and  C_13
REMARK    5  A    between atoms: C_18  and  C_19
REMARK    6  A    between atoms: C_19  and  O_21
REMARK    7  A    between atoms: C_22  and  C_23
REMARK                            x       y       z     vdW  Elec       q    Type
REMARK                         _______ _______ _______ _____ _____    ______ ____
ROOT
ATOM      1  N   UNL     1       1.791   6.347  20.537  0.00  0.00    +0.000 N 
ATOM      2  C   UNL     1       2.996   5.766  20.180  0.00  0.00    +0.000 C 
ATOM      3  O   UNL     1       3.922   6.395  19.663  0.00  0.00    +0.000 OA
ATOM      4  H   UNL     1       0.977   5.746  20.595  0.00  0.00    +0.000 HD
ENDROOT
BRANCH   1  11
ATOM      5  C   UNL     1       0.536  12.587  20.300  0.00  0.00    +0.000 C 
ATOM      6  C   UNL     1       1.629  12.376  19.222  0.00  0.00    +0.000 C 
ATOM      7  C   UNL     1       1.553  11.037  18.473  0.00  0.00    +0.000 C 
ATOM      8  C   UNL     1       1.376   9.879  19.411  0.00  0.00    +0.000 A 
ATOM      9  C   UNL     1       0.854  10.052  20.674  0.00  0.00    +0.000 A 
ATOM     10  S   UNL     1       0.933   8.600  21.587  0.00  0.00    +0.000 S 
ATOM     11  C   UNL     1       1.549   7.698  20.267  0.00  0.00    +0.000 A 
ATOM     12  C   UNL     1       1.715   8.499  19.149  0.00  0.00    +0.000 A 
ATOM     13  C   UNL     1       0.369  11.360  21.251  0.00  0.00    +0.000 C 
BRANCH   5  15
ATOM     14  C   UNL     1      -1.889  12.131  19.457  0.00  0.00    +0.000 C 
ATOM     15  C   UNL     1      -0.758  13.138  19.646  0.00  0.00    +0.000 C 
ENDBRANCH   5  15
BRANCH  12  16
ATOM     16  C   UNL     1       2.285   8.085  17.906  0.00  0.00    +0.000 C 
ATOM     17  N   UNL     1       2.867   7.777  16.943  0.00  0.00    +0.000 NA
ENDBRANCH  12  16
ENDBRANCH   1  11
BRANCH   2  18
ATOM     18  C   UNL     1       3.130   4.226  20.278  0.00  0.00    +0.000 C 
ATOM     19  C   UNL     1       2.198   3.472  21.241  0.00  0.00    +0.000 C 
ATOM     20  C   UNL     1       0.920   2.993  20.624  0.00  0.00    +0.000 C 
ATOM     21  C   UNL     1       0.704   2.972  19.303  0.00  0.00    +0.000 C 
ATOM     22  C   UNL     1       1.732   3.382  18.291  0.00  0.00    +0.000 C 
ATOM     23  C   UNL     1       3.142   3.607  18.864  0.00  0.00    +0.000 C 
BRANCH  23  24
ATOM     24  C   UNL     1       3.945   2.307  18.861  0.00  0.00    +0.000 C 
ATOM     25  O   UNL     1       3.613   1.280  18.306  0.00  0.00    +0.000 OA
BRANCH  24  26
ATOM     26  O   UNL     1       5.097   2.393  19.575  0.00  0.00    +0.000 OA
ATOM     27  H   UNL     1       5.652   1.583  19.577  0.00  0.00    +0.000 HD
ENDBRANCH  24  26
ENDBRANCH  23  24
ENDBRANCH   2  18
TORSDOF 6
ENDMDL
MODEL 7
REMARK VINA RESULT:      -6.4      1.143      1.384
REMARK  Name = 
REMARK  7 active torsions:
REMARK  status: ('A' for Active; 'I' for Inactive)
REMARK    1  A    between atoms: C_1  and  C_2
REMARK    2  A    between atoms: C_2  and  C_3
REMARK    3  A    between atoms: C_9  and  N_10
REMARK    4  A    between atoms: C_11  and  C_13
REMARK    5  A    between atoms: C_18  and  C_19
REMARK    6  A    between atoms: C_19  and  O_21
REMARK    7  A    between atoms: C_22  and  C_23
REMARK                            x       y       z     vdW  Elec       q    Type
REMARK                         _______ _______ _______ _____ _____    ______ ____
ROOT
ATOM      1  N   UNL     1       1.409   7.047  20.856  0.00  0.00    +0.000 N 
ATOM      2  C   UNL     1       2.373   6.312  20.188  0.00  0.00    +0.000 C 
ATOM      3  O   UNL     1       3.154   6.806  19.371  0.00  0.00    +0.000 OA
ATOM      4  H   UNL     1       0.594   6.553  21.201  0.00  0.00    +0.000 HD
ENDROOT
BRANCH   1  11
ATOM      5  C   UNL     1       0.649  12.968  18.636  0.00  0.00    +0.000 C 
ATOM      6  C   UNL     1      -0.195  12.936  19.935  0.00  0.00    +0.000 C 
ATOM      7  C   UNL     1       0.382  12.069  21.063  0.00  0.00    +0.000 C 
ATOM      8  C   UNL     1       0.810  10.718  20.569  0.00  0.00    +0.000 A 
ATOM      9  C   UNL     1       1.108  10.501  19.242  0.00  0.00    +0.000 A 
ATOM     10  S   UNL     1       1.391   8.836  18.929  0.00  0.00    +0.000 S 
ATOM     11  C   UNL     1       1.241   8.408  20.582  0.00  0.00    +0.000 A 
ATOM     12  C   UNL     1       0.955   9.517  21.361  0.00  0.00    +0.000 A 
ATOM     13  C   UNL     1       1.089  11.549  18.156  0.00  0.00    +0.000 C 
BRANCH   5  15
ATOM     14  C   UNL     1       3.180  13.559  18.436  0.00  0.00    +0.000 C 
ATOM     15  C   UNL     1       1.767  14.037  18.753  0.00  0.00    +0.000 C 
ENDBRANCH   5  15
BRANCH  12  16
ATOM     16  C   UNL     1       0.686   9.502  22.763  0.00  0.00    +0.000 C 
ATOM     17  N   UNL     1       0.343   9.456  23.878  0.00  0.00    +0.000 NA
ENDBRANCH  12  16
ENDBRANCH   1  11
BRANCH   2  18
ATOM     18  C   UNL     1       2.365   4.771  20.344  0.00  0.00    +0.000 C 
ATOM     19  C   UNL     1       1.074   4.009  20.006  0.00  0.00    +0.000 C 
ATOM     20  C   UNL     1       0.982   3.537  18.587  0.00  0.00    +0.000 C 
ATOM     21  C   UNL     1       2.025   3.529  17.746  0.00  0.00    +0.000 C 
ATOM     22  C   UNL     1       3.409   3.948  18.143  0.00  0.00    +0.000 C 
ATOM     23  C   UNL     1       3.606   4.166  19.653  0.00  0.00    +0.000 C 
BRANCH  23  24
ATOM     24  C   UNL     1       4.015   2.865  20.341  0.00  0.00    +0.000 C 
ATOM     25  O   UNL     1       3.518   2.423  21.357  0.00  0.00    +0.000 OA
BRANCH  24  26
ATOM     26  O   UNL     1       5.033   2.227  19.709  0.00  0.00    +0.000 OA
ATOM     27  H   UNL     1       5.128   2.432  18.752  0.00  0.00    +0.000 HD
ENDBRANCH  24  26
ENDBRANCH  23  24
ENDBRANCH   2  18
TORSDOF 6
ENDMDL
MODEL 8
REMARK VINA RESULT:      -6.3      1.846      2.880
REMARK  Name = 
REMARK  7 active torsions:
REMARK  status: ('A' for Active; 'I' for Inactive)
REMARK    1  A    between atoms: C_1  and  C_2
REMARK    2  A    between atoms: C_2  and  C_3
REMARK    3  A    between atoms: C_9  and  N_10
REMARK    4  A    between atoms: C_11  and  C_13
REMARK    5  A    between atoms: C_18  and  C_19
REMARK    6  A    between atoms: C_19  and  O_21
REMARK    7  A    between atoms: C_22  and  C_23
REMARK                            x       y       z     vdW  Elec       q    Type
REMARK                         _______ _______ _______ _____ _____    ______ ____
ROOT
ATOM      1  N   UNL     1       2.420   6.444  20.473  0.00  0.00    +0.000 N 
ATOM      2  C   UNL     1       2.170   5.347  19.668  0.00  0.00    +0.000 C 
ATOM      3  O   UNL     1       1.529   5.413  18.616  0.00  0.00    +0.000 OA
ATOM      4  H   UNL     1       2.605   6.275  21.455  0.00  0.00    +0.000 HD
ENDROOT
BRANCH   1  11
ATOM      5  C   UNL     1      -0.273  12.193  19.955  0.00  0.00    +0.000 C 
ATOM      6  C   UNL     1       0.958  12.262  19.018  0.00  0.00    +0.000 C 
ATOM      7  C   UNL     1       1.298  10.951  18.294  0.00  0.00    +0.000 C 
ATOM      8  C   UNL     1       1.298   9.778  19.230  0.00  0.00    +0.000 A 
ATOM      9  C   UNL     1       0.603   9.809  20.419  0.00  0.00    +0.000 A 
ATOM     10  S   UNL     1       0.923   8.413  21.367  0.00  0.00    +0.000 S 
ATOM     11  C   UNL     1       1.892   7.698  20.147  0.00  0.00    +0.000 A 
ATOM     12  C   UNL     1       1.990   8.523  19.039  0.00  0.00    +0.000 A 
ATOM     13  C   UNL     1      -0.249  10.955  20.907  0.00  0.00    +0.000 C 
BRANCH   5  15
ATOM     14  C   UNL     1      -2.858  12.528  19.961  0.00  0.00    +0.000 C 
ATOM     15  C   UNL     1      -1.575  12.417  19.143  0.00  0.00    +0.000 C 
ENDBRANCH   5  15
BRANCH  12  16
ATOM     16  C   UNL     1       2.786   8.270  17.881  0.00  0.00    +0.000 C 
ATOM     17  N   UNL     1       3.455   7.942  16.983  0.00  0.00    +0.000 NA
ENDBRANCH  12  16
ENDBRANCH   1  11
BRANCH   2  18
ATOM     18  C   UNL     1       2.568   3.944  20.187  0.00  0.00    +0.000 C 
ATOM     19  C   UNL     1       1.473   3.050  20.790  0.00  0.00    +0.000 C 
ATOM     20  C   UNL     1       0.803   2.137  19.810  0.00  0.00    +0.000 C 
ATOM     21  C   UNL     1       1.277   1.906  18.579  0.00  0.00    +0.000 C 
ATOM     22  C   UNL     1       2.553   2.499  18.060  0.00  0.00    +0.000 C 
ATOM     23  C   UNL     1       3.410   3.208  19.122  0.00  0.00    +0.000 C 
BRANCH  23  24
ATOM     24  C   UNL     1       4.369   2.225  19.791  0.00  0.00    +0.000 C 
ATOM     25  O   UNL     1       4.928   2.404  20.854  0.00  0.00    +0.000 OA
BRANCH  24  26
ATOM     26  O   UNL     1       4.567   1.097  19.062  0.00  0.00    +0.000 OA
ATOM     27  H   UNL     1       4.196   0.274  19.449  0.00  0.00    +0.000 HD
ENDBRANCH  24  26
ENDBRANCH  23  24
ENDBRANCH   2  18
TORSDOF 6
ENDMDL
MODEL 9
REMARK VINA RESULT:      -6.3      2.035      3.299
REMARK  Name = 
REMARK  7 active torsions:
REMARK  status: ('A' for Active; 'I' for Inactive)
REMARK    1  A    between atoms: C_1  and  C_2
REMARK    2  A    between atoms: C_2  and  C_3
REMARK    3  A    between atoms: C_9  and  N_10
REMARK    4  A    between atoms: C_11  and  C_13
REMARK    5  A    between atoms: C_18  and  C_19
REMARK    6  A    between atoms: C_19  and  O_21
REMARK    7  A    between atoms: C_22  and  C_23
REMARK                            x       y       z     vdW  Elec       q    Type
REMARK                         _______ _______ _______ _____ _____    ______ ____
ROOT
ATOM      1  N   UNL     1       2.301   6.231  20.146  0.00  0.00    +0.000 N 
ATOM      2  C   UNL     1       2.020   5.178  19.293  0.00  0.00    +0.000 C 
ATOM      3  O   UNL     1       1.522   5.329  18.175  0.00  0.00    +0.000 OA
ATOM      4  H   UNL     1       2.345   6.035  21.139  0.00  0.00    +0.000 HD
ENDROOT
BRANCH   1  11
ATOM      5  C   UNL     1       0.413  12.273  19.440  0.00  0.00    +0.000 C 
ATOM      6  C   UNL     1       1.734  12.190  18.635  0.00  0.00    +0.000 C 
ATOM      7  C   UNL     1       1.981  10.848  17.931  0.00  0.00    +0.000 C 
ATOM      8  C   UNL     1       1.738   9.682  18.844  0.00  0.00    +0.000 A 
ATOM      9  C   UNL     1       0.932   9.797  19.956  0.00  0.00    +0.000 A 
ATOM     10  S   UNL     1       0.976   8.370  20.910  0.00  0.00    +0.000 S 
ATOM     11  C   UNL     1       1.970   7.542  19.786  0.00  0.00    +0.000 A 
ATOM     12  C   UNL     1       2.285   8.351  18.707  0.00  0.00    +0.000 A 
ATOM     13  C   UNL     1       0.183  11.040  20.370  0.00  0.00    +0.000 C 
BRANCH   5  15
ATOM     14  C   UNL     1      -1.697  11.525  18.104  0.00  0.00    +0.000 C 
ATOM     15  C   UNL     1      -0.760  12.661  18.502  0.00  0.00    +0.000 C 
ENDBRANCH   5  15
BRANCH  12  16
ATOM     16  C   UNL     1       3.159   8.002  17.633  0.00  0.00    +0.000 C 
ATOM     17  N   UNL     1       3.829   7.595  16.769  0.00  0.00    +0.000 NA
ENDBRANCH  12  16
ENDBRANCH   1  11
BRANCH   2  18
ATOM     18  C   UNL     1       2.182   3.734  19.827  0.00  0.00    +0.000 C 
ATOM     19  C   UNL     1       1.403   2.606  19.130  0.00  0.00    +0.000 C 
ATOM     20  C   UNL     1       2.145   1.930  18.019  0.00  0.00    +0.000 C 
ATOM     21  C   UNL     1       3.458   2.087  17.809  0.00  0.00    +0.000 C 
ATOM     22  C   UNL     1       4.341   2.922  18.688  0.00  0.00    +0.000 C 
ATOM     23  C   UNL     1       3.681   3.399  19.993  0.00  0.00    +0.000 C 
BRANCH  23  24
ATOM     24  C   UNL     1       3.874   2.372  21.108  0.00  0.00    +0.000 C 
ATOM     25  O   UNL     1       3.082   2.149  22.000  0.00  0.00    +0.000 OA
BRANCH  24  26
ATOM     26  O   UNL     1       5.060   1.717  21.025  0.00  0.00    +0.000 OA
ATOM     27  H   UNL     1       5.120   1.043  20.313  0.00  0.00    +0.000 HD
ENDBRANCH  24  26
ENDBRANCH  23  24
ENDBRANCH   2  18
TORSDOF 6
ENDMDL
