MODEL 1
REMARK VINA RESULT:      -9.0      0.000      0.000
REMARK  Name = 
REMARK  5 active torsions:
REMARK  status: ('A' for Active; 'I' for Inactive)
REMARK    1  A    between atoms: C_2  and  C_11
REMARK    2  A    between atoms: N_3  and  C_4
REMARK    3  A    between atoms: C_4  and  C_5
REMARK    4  A    between atoms: C_13  and  C_14
REMARK    5  A    between atoms: C_20  and  C_22
REMARK                            x       y       z     vdW  Elec       q    Type
REMARK                         _______ _______ _______ _____ _____    ______ ____
ROOT
ATOM      1  C   UNL     1       6.169   4.643  17.042  0.00  0.00    +0.000 A 
ATOM      2  C   UNL     1       4.803   4.348  17.274  0.00  0.00    +0.000 A 
ATOM      3  C   UNL     1       4.711   4.150  18.630  0.00  0.00    +0.000 A 
ATOM      4  O   UNL     1       5.949   4.290  19.182  0.00  0.00    +0.000 OA
ATOM      5  N   UNL     1       6.872   4.596  18.189  0.00  0.00    +0.000 NA
ENDROOT
BRANCH   3   6
ATOM      6  C   UNL     1       3.550   3.931  19.540  0.00  0.00    +0.000 C 
ATOM      7  C   UNL     1       2.828   2.643  19.074  0.00  0.00    +0.000 C 
ATOM      8  C   UNL     1       1.643   2.277  19.953  0.00  0.00    +0.000 C 
ATOM      9  C   UNL     1       0.703   3.460  20.073  0.00  0.00    +0.000 C 
ATOM     10  C   UNL     1       1.434   4.701  20.559  0.00  0.00    +0.000 C 
ATOM     11  N   UNL     1       2.590   5.052  19.726  0.00  0.00    +0.000 N 
ATOM     12  C   UNL     1       2.952   6.396  19.454  0.00  0.00    +0.000 C 
ATOM     13  O   UNL     1       4.009   6.668  18.889  0.00  0.00    +0.000 OA
BRANCH  12  14
ATOM     14  C   UNL     1       2.046   7.486  19.832  0.00  0.00    +0.000 A 
ATOM     15  C   UNL     1       1.438   7.798  21.037  0.00  0.00    +0.000 A 
ATOM     16  C   UNL     1       0.612   8.957  20.959  0.00  0.00    +0.000 A 
ATOM     17  C   UNL     1       0.701   9.567  19.729  0.00  0.00    +0.000 A 
ATOM     18  S   UNL     1       1.713   8.703  18.659  0.00  0.00    +0.000 S 
ENDBRANCH  12  14
ENDBRANCH   3   6
BRANCH   1  20
ATOM     19  O   UNL     1       7.687   5.828  15.694  0.00  0.00    +0.000 OA
ATOM     20  C   UNL     1       6.763   5.019  15.764  0.00  0.00    +0.000 C 
ATOM     21  N   UNL     1       6.234   4.389  14.662  0.00  0.00    +0.000 N 
ATOM     22  H   UNL     1       5.405   3.821  14.807  0.00  0.00    +0.000 HD
BRANCH  21  23
ATOM     23  C   UNL     1       6.686   4.682  13.328  0.00  0.00    +0.000 C 
BRANCH  23  24
ATOM     24  C   UNL     1       6.463   3.521  12.396  0.00  0.00    +0.000 A 
ATOM     25  C   UNL     1       5.160   3.105  12.081  0.00  0.00    +0.000 A 
ATOM     26  C   UNL     1       4.946   2.020  11.231  0.00  0.00    +0.000 A 
ATOM     27  C   UNL     1       6.032   1.336  10.690  0.00  0.00    +0.000 A 
ATOM     28  C   UNL     1       7.331   1.733  11.003  0.00  0.00    +0.000 A 
ATOM     29  C   UNL     1       7.547   2.817  11.856  0.00  0.00    +0.000 A 
ENDBRANCH  23  24
ENDBRANCH  21  23
ENDBRANCH   1  20
TORSDOF 5
ENDMDL
MODEL 2
REMARK VINA RESULT:      -9.0      0.443      1.015
REMARK  Name = 
REMARK  5 active torsions:
REMARK  status: ('A' for Active; 'I' for Inactive)
REMARK    1  A    between atoms: C_2  and  C_11
REMARK    2  A    between atoms: N_3  and  C_4
REMARK    3  A    between atoms: C_4  and  C_5
REMARK    4  A    between atoms: C_13  and  C_14
REMARK    5  A    between atoms: C_20  and  C_22
REMARK                            x       y       z     vdW  Elec       q    Type
REMARK                         _______ _______ _______ _____ _____    ______ ____
ROOT
ATOM      1  C   UNL     1       6.201   4.564  17.179  0.00  0.00    +0.000 A 
ATOM      2  C   UNL     1       4.842   4.246  17.419  0.00  0.00    +0.000 A 
ATOM      3  C   UNL     1       4.736   4.159  18.785  0.00  0.00    +0.000 A 
ATOM      4  O   UNL     1       5.961   4.386  19.338  0.00  0.00    +0.000 OA
ATOM      5  N   UNL     1       6.888   4.637  18.334  0.00  0.00    +0.000 NA
ENDROOT
BRANCH   3   6
ATOM      6  C   UNL     1       3.569   3.980  19.697  0.00  0.00    +0.000 C 
ATOM      7  C   UNL     1       2.856   2.669  19.289  0.00  0.00    +0.000 C 
ATOM      8  C   UNL     1       1.665   2.341  20.177  0.00  0.00    +0.000 C 
ATOM      9  C   UNL     1       0.720   3.525  20.233  0.00  0.00    +0.000 C 
ATOM     10  C   UNL     1       1.444   4.791  20.662  0.00  0.00    +0.000 C 
ATOM     11  N   UNL     1       2.604   5.105  19.821  0.00  0.00    +0.000 N 
ATOM     12  C   UNL     1       2.963   6.436  19.487  0.00  0.00    +0.000 C 
ATOM     13  O   UNL     1       4.023   6.685  18.916  0.00  0.00    +0.000 OA
BRANCH  12  14
ATOM     14  C   UNL     1       2.051   7.539  19.805  0.00  0.00    +0.000 A 
ATOM     15  C   UNL     1       1.430   7.906  20.988  0.00  0.00    +0.000 A 
ATOM     16  C   UNL     1       0.602   9.057  20.848  0.00  0.00    +0.000 A 
ATOM     17  C   UNL     1       0.701   9.609  19.592  0.00  0.00    +0.000 A 
ATOM     18  S   UNL     1       1.726   8.700  18.573  0.00  0.00    +0.000 S 
ENDBRANCH  12  14
ENDBRANCH   3   6
BRANCH   1  20
ATOM     19  O   UNL     1       7.678   5.703  15.748  0.00  0.00    +0.000 OA
ATOM     20  C   UNL     1       6.801   4.850  15.881  0.00  0.00    +0.000 C 
ATOM     21  N   UNL     1       6.336   4.085  14.837  0.00  0.00    +0.000 N 
ATOM     22  H   UNL     1       5.539   3.484  15.022  0.00  0.00    +0.000 HD
BRANCH  21  23
ATOM     23  C   UNL     1       6.802   4.275  13.489  0.00  0.00    +0.000 C 
BRANCH  23  24
ATOM     24  C   UNL     1       6.024   3.438  12.507  0.00  0.00    +0.000 A 
ATOM     25  C   UNL     1       6.585   2.267  11.975  0.00  0.00    +0.000 A 
ATOM     26  C   UNL     1       5.876   1.495  11.053  0.00  0.00    +0.000 A 
ATOM     27  C   UNL     1       4.602   1.888  10.651  0.00  0.00    +0.000 A 
ATOM     28  C   UNL     1       4.038   3.055  11.165  0.00  0.00    +0.000 A 
ATOM     29  C   UNL     1       4.747   3.830  12.086  0.00  0.00    +0.000 A 
ENDBRANCH  23  24
ENDBRANCH  21  23
ENDBRANCH   1  20
TORSDOF 5
ENDMDL
MODEL 3
REMARK VINA RESULT:      -7.9      3.842      7.343
REMARK  Name = 
REMARK  5 active torsions:
REMARK  status: ('A' for Active; 'I' for Inactive)
REMARK    1  A    between atoms: C_2  and  C_11
REMARK    2  A    between atoms: N_3  and  C_4
REMARK    3  A    between atoms: C_4  and  C_5
REMARK    4  A    between atoms: C_13  and  C_14
REMARK    5  A    between atoms: C_20  and  C_22
REMARK                            x       y       z     vdW  Elec       q    Type
REMARK                         _______ _______ _______ _____ _____    ______ ____
ROOT
ATOM      1  C   UNL     1       1.691   7.981  20.099  0.00  0.00    +0.000 A 
ATOM      2  C   UNL     1       1.548   8.828  18.974  0.00  0.00    +0.000 A 
ATOM      3  C   UNL     1       1.077  10.013  19.482  0.00  0.00    +0.000 A 
ATOM      4  O   UNL     1       0.919   9.884  20.830  0.00  0.00    +0.000 OA
ATOM      5  N   UNL     1       1.299   8.607  21.224  0.00  0.00    +0.000 NA
ENDROOT
BRANCH   3   6
ATOM      6  C   UNL     1       0.833  11.349  18.865  0.00  0.00    +0.000 C 
ATOM      7  C   UNL     1       1.631  12.394  19.682  0.00  0.00    +0.000 C 
ATOM      8  C   UNL     1       1.506  13.803  19.125  0.00  0.00    +0.000 C 
ATOM      9  C   UNL     1       0.043  14.173  18.978  0.00  0.00    +0.000 C 
ATOM     10  C   UNL     1      -0.708  13.143  18.148  0.00  0.00    +0.000 C 
ATOM     11  N   UNL     1      -0.578  11.778  18.669  0.00  0.00    +0.000 N 
ATOM     12  C   UNL     1      -1.642  10.842  18.622  0.00  0.00    +0.000 C 
ATOM     13  O   UNL     1      -1.465   9.661  18.917  0.00  0.00    +0.000 OA
BRANCH  12  14
ATOM     14  C   UNL     1      -2.986  11.284  18.236  0.00  0.00    +0.000 A 
ATOM     15  C   UNL     1      -3.974  11.946  18.947  0.00  0.00    +0.000 A 
ATOM     16  C   UNL     1      -5.153  12.174  18.179  0.00  0.00    +0.000 A 
ATOM     17  C   UNL     1      -4.994  11.785  16.870  0.00  0.00    +0.000 A 
ATOM     18  S   UNL     1      -3.462  11.082  16.593  0.00  0.00    +0.000 S 
ENDBRANCH  12  14
ENDBRANCH   3   6
BRANCH   1  20
ATOM     19  O   UNL     1       1.673   5.696  20.652  0.00  0.00    +0.000 OA
ATOM     20  C   UNL     1       2.246   6.632  20.096  0.00  0.00    +0.000 C 
ATOM     21  N   UNL     1       3.430   6.486  19.412  0.00  0.00    +0.000 N 
ATOM     22  H   UNL     1       3.880   7.332  19.079  0.00  0.00    +0.000 HD
BRANCH  21  23
ATOM     23  C   UNL     1       4.122   5.226  19.352  0.00  0.00    +0.000 C 
BRANCH  23  24
ATOM     24  C   UNL     1       5.061   5.161  18.175  0.00  0.00    +0.000 A 
ATOM     25  C   UNL     1       4.599   5.462  16.884  0.00  0.00    +0.000 A 
ATOM     26  C   UNL     1       5.459   5.389  15.787  0.00  0.00    +0.000 A 
ATOM     27  C   UNL     1       6.787   5.011  15.969  0.00  0.00    +0.000 A 
ATOM     28  C   UNL     1       7.255   4.700  17.245  0.00  0.00    +0.000 A 
ATOM     29  C   UNL     1       6.394   4.770  18.343  0.00  0.00    +0.000 A 
ENDBRANCH  23  24
ENDBRANCH  21  23
ENDBRANCH   1  20
TORSDOF 5
ENDMDL
MODEL 4
REMARK VINA RESULT:      -7.9      3.842      7.359
REMARK  Name = 
REMARK  5 active torsions:
REMARK  status: ('A' for Active; 'I' for Inactive)
REMARK    1  A    between atoms: C_2  and  C_11
REMARK    2  A    between atoms: N_3  and  C_4
REMARK    3  A    between atoms: C_4  and  C_5
REMARK    4  A    between atoms: C_13  and  C_14
REMARK    5  A    between atoms: C_20  and  C_22
REMARK                            x       y       z     vdW  Elec       q    Type
REMARK                         _______ _______ _______ _____ _____    ______ ____
ROOT
ATOM      1  C   UNL     1       1.923   7.859  19.152  0.00  0.00    +0.000 A 
ATOM      2  C   UNL     1       1.678   8.884  18.206  0.00  0.00    +0.000 A 
ATOM      3  C   UNL     1       1.231   9.950  18.948  0.00  0.00    +0.000 A 
ATOM      4  O   UNL     1       1.184   9.585  20.261  0.00  0.00    +0.000 OA
ATOM      5  N   UNL     1       1.614   8.271  20.396  0.00  0.00    +0.000 NA
ENDROOT
BRANCH   3   6
ATOM      6  C   UNL     1       0.918  11.364  18.594  0.00  0.00    +0.000 C 
ATOM      7  C   UNL     1       1.731  12.275  19.546  0.00  0.00    +0.000 C 
ATOM      8  C   UNL     1       1.538  13.755  19.258  0.00  0.00    +0.000 C 
ATOM      9  C   UNL     1       0.060  14.092  19.251  0.00  0.00    +0.000 C 
ATOM     10  C   UNL     1      -0.707  13.201  18.288  0.00  0.00    +0.000 C 
ATOM     11  N   UNL     1      -0.512  11.770  18.547  0.00  0.00    +0.000 N 
ATOM     12  C   UNL     1      -1.552  10.819  18.385  0.00  0.00    +0.000 C 
ATOM     13  O   UNL     1      -1.327   9.612  18.454  0.00  0.00    +0.000 OA
BRANCH  12  14
ATOM     14  C   UNL     1      -2.926  11.274  18.151  0.00  0.00    +0.000 A 
ATOM     15  C   UNL     1      -3.839  11.902  18.982  0.00  0.00    +0.000 A 
ATOM     16  C   UNL     1      -5.087  12.161  18.342  0.00  0.00    +0.000 A 
ATOM     17  C   UNL     1      -5.057  11.828  17.008  0.00  0.00    +0.000 A 
ATOM     18  S   UNL     1      -3.560  11.142  16.554  0.00  0.00    +0.000 S 
ENDBRANCH  12  14
ENDBRANCH   3   6
BRANCH   1  20
ATOM     19  O   UNL     1       2.224   5.930  17.842  0.00  0.00    +0.000 OA
ATOM     20  C   UNL     1       2.497   6.548  18.871  0.00  0.00    +0.000 C 
ATOM     21  N   UNL     1       3.372   6.074  19.820  0.00  0.00    +0.000 N 
ATOM     22  H   UNL     1       3.451   6.603  20.683  0.00  0.00    +0.000 HD
BRANCH  21  23
ATOM     23  C   UNL     1       3.989   4.780  19.706  0.00  0.00    +0.000 C 
BRANCH  23  24
ATOM     24  C   UNL     1       5.219   4.823  18.838  0.00  0.00    +0.000 A 
ATOM     25  C   UNL     1       6.395   5.431  19.306  0.00  0.00    +0.000 A 
ATOM     26  C   UNL     1       7.533   5.489  18.501  0.00  0.00    +0.000 A 
ATOM     27  C   UNL     1       7.507   4.944  17.219  0.00  0.00    +0.000 A 
ATOM     28  C   UNL     1       6.342   4.347  16.739  0.00  0.00    +0.000 A 
ATOM     29  C   UNL     1       5.201   4.291  17.543  0.00  0.00    +0.000 A 
ENDBRANCH  23  24
ENDBRANCH  21  23
ENDBRANCH   1  20
TORSDOF 5
ENDMDL
MODEL 5
REMARK VINA RESULT:      -7.9      3.936      7.289
REMARK  Name = 
REMARK  5 active torsions:
REMARK  status: ('A' for Active; 'I' for Inactive)
REMARK    1  A    between atoms: C_2  and  C_11
REMARK    2  A    between atoms: N_3  and  C_4
REMARK    3  A    between atoms: C_4  and  C_5
REMARK    4  A    between atoms: C_13  and  C_14
REMARK    5  A    between atoms: C_20  and  C_22
REMARK                            x       y       z     vdW  Elec       q    Type
REMARK                         _______ _______ _______ _____ _____    ______ ____
ROOT
ATOM      1  C   UNL     1       1.658   8.035  20.001  0.00  0.00    +0.000 A 
ATOM      2  C   UNL     1       1.523   8.923  18.907  0.00  0.00    +0.000 A 
ATOM      3  C   UNL     1       1.053  10.090  19.456  0.00  0.00    +0.000 A 
ATOM      4  O   UNL     1       0.889   9.912  20.798  0.00  0.00    +0.000 OA
ATOM      5  N   UNL     1       1.264   8.621  21.147  0.00  0.00    +0.000 NA
ENDROOT
BRANCH   3   6
ATOM      6  C   UNL     1       0.814  11.448  18.887  0.00  0.00    +0.000 C 
ATOM      7  C   UNL     1       1.577  12.465  19.771  0.00  0.00    +0.000 C 
ATOM      8  C   UNL     1       1.455  13.895  19.269  0.00  0.00    +0.000 C 
ATOM      9  C   UNL     1      -0.006  14.258  19.092  0.00  0.00    +0.000 C 
ATOM     10  C   UNL     1      -0.721  13.258  18.198  0.00  0.00    +0.000 C 
ATOM     11  N   UNL     1      -0.594  11.873  18.665  0.00  0.00    +0.000 N 
ATOM     12  C   UNL     1      -1.647  10.931  18.548  0.00  0.00    +0.000 C 
ATOM     13  O   UNL     1      -1.467   9.741  18.800  0.00  0.00    +0.000 OA
BRANCH  12  14
ATOM     14  C   UNL     1      -2.983  11.377  18.139  0.00  0.00    +0.000 A 
ATOM     15  C   UNL     1      -3.663  11.259  16.937  0.00  0.00    +0.000 A 
ATOM     16  C   UNL     1      -4.957  11.854  16.970  0.00  0.00    +0.000 A 
ATOM     17  C   UNL     1      -5.279  12.309  18.227  0.00  0.00    +0.000 A 
ATOM     18  S   UNL     1      -3.999  12.086  19.336  0.00  0.00    +0.000 S 
ENDBRANCH  12  14
ENDBRANCH   3   6
BRANCH   1  20
ATOM     19  O   UNL     1       1.969   5.856  20.828  0.00  0.00    +0.000 OA
ATOM     20  C   UNL     1       2.210   6.686  19.951  0.00  0.00    +0.000 C 
ATOM     21  N   UNL     1       2.988   6.410  18.852  0.00  0.00    +0.000 N 
ATOM     22  H   UNL     1       3.218   7.186  18.240  0.00  0.00    +0.000 HD
BRANCH  21  23
ATOM     23  C   UNL     1       3.635   5.136  18.679  0.00  0.00    +0.000 C 
BRANCH  23  24
ATOM     24  C   UNL     1       4.427   5.082  17.399  0.00  0.00    +0.000 A 
ATOM     25  C   UNL     1       4.691   6.259  16.680  0.00  0.00    +0.000 A 
ATOM     26  C   UNL     1       5.410   6.214  15.485  0.00  0.00    +0.000 A 
ATOM     27  C   UNL     1       5.870   4.994  14.994  0.00  0.00    +0.000 A 
ATOM     28  C   UNL     1       5.605   3.818  15.694  0.00  0.00    +0.000 A 
ATOM     29  C   UNL     1       4.883   3.861  16.889  0.00  0.00    +0.000 A 
ENDBRANCH  23  24
ENDBRANCH  21  23
ENDBRANCH   1  20
TORSDOF 5
ENDMDL
MODEL 6
REMARK VINA RESULT:      -7.8      3.867      7.383
REMARK  Name = 
REMARK  5 active torsions:
REMARK  status: ('A' for Active; 'I' for Inactive)
REMARK    1  A    between atoms: C_2  and  C_11
REMARK    2  A    between atoms: N_3  and  C_4
REMARK    3  A    between atoms: C_4  and  C_5
REMARK    4  A    between atoms: C_13  and  C_14
REMARK    5  A    between atoms: C_20  and  C_22
REMARK                            x       y       z     vdW  Elec       q    Type
REMARK                         _______ _______ _______ _____ _____    ______ ____
ROOT
ATOM      1  C   UNL     1       1.881   7.852  19.186  0.00  0.00    +0.000 A 
ATOM      2  C   UNL     1       1.689   8.887  18.240  0.00  0.00    +0.000 A 
ATOM      3  C   UNL     1       1.214   9.949  18.969  0.00  0.00    +0.000 A 
ATOM      4  O   UNL     1       1.101   9.573  20.274  0.00  0.00    +0.000 OA
ATOM      5  N   UNL     1       1.515   8.254  20.418  0.00  0.00    +0.000 NA
ENDROOT
BRANCH   3   6
ATOM      6  C   UNL     1       0.928  11.369  18.614  0.00  0.00    +0.000 C 
ATOM      7  C   UNL     1       1.696  12.265  19.615  0.00  0.00    +0.000 C 
ATOM      8  C   UNL     1       1.527  13.750  19.334  0.00  0.00    +0.000 C 
ATOM      9  C   UNL     1       0.054  14.096  19.254  0.00  0.00    +0.000 C 
ATOM     10  C   UNL     1      -0.668  13.219  18.243  0.00  0.00    +0.000 C 
ATOM     11  N   UNL     1      -0.495  11.785  18.498  0.00  0.00    +0.000 N 
ATOM     12  C   UNL     1      -1.531  10.843  18.272  0.00  0.00    +0.000 C 
ATOM     13  O   UNL     1      -1.317   9.634  18.340  0.00  0.00    +0.000 OA
BRANCH  12  14
ATOM     14  C   UNL     1      -2.889  11.309  17.972  0.00  0.00    +0.000 A 
ATOM     15  C   UNL     1      -3.645  11.250  16.813  0.00  0.00    +0.000 A 
ATOM     16  C   UNL     1      -4.932  11.843  16.958  0.00  0.00    +0.000 A 
ATOM     17  C   UNL     1      -5.172  12.237  18.253  0.00  0.00    +0.000 A 
ATOM     18  S   UNL     1      -3.824  11.959  19.265  0.00  0.00    +0.000 S 
ENDBRANCH  12  14
ENDBRANCH   3   6
BRANCH   1  20
ATOM     19  O   UNL     1       2.139   5.881  17.932  0.00  0.00    +0.000 OA
ATOM     20  C   UNL     1       2.458   6.539  18.921  0.00  0.00    +0.000 C 
ATOM     21  N   UNL     1       3.392   6.113  19.836  0.00  0.00    +0.000 N 
ATOM     22  H   UNL     1       3.511   6.674  20.673  0.00  0.00    +0.000 HD
BRANCH  21  23
ATOM     23  C   UNL     1       4.022   4.823  19.734  0.00  0.00    +0.000 C 
BRANCH  23  24
ATOM     24  C   UNL     1       5.237   4.866  18.844  0.00  0.00    +0.000 A 
ATOM     25  C   UNL     1       5.192   4.309  17.556  0.00  0.00    +0.000 A 
ATOM     26  C   UNL     1       6.318   4.330  16.733  0.00  0.00    +0.000 A 
ATOM     27  C   UNL     1       7.502   4.904  17.189  0.00  0.00    +0.000 A 
ATOM     28  C   UNL     1       7.563   5.451  18.470  0.00  0.00    +0.000 A 
ATOM     29  C   UNL     1       6.437   5.428  19.296  0.00  0.00    +0.000 A 
ENDBRANCH  23  24
ENDBRANCH  21  23
ENDBRANCH   1  20
TORSDOF 5
ENDMDL
MODEL 7
REMARK VINA RESULT:      -7.8      5.487      9.224
REMARK  Name = 
REMARK  5 active torsions:
REMARK  status: ('A' for Active; 'I' for Inactive)
REMARK    1  A    between atoms: C_2  and  C_11
REMARK    2  A    between atoms: N_3  and  C_4
REMARK    3  A    between atoms: C_4  and  C_5
REMARK    4  A    between atoms: C_13  and  C_14
REMARK    5  A    between atoms: C_20  and  C_22
REMARK                            x       y       z     vdW  Elec       q    Type
REMARK                         _______ _______ _______ _____ _____    ______ ____
ROOT
ATOM      1  C   UNL     1       0.704   9.599  21.150  0.00  0.00    +0.000 A 
ATOM      2  C   UNL     1      -0.253  10.639  21.067  0.00  0.00    +0.000 A 
ATOM      3  C   UNL     1      -0.413  11.075  22.360  0.00  0.00    +0.000 A 
ATOM      4  O   UNL     1       0.380  10.328  23.179  0.00  0.00    +0.000 OA
ATOM      5  N   UNL     1       1.082   9.395  22.426  0.00  0.00    +0.000 NA
ENDROOT
BRANCH   3   6
ATOM      6  C   UNL     1      -1.170  12.216  22.953  0.00  0.00    +0.000 C 
ATOM      7  C   UNL     1      -2.678  11.929  22.754  0.00  0.00    +0.000 C 
ATOM      8  C   UNL     1      -3.570  13.000  23.360  0.00  0.00    +0.000 C 
ATOM      9  C   UNL     1      -3.163  14.366  22.841  0.00  0.00    +0.000 C 
ATOM     10  C   UNL     1      -1.685  14.629  23.076  0.00  0.00    +0.000 C 
ATOM     11  N   UNL     1      -0.817  13.591  22.509  0.00  0.00    +0.000 N 
ATOM     12  C   UNL     1       0.441  13.886  21.925  0.00  0.00    +0.000 C 
ATOM     13  O   UNL     1       1.218  12.990  21.601  0.00  0.00    +0.000 OA
BRANCH  12  14
ATOM     14  C   UNL     1       0.822  15.281  21.680  0.00  0.00    +0.000 A 
ATOM     15  C   UNL     1       1.566  16.175  22.433  0.00  0.00    +0.000 A 
ATOM     16  C   UNL     1       1.686  17.455  21.817  0.00  0.00    +0.000 A 
ATOM     17  C   UNL     1       1.131  17.472  20.560  0.00  0.00    +0.000 A 
ATOM     18  S   UNL     1       0.406  15.978  20.160  0.00  0.00    +0.000 S 
ENDBRANCH  12  14
ENDBRANCH   3   6
BRANCH   1  20
ATOM     19  O   UNL     1       1.149   9.259  18.867  0.00  0.00    +0.000 OA
ATOM     20  C   UNL     1       1.281   8.869  20.026  0.00  0.00    +0.000 C 
ATOM     21  N   UNL     1       1.994   7.743  20.362  0.00  0.00    +0.000 N 
ATOM     22  H   UNL     1       1.957   7.443  21.331  0.00  0.00    +0.000 HD
BRANCH  21  23
ATOM     23  C   UNL     1       2.591   6.895  19.364  0.00  0.00    +0.000 C 
BRANCH  23  24
ATOM     24  C   UNL     1       2.040   5.494  19.422  0.00  0.00    +0.000 A 
ATOM     25  C   UNL     1       1.923   4.730  18.250  0.00  0.00    +0.000 A 
ATOM     26  C   UNL     1       1.400   3.438  18.294  0.00  0.00    +0.000 A 
ATOM     27  C   UNL     1       0.984   2.897  19.508  0.00  0.00    +0.000 A 
ATOM     28  C   UNL     1       1.086   3.649  20.678  0.00  0.00    +0.000 A 
ATOM     29  C   UNL     1       1.607   4.944  20.635  0.00  0.00    +0.000 A 
ENDBRANCH  23  24
ENDBRANCH  21  23
ENDBRANCH   1  20
TORSDOF 5
ENDMDL
MODEL 8
REMARK VINA RESULT:      -7.7      5.314      9.099
REMARK  Name = 
REMARK  5 active torsions:
REMARK  status: ('A' for Active; 'I' for Inactive)
REMARK    1  A    between atoms: C_2  and  C_11
REMARK    2  A    between atoms: N_3  and  C_4
REMARK    3  A    between atoms: C_4  and  C_5
REMARK    4  A    between atoms: C_13  and  C_14
REMARK    5  A    between atoms: C_20  and  C_22
REMARK                            x       y       z     vdW  Elec       q    Type
REMARK                         _______ _______ _______ _____ _____    ______ ____
ROOT
ATOM      1  C   UNL     1       1.032   9.987  18.922  0.00  0.00    +0.000 A 
ATOM      2  C   UNL     1       1.506  10.990  19.801  0.00  0.00    +0.000 A 
ATOM      3  C   UNL     1       0.384  11.683  20.184  0.00  0.00    +0.000 A 
ATOM      4  O   UNL     1      -0.701  11.148  19.555  0.00  0.00    +0.000 OA
ATOM      5  N   UNL     1      -0.301  10.084  18.757  0.00  0.00    +0.000 NA
ENDROOT
BRANCH   3   6
ATOM      6  C   UNL     1       0.161  12.769  21.181  0.00  0.00    +0.000 C 
ATOM      7  C   UNL     1      -0.989  12.318  22.114  0.00  0.00    +0.000 C 
ATOM      8  C   UNL     1      -1.288  13.323  23.215  0.00  0.00    +0.000 C 
ATOM      9  C   UNL     1      -1.530  14.692  22.613  0.00  0.00    +0.000 C 
ATOM     10  C   UNL     1      -0.373  15.120  21.725  0.00  0.00    +0.000 C 
ATOM     11  N   UNL     1      -0.066  14.148  20.670  0.00  0.00    +0.000 N 
ATOM     12  C   UNL     1       0.349  14.539  19.372  0.00  0.00    +0.000 C 
ATOM     13  O   UNL     1       0.752  13.712  18.556  0.00  0.00    +0.000 OA
BRANCH  12  14
ATOM     14  C   UNL     1       0.282  15.951  18.979  0.00  0.00    +0.000 A 
ATOM     15  C   UNL     1      -0.788  16.752  18.615  0.00  0.00    +0.000 A 
ATOM     16  C   UNL     1      -0.399  18.085  18.294  0.00  0.00    +0.000 A 
ATOM     17  C   UNL     1       0.938  18.300  18.530  0.00  0.00    +0.000 A 
ATOM     18  S   UNL     1       1.728  16.883  19.063  0.00  0.00    +0.000 S 
ENDBRANCH  12  14
ENDBRANCH   3   6
BRANCH   1  20
ATOM     19  O   UNL     1       2.246   9.019  17.157  0.00  0.00    +0.000 OA
ATOM     20  C   UNL     1       1.831   8.930  18.312  0.00  0.00    +0.000 C 
ATOM     21  N   UNL     1       2.100   7.853  19.124  0.00  0.00    +0.000 N 
ATOM     22  H   UNL     1       1.626   7.820  20.021  0.00  0.00    +0.000 HD
BRANCH  21  23
ATOM     23  C   UNL     1       2.842   6.713  18.654  0.00  0.00    +0.000 C 
BRANCH  23  24
ATOM     24  C   UNL     1       2.165   5.418  19.021  0.00  0.00    +0.000 A 
ATOM     25  C   UNL     1       1.835   5.147  20.358  0.00  0.00    +0.000 A 
ATOM     26  C   UNL     1       1.222   3.942  20.708  0.00  0.00    +0.000 A 
ATOM     27  C   UNL     1       0.939   2.996  19.726  0.00  0.00    +0.000 A 
ATOM     28  C   UNL     1       1.272   3.250  18.396  0.00  0.00    +0.000 A 
ATOM     29  C   UNL     1       1.887   4.454  18.045  0.00  0.00    +0.000 A 
ENDBRANCH  23  24
ENDBRANCH  21  23
ENDBRANCH   1  20
TORSDOF 5
ENDMDL
MODEL 9
REMARK VINA RESULT:      -7.7      4.641      8.026
REMARK  Name = 
REMARK  5 active torsions:
REMARK  status: ('A' for Active; 'I' for Inactive)
REMARK    1  A    between atoms: C_2  and  C_11
REMARK    2  A    between atoms: N_3  and  C_4
REMARK    3  A    between atoms: C_4  and  C_5
REMARK    4  A    between atoms: C_13  and  C_14
REMARK    5  A    between atoms: C_20  and  C_22
REMARK                            x       y       z     vdW  Elec       q    Type
REMARK                         _______ _______ _______ _____ _____    ______ ____
ROOT
ATOM      1  C   UNL     1       1.836   8.477  19.324  0.00  0.00    +0.000 A 
ATOM      2  C   UNL     1       1.587   9.631  18.543  0.00  0.00    +0.000 A 
ATOM      3  C   UNL     1       0.934  10.495  19.387  0.00  0.00    +0.000 A 
ATOM      4  O   UNL     1       0.775   9.891  20.599  0.00  0.00    +0.000 OA
ATOM      5  N   UNL     1       1.336   8.621  20.566  0.00  0.00    +0.000 NA
ENDROOT
BRANCH   3   6
ATOM      6  C   UNL     1       0.503  11.915  19.241  0.00  0.00    +0.000 C 
ATOM      7  C   UNL     1       1.150  12.721  20.393  0.00  0.00    +0.000 C 
ATOM      8  C   UNL     1       0.826  14.206  20.333  0.00  0.00    +0.000 C 
ATOM      9  C   UNL     1      -0.674  14.405  20.254  0.00  0.00    +0.000 C 
ATOM     10  C   UNL     1      -1.277  13.624  19.098  0.00  0.00    +0.000 C 
ATOM     11  N   UNL     1      -0.955  12.193  19.138  0.00  0.00    +0.000 N 
ATOM     12  C   UNL     1      -1.878  11.194  18.737  0.00  0.00    +0.000 C 
ATOM     13  O   UNL     1      -1.536  10.018  18.629  0.00  0.00    +0.000 OA
BRANCH  12  14
ATOM     14  C   UNL     1      -3.272  11.556  18.463  0.00  0.00    +0.000 A 
ATOM     15  C   UNL     1      -4.240  12.148  19.259  0.00  0.00    +0.000 A 
ATOM     16  C   UNL     1      -5.487  12.312  18.588  0.00  0.00    +0.000 A 
ATOM     17  C   UNL     1      -5.408  11.948  17.264  0.00  0.00    +0.000 A 
ATOM     18  S   UNL     1      -3.863  11.344  16.859  0.00  0.00    +0.000 S 
ENDBRANCH  12  14
ENDBRANCH   3   6
BRANCH   1  20
ATOM     19  O   UNL     1       2.836   7.079  17.719  0.00  0.00    +0.000 OA
ATOM     20  C   UNL     1       2.587   7.299  18.905  0.00  0.00    +0.000 C 
ATOM     21  N   UNL     1       3.012   6.480  19.924  0.00  0.00    +0.000 N 
ATOM     22  H   UNL     1       2.669   6.685  20.856  0.00  0.00    +0.000 HD
BRANCH  21  23
ATOM     23  C   UNL     1       3.730   5.260  19.669  0.00  0.00    +0.000 C 
BRANCH  23  24
ATOM     24  C   UNL     1       2.798   4.121  19.346  0.00  0.00    +0.000 A 
ATOM     25  C   UNL     1       3.076   3.261  18.272  0.00  0.00    +0.000 A 
ATOM     26  C   UNL     1       2.209   2.214  17.958  0.00  0.00    +0.000 A 
ATOM     27  C   UNL     1       1.054   2.019  18.711  0.00  0.00    +0.000 A 
ATOM     28  C   UNL     1       0.762   2.872  19.773  0.00  0.00    +0.000 A 
ATOM     29  C   UNL     1       1.627   3.922  20.087  0.00  0.00    +0.000 A 
ENDBRANCH  23  24
ENDBRANCH  21  23
ENDBRANCH   1  20
TORSDOF 5
ENDMDL
