MODEL 1
REMARK VINA RESULT:      -9.4      0.000      0.000
REMARK  Name = 
REMARK  10 active torsions:
REMARK  status: ('A' for Active; 'I' for Inactive)
REMARK    1  A    between atoms: C_1  and  C_2
REMARK    2  A    between atoms: C_2  and  C_3
REMARK    3  A    between atoms: C_3  and  C_4
REMARK    4  A    between atoms: C_4  and  N_5
REMARK    5  A    between atoms: N_5  and  C_6
REMARK    6  A    between atoms: C_6  and  C_7
REMARK    7  A    between atoms: C_10  and  C_11
REMARK    8  A    between atoms: C_16  and  C_17
REMARK    9  A    between atoms: C_26  and  C_27
REMARK   10  A    between atoms: C_29  and  C_30
REMARK                            x       y       z     vdW  Elec       q    Type
REMARK                         _______ _______ _______ _____ _____    ______ ____
ROOT
ATOM      1  C   UNL     1       2.704   7.140  19.380  0.00  0.00    +0.000 A 
ATOM      2  C   UNL     1       1.936   7.713  20.393  0.00  0.00    +0.000 A 
ATOM      3  C   UNL     1       1.051   8.757  20.101  0.00  0.00    +0.000 A 
ATOM      4  C   UNL     1       0.941   9.303  18.808  0.00  0.00    +0.000 A 
ATOM      5  C   UNL     1       1.925   8.902  17.888  0.00  0.00    +0.000 A 
ATOM      6  C   UNL     1       2.762   7.807  18.150  0.00  0.00    +0.000 A 
ENDROOT
BRANCH   4   7
ATOM      7  C   UNL     1      -0.215  10.181  18.431  0.00  0.00    +0.000 A 
ATOM      8  C   UNL     1      -1.201   9.660  17.551  0.00  0.00    +0.000 A 
ATOM      9  C   UNL     1      -2.272  10.427  17.079  0.00  0.00    +0.000 A 
ATOM     10  C   UNL     1      -2.427  11.736  17.498  0.00  0.00    +0.000 A 
ATOM     11  C   UNL     1      -1.491  12.280  18.370  0.00  0.00    +0.000 A 
ATOM     12  C   UNL     1      -0.370  11.539  18.827  0.00  0.00    +0.000 A 
BRANCH  12  13
ATOM     13  C   UNL     1       0.581  12.274  19.659  0.00  0.00    +0.000 A 
ATOM     14  N   UNL     1       0.425  12.492  21.009  0.00  0.00    +0.000 NA
ATOM     15  N   UNL     1       1.440  13.247  21.403  0.00  0.00    +0.000 NA
ATOM     16  N   UNL     1       2.193  13.391  20.308  0.00  0.00    +0.000 N 
ATOM     17  N   UNL     1       1.732  12.802  19.195  0.00  0.00    +0.000 NA
ATOM     18  H   UNL     1       3.058  13.919  20.325  0.00  0.00    +0.000 HD
ENDBRANCH  12  13
ENDBRANCH   4   7
BRANCH   1  19
ATOM     19  C   UNL     1       3.434   5.827  19.596  0.00  0.00    +0.000 C 
BRANCH  19  20
ATOM     20  N   UNL     1       3.468   4.952  18.402  0.00  0.00    +0.000 N 
ATOM     21  C   UNL     1       4.601   5.152  17.575  0.00  0.00    +0.000 A 
ATOM     22  C   UNL     1       4.807   4.366  16.449  0.00  0.00    +0.000 A 
ATOM     23  C   UNL     1       5.886   4.646  15.633  0.00  0.00    +0.000 A 
ATOM     24  C   UNL     1       6.101   3.893  14.355  0.00  0.00    +0.000 C 
ATOM     25  N   UNL     1       6.773   5.609  15.925  0.00  0.00    +0.000 NA
ATOM     26  C   UNL     1       6.548   6.299  17.054  0.00  0.00    +0.000 A 
ATOM     27  C   UNL     1       7.548   7.355  17.418  0.00  0.00    +0.000 C 
ATOM     28  N   UNL     1       5.501   6.116  17.881  0.00  0.00    +0.000 NA
BRANCH  20  29
ATOM     29  C   UNL     1       2.254   4.509  17.673  0.00  0.00    +0.000 C 
BRANCH  29  30
ATOM     30  C   UNL     1       1.515   3.272  18.169  0.00  0.00    +0.000 C 
BRANCH  30  32
ATOM     31  C   UNL     1       1.507   2.758  20.678  0.00  0.00    +0.000 C 
ATOM     32  C   UNL     1       0.813   3.474  19.526  0.00  0.00    +0.000 C 
ENDBRANCH  30  32
ENDBRANCH  29  30
ENDBRANCH  20  29
ENDBRANCH  19  20
ENDBRANCH   1  19
TORSDOF 7
ENDMDL
MODEL 2
REMARK VINA RESULT:      -9.3      2.041      2.880
REMARK  Name = 
REMARK  10 active torsions:
REMARK  status: ('A' for Active; 'I' for Inactive)
REMARK    1  A    between atoms: C_1  and  C_2
REMARK    2  A    between atoms: C_2  and  C_3
REMARK    3  A    between atoms: C_3  and  C_4
REMARK    4  A    between atoms: C_4  and  N_5
REMARK    5  A    between atoms: N_5  and  C_6
REMARK    6  A    between atoms: C_6  and  C_7
REMARK    7  A    between atoms: C_10  and  C_11
REMARK    8  A    between atoms: C_16  and  C_17
REMARK    9  A    between atoms: C_26  and  C_27
REMARK   10  A    between atoms: C_29  and  C_30
REMARK                            x       y       z     vdW  Elec       q    Type
REMARK                         _______ _______ _______ _____ _____    ______ ____
ROOT
ATOM      1  C   UNL     1       2.418   7.230  19.331  0.00  0.00    +0.000 A 
ATOM      2  C   UNL     1       2.290   7.795  18.062  0.00  0.00    +0.000 A 
ATOM      3  C   UNL     1       1.648   9.029  17.902  0.00  0.00    +0.000 A 
ATOM      4  C   UNL     1       1.065   9.713  18.986  0.00  0.00    +0.000 A 
ATOM      5  C   UNL     1       0.961   8.987  20.184  0.00  0.00    +0.000 A 
ATOM      6  C   UNL     1       1.664   7.787  20.371  0.00  0.00    +0.000 A 
ENDROOT
BRANCH   4   7
ATOM      7  C   UNL     1       0.674  11.156  18.872  0.00  0.00    +0.000 A 
ATOM      8  C   UNL     1       1.558  12.139  19.390  0.00  0.00    +0.000 A 
ATOM      9  C   UNL     1       1.246  13.503  19.404  0.00  0.00    +0.000 A 
ATOM     10  C   UNL     1       0.053  13.948  18.863  0.00  0.00    +0.000 A 
ATOM     11  C   UNL     1      -0.836  13.019  18.334  0.00  0.00    +0.000 A 
ATOM     12  C   UNL     1      -0.564  11.626  18.349  0.00  0.00    +0.000 A 
BRANCH  12  13
ATOM     13  C   UNL     1      -1.634  10.764  17.849  0.00  0.00    +0.000 A 
ATOM     14  N   UNL     1      -1.940  10.601  16.517  0.00  0.00    +0.000 NA
ATOM     15  N   UNL     1      -3.000   9.810  16.454  0.00  0.00    +0.000 NA
ATOM     16  N   UNL     1      -3.242   9.474  17.725  0.00  0.00    +0.000 N 
ATOM     17  N   UNL     1      -2.426  10.014  18.642  0.00  0.00    +0.000 NA
ATOM     18  H   UNL     1      -4.001   8.851  17.974  0.00  0.00    +0.000 HD
ENDBRANCH  12  13
ENDBRANCH   4   7
BRANCH   1  19
ATOM     19  C   UNL     1       3.358   6.065  19.580  0.00  0.00    +0.000 C 
BRANCH  19  20
ATOM     20  N   UNL     1       3.441   5.107  18.454  0.00  0.00    +0.000 N 
ATOM     21  C   UNL     1       4.583   5.283  17.632  0.00  0.00    +0.000 A 
ATOM     22  C   UNL     1       4.834   4.425  16.571  0.00  0.00    +0.000 A 
ATOM     23  C   UNL     1       5.920   4.680  15.754  0.00  0.00    +0.000 A 
ATOM     24  C   UNL     1       6.181   3.844  14.538  0.00  0.00    +0.000 C 
ATOM     25  N   UNL     1       6.770   5.690  15.990  0.00  0.00    +0.000 NA
ATOM     26  C   UNL     1       6.503   6.452  17.061  0.00  0.00    +0.000 A 
ATOM     27  C   UNL     1       7.462   7.564  17.364  0.00  0.00    +0.000 C 
ATOM     28  N   UNL     1       5.446   6.296  17.883  0.00  0.00    +0.000 NA
BRANCH  20  29
ATOM     29  C   UNL     1       2.256   4.573  17.739  0.00  0.00    +0.000 C 
BRANCH  29  30
ATOM     30  C   UNL     1       1.562   3.337  18.297  0.00  0.00    +0.000 C 
BRANCH  30  32
ATOM     31  C   UNL     1       1.502   3.005  20.836  0.00  0.00    +0.000 C 
ATOM     32  C   UNL     1       0.807   3.594  19.615  0.00  0.00    +0.000 C 
ENDBRANCH  30  32
ENDBRANCH  29  30
ENDBRANCH  20  29
ENDBRANCH  19  20
ENDBRANCH   1  19
TORSDOF 7
ENDMDL
MODEL 3
REMARK VINA RESULT:      -9.2      2.220      8.583
REMARK  Name = 
REMARK  10 active torsions:
REMARK  status: ('A' for Active; 'I' for Inactive)
REMARK    1  A    between atoms: C_1  and  C_2
REMARK    2  A    between atoms: C_2  and  C_3
REMARK    3  A    between atoms: C_3  and  C_4
REMARK    4  A    between atoms: C_4  and  N_5
REMARK    5  A    between atoms: N_5  and  C_6
REMARK    6  A    between atoms: C_6  and  C_7
REMARK    7  A    between atoms: C_10  and  C_11
REMARK    8  A    between atoms: C_16  and  C_17
REMARK    9  A    between atoms: C_26  and  C_27
REMARK   10  A    between atoms: C_29  and  C_30
REMARK                            x       y       z     vdW  Elec       q    Type
REMARK                         _______ _______ _______ _____ _____    ______ ____
ROOT
ATOM      1  C   UNL     1       1.484   9.209  18.601  0.00  0.00    +0.000 A 
ATOM      2  C   UNL     1       2.191   8.346  17.763  0.00  0.00    +0.000 A 
ATOM      3  C   UNL     1       2.541   7.065  18.204  0.00  0.00    +0.000 A 
ATOM      4  C   UNL     1       2.251   6.620  19.509  0.00  0.00    +0.000 A 
ATOM      5  C   UNL     1       1.804   7.604  20.406  0.00  0.00    +0.000 A 
ATOM      6  C   UNL     1       1.382   8.863  19.954  0.00  0.00    +0.000 A 
ENDROOT
BRANCH   4   7
ATOM      7  C   UNL     1       2.333   5.167  19.868  0.00  0.00    +0.000 A 
ATOM      8  C   UNL     1       1.250   4.584  20.579  0.00  0.00    +0.000 A 
ATOM      9  C   UNL     1       1.268   3.259  21.029  0.00  0.00    +0.000 A 
ATOM     10  C   UNL     1       2.353   2.447  20.753  0.00  0.00    +0.000 A 
ATOM     11  C   UNL     1       3.429   2.974  20.049  0.00  0.00    +0.000 A 
ATOM     12  C   UNL     1       3.456   4.328  19.621  0.00  0.00    +0.000 A 
BRANCH  12  13
ATOM     13  C   UNL     1       4.694   4.767  18.980  0.00  0.00    +0.000 A 
ATOM     14  N   UNL     1       4.987   4.578  17.648  0.00  0.00    +0.000 NA
ATOM     15  N   UNL     1       6.213   5.040  17.450  0.00  0.00    +0.000 NA
ATOM     16  N   UNL     1       6.575   5.545  18.633  0.00  0.00    +0.000 N 
ATOM     17  N   UNL     1       5.679   5.427  19.622  0.00  0.00    +0.000 NA
ATOM     18  H   UNL     1       7.477   5.988  18.767  0.00  0.00    +0.000 HD
ENDBRANCH  12  13
ENDBRANCH   4   7
BRANCH   1  19
ATOM     19  C   UNL     1       0.832  10.468  18.061  0.00  0.00    +0.000 C 
BRANCH  19  20
ATOM     20  N   UNL     1      -0.290  10.968  18.887  0.00  0.00    +0.000 N 
ATOM     21  C   UNL     1      -1.545  10.945  18.227  0.00  0.00    +0.000 A 
ATOM     22  C   UNL     1      -2.703  11.326  18.890  0.00  0.00    +0.000 A 
ATOM     23  C   UNL     1      -3.891  11.357  18.184  0.00  0.00    +0.000 A 
ATOM     24  C   UNL     1      -5.153  11.853  18.823  0.00  0.00    +0.000 C 
ATOM     25  N   UNL     1      -3.971  10.973  16.901  0.00  0.00    +0.000 NA
ATOM     26  C   UNL     1      -2.826  10.566  16.332  0.00  0.00    +0.000 A 
ATOM     27  C   UNL     1      -2.901  10.098  14.910  0.00  0.00    +0.000 C 
ATOM     28  N   UNL     1      -1.622  10.543  16.936  0.00  0.00    +0.000 NA
BRANCH  20  29
ATOM     29  C   UNL     1      -0.153  12.050  19.893  0.00  0.00    +0.000 C 
BRANCH  29  30
ATOM     30  C   UNL     1       0.326  11.690  21.293  0.00  0.00    +0.000 C 
BRANCH  30  32
ATOM     31  C   UNL     1      -0.685  10.117  23.044  0.00  0.00    +0.000 C 
ATOM     32  C   UNL     1      -0.819  11.435  22.292  0.00  0.00    +0.000 C 
ENDBRANCH  30  32
ENDBRANCH  29  30
ENDBRANCH  20  29
ENDBRANCH  19  20
ENDBRANCH   1  19
TORSDOF 7
ENDMDL
MODEL 4
REMARK VINA RESULT:      -9.0      2.158      2.860
REMARK  Name = 
REMARK  10 active torsions:
REMARK  status: ('A' for Active; 'I' for Inactive)
REMARK    1  A    between atoms: C_1  and  C_2
REMARK    2  A    between atoms: C_2  and  C_3
REMARK    3  A    between atoms: C_3  and  C_4
REMARK    4  A    between atoms: C_4  and  N_5
REMARK    5  A    between atoms: N_5  and  C_6
REMARK    6  A    between atoms: C_6  and  C_7
REMARK    7  A    between atoms: C_10  and  C_11
REMARK    8  A    between atoms: C_16  and  C_17
REMARK    9  A    between atoms: C_26  and  C_27
REMARK   10  A    between atoms: C_29  and  C_30
REMARK                            x       y       z     vdW  Elec       q    Type
REMARK                         _______ _______ _______ _____ _____    ______ ____
ROOT
ATOM      1  C   UNL     1       2.172   7.378  19.822  0.00  0.00    +0.000 A 
ATOM      2  C   UNL     1       2.017   8.464  18.961  0.00  0.00    +0.000 A 
ATOM      3  C   UNL     1       1.099   9.477  19.263  0.00  0.00    +0.000 A 
ATOM      4  C   UNL     1       0.267   9.417  20.397  0.00  0.00    +0.000 A 
ATOM      5  C   UNL     1       0.245   8.186  21.075  0.00  0.00    +0.000 A 
ATOM      6  C   UNL     1       1.211   7.200  20.825  0.00  0.00    +0.000 A 
ENDROOT
BRANCH   4   7
ATOM      7  C   UNL     1      -0.467  10.629  20.886  0.00  0.00    +0.000 A 
ATOM      8  C   UNL     1      -0.351  10.983  22.257  0.00  0.00    +0.000 A 
ATOM      9  C   UNL     1      -1.060  12.047  22.825  0.00  0.00    +0.000 A 
ATOM     10  C   UNL     1      -1.886  12.830  22.038  0.00  0.00    +0.000 A 
ATOM     11  C   UNL     1      -2.018  12.525  20.688  0.00  0.00    +0.000 A 
ATOM     12  C   UNL     1      -1.346  11.423  20.097  0.00  0.00    +0.000 A 
BRANCH  12  13
ATOM     13  C   UNL     1      -1.659  11.167  18.692  0.00  0.00    +0.000 A 
ATOM     14  N   UNL     1      -2.189   9.988  18.218  0.00  0.00    +0.000 NA
ATOM     15  N   UNL     1      -2.269  10.099  16.900  0.00  0.00    +0.000 NA
ATOM     16  N   UNL     1      -1.861  11.345  16.644  0.00  0.00    +0.000 N 
ATOM     17  N   UNL     1      -1.484  12.070  17.707  0.00  0.00    +0.000 NA
ATOM     18  H   UNL     1      -1.837  11.713  15.700  0.00  0.00    +0.000 HD
ENDBRANCH  12  13
ENDBRANCH   4   7
BRANCH   1  19
ATOM     19  C   UNL     1       3.351   6.432  19.688  0.00  0.00    +0.000 C 
BRANCH  19  20
ATOM     20  N   UNL     1       3.286   5.552  18.499  0.00  0.00    +0.000 N 
ATOM     21  C   UNL     1       4.420   5.644  17.654  0.00  0.00    +0.000 A 
ATOM     22  C   UNL     1       4.536   4.837  16.530  0.00  0.00    +0.000 A 
ATOM     23  C   UNL     1       5.624   5.014  15.696  0.00  0.00    +0.000 A 
ATOM     24  C   UNL     1       5.748   4.239  14.419  0.00  0.00    +0.000 C 
ATOM     25  N   UNL     1       6.599   5.892  15.970  0.00  0.00    +0.000 NA
ATOM     26  C   UNL     1       6.456   6.605  17.097  0.00  0.00    +0.000 A 
ATOM     27  C   UNL     1       7.553   7.567  17.440  0.00  0.00    +0.000 C 
ATOM     28  N   UNL     1       5.409   6.523  17.941  0.00  0.00    +0.000 NA
BRANCH  20  29
ATOM     29  C   UNL     1       2.026   5.219  17.790  0.00  0.00    +0.000 C 
BRANCH  29  30
ATOM     30  C   UNL     1       1.386   3.858  18.039  0.00  0.00    +0.000 C 
BRANCH  30  32
ATOM     31  C   UNL     1       1.073   3.520  20.558  0.00  0.00    +0.000 C 
ATOM     32  C   UNL     1       1.886   3.164  19.320  0.00  0.00    +0.000 C 
ENDBRANCH  30  32
ENDBRANCH  29  30
ENDBRANCH  20  29
ENDBRANCH  19  20
ENDBRANCH   1  19
TORSDOF 7
ENDMDL
MODEL 5
REMARK VINA RESULT:      -8.9      1.893      8.392
REMARK  Name = 
REMARK  10 active torsions:
REMARK  status: ('A' for Active; 'I' for Inactive)
REMARK    1  A    between atoms: C_1  and  C_2
REMARK    2  A    between atoms: C_2  and  C_3
REMARK    3  A    between atoms: C_3  and  C_4
REMARK    4  A    between atoms: C_4  and  N_5
REMARK    5  A    between atoms: N_5  and  C_6
REMARK    6  A    between atoms: C_6  and  C_7
REMARK    7  A    between atoms: C_10  and  C_11
REMARK    8  A    between atoms: C_16  and  C_17
REMARK    9  A    between atoms: C_26  and  C_27
REMARK   10  A    between atoms: C_29  and  C_30
REMARK                            x       y       z     vdW  Elec       q    Type
REMARK                         _______ _______ _______ _____ _____    ______ ____
ROOT
ATOM      1  C   UNL     1       1.187   9.245  19.950  0.00  0.00    +0.000 A 
ATOM      2  C   UNL     1       1.566   8.033  20.527  0.00  0.00    +0.000 A 
ATOM      3  C   UNL     1       2.264   7.082  19.774  0.00  0.00    +0.000 A 
ATOM      4  C   UNL     1       2.557   7.278  18.411  0.00  0.00    +0.000 A 
ATOM      5  C   UNL     1       1.915   8.367  17.797  0.00  0.00    +0.000 A 
ATOM      6  C   UNL     1       1.280   9.360  18.557  0.00  0.00    +0.000 A 
ENDROOT
BRANCH   4   7
ATOM      7  C   UNL     1       3.566   6.424  17.703  0.00  0.00    +0.000 A 
ATOM      8  C   UNL     1       4.626   7.065  17.008  0.00  0.00    +0.000 A 
ATOM      9  C   UNL     1       5.568   6.358  16.252  0.00  0.00    +0.000 A 
ATOM     10  C   UNL     1       5.516   4.977  16.192  0.00  0.00    +0.000 A 
ATOM     11  C   UNL     1       4.502   4.310  16.869  0.00  0.00    +0.000 A 
ATOM     12  C   UNL     1       3.506   5.005  17.604  0.00  0.00    +0.000 A 
BRANCH  12  13
ATOM     13  C   UNL     1       2.447   4.177  18.180  0.00  0.00    +0.000 A 
ATOM     14  N   UNL     1       1.278   3.851  17.530  0.00  0.00    +0.000 NA
ATOM     15  N   UNL     1       0.540   3.155  18.382  0.00  0.00    +0.000 NA
ATOM     16  N   UNL     1       1.311   3.029  19.466  0.00  0.00    +0.000 N 
ATOM     17  N   UNL     1       2.512   3.622  19.407  0.00  0.00    +0.000 NA
ATOM     18  H   UNL     1       0.999   2.517  20.283  0.00  0.00    +0.000 HD
ENDBRANCH  12  13
ENDBRANCH   4   7
BRANCH   1  19
ATOM     19  C   UNL     1       0.708  10.405  20.803  0.00  0.00    +0.000 C 
BRANCH  19  20
ATOM     20  N   UNL     1       0.068  11.496  20.034  0.00  0.00    +0.000 N 
ATOM     21  C   UNL     1       0.797  12.711  20.043  0.00  0.00    +0.000 A 
ATOM     22  C   UNL     1       0.357  13.810  19.319  0.00  0.00    +0.000 A 
ATOM     23  C   UNL     1       1.062  14.995  19.417  0.00  0.00    +0.000 A 
ATOM     24  C   UNL     1       0.577  16.238  18.734  0.00  0.00    +0.000 C 
ATOM     25  N   UNL     1       2.187  15.099  20.139  0.00  0.00    +0.000 NA
ATOM     26  C   UNL     1       2.589  13.989  20.775  0.00  0.00    +0.000 A 
ATOM     27  C   UNL     1       3.864  14.074  21.558  0.00  0.00    +0.000 C 
ATOM     28  N   UNL     1       1.940  12.808  20.763  0.00  0.00    +0.000 NA
BRANCH  20  29
ATOM     29  C   UNL     1      -1.402  11.670  19.921  0.00  0.00    +0.000 C 
BRANCH  29  30
ATOM     30  C   UNL     1      -2.051  11.532  18.550  0.00  0.00    +0.000 C 
BRANCH  30  32
ATOM     31  C   UNL     1      -2.199   9.908  16.575  0.00  0.00    +0.000 C 
ATOM     32  C   UNL     1      -2.220  10.072  18.089  0.00  0.00    +0.000 C 
ENDBRANCH  30  32
ENDBRANCH  29  30
ENDBRANCH  20  29
ENDBRANCH  19  20
ENDBRANCH   1  19
TORSDOF 7
ENDMDL
MODEL 6
REMARK VINA RESULT:      -8.8      1.972      2.446
REMARK  Name = 
REMARK  10 active torsions:
REMARK  status: ('A' for Active; 'I' for Inactive)
REMARK    1  A    between atoms: C_1  and  C_2
REMARK    2  A    between atoms: C_2  and  C_3
REMARK    3  A    between atoms: C_3  and  C_4
REMARK    4  A    between atoms: C_4  and  N_5
REMARK    5  A    between atoms: N_5  and  C_6
REMARK    6  A    between atoms: C_6  and  C_7
REMARK    7  A    between atoms: C_10  and  C_11
REMARK    8  A    between atoms: C_16  and  C_17
REMARK    9  A    between atoms: C_26  and  C_27
REMARK   10  A    between atoms: C_29  and  C_30
REMARK                            x       y       z     vdW  Elec       q    Type
REMARK                         _______ _______ _______ _____ _____    ______ ____
ROOT
ATOM      1  C   UNL     1       2.793   6.598  19.408  0.00  0.00    +0.000 A 
ATOM      2  C   UNL     1       2.754   7.367  18.245  0.00  0.00    +0.000 A 
ATOM      3  C   UNL     1       2.126   8.618  18.248  0.00  0.00    +0.000 A 
ATOM      4  C   UNL     1       1.468   9.120  19.388  0.00  0.00    +0.000 A 
ATOM      5  C   UNL     1       1.280   8.206  20.438  0.00  0.00    +0.000 A 
ATOM      6  C   UNL     1       1.968   6.984  20.471  0.00  0.00    +0.000 A 
ENDROOT
BRANCH   4   7
ATOM      7  C   UNL     1       1.086  10.566  19.489  0.00  0.00    +0.000 A 
ATOM      8  C   UNL     1       1.397  11.425  18.401  0.00  0.00    +0.000 A 
ATOM      9  C   UNL     1       1.154  12.802  18.433  0.00  0.00    +0.000 A 
ATOM     10  C   UNL     1       0.552  13.376  19.539  0.00  0.00    +0.000 A 
ATOM     11  C   UNL     1       0.221  12.568  20.621  0.00  0.00    +0.000 A 
ATOM     12  C   UNL     1       0.499  11.176  20.632  0.00  0.00    +0.000 A 
BRANCH  12  13
ATOM     13  C   UNL     1       0.184  10.475  21.877  0.00  0.00    +0.000 A 
ATOM     14  N   UNL     1       1.119  10.111  22.819  0.00  0.00    +0.000 NA
ATOM     15  N   UNL     1       0.478   9.440  23.765  0.00  0.00    +0.000 NA
ATOM     16  N   UNL     1      -0.806   9.489  23.398  0.00  0.00    +0.000 N 
ATOM     17  N   UNL     1      -1.065  10.128  22.248  0.00  0.00    +0.000 NA
ATOM     18  H   UNL     1      -1.535   9.064  23.958  0.00  0.00    +0.000 HD
ENDBRANCH  12  13
ENDBRANCH   4   7
BRANCH   1  19
ATOM     19  C   UNL     1       3.712   5.396  19.523  0.00  0.00    +0.000 C 
BRANCH  19  20
ATOM     20  N   UNL     1       3.819   4.597  18.281  0.00  0.00    +0.000 N 
ATOM     21  C   UNL     1       4.922   4.950  17.464  0.00  0.00    +0.000 A 
ATOM     22  C   UNL     1       5.192   4.252  16.294  0.00  0.00    +0.000 A 
ATOM     23  C   UNL     1       6.234   4.678  15.493  0.00  0.00    +0.000 A 
ATOM     24  C   UNL     1       6.508   4.023  14.173  0.00  0.00    +0.000 C 
ATOM     25  N   UNL     1       7.029   5.702  15.838  0.00  0.00    +0.000 NA
ATOM     26  C   UNL     1       6.749   6.303  17.004  0.00  0.00    +0.000 A 
ATOM     27  C   UNL     1       7.647   7.426  17.426  0.00  0.00    +0.000 C 
ATOM     28  N   UNL     1       5.730   5.976  17.823  0.00  0.00    +0.000 NA
BRANCH  20  29
ATOM     29  C   UNL     1       2.647   4.083  17.530  0.00  0.00    +0.000 C 
BRANCH  29  30
ATOM     30  C   UNL     1       1.951   2.825  18.034  0.00  0.00    +0.000 C 
BRANCH  30  32
ATOM     31  C   UNL     1       1.121   3.016  20.449  0.00  0.00    +0.000 C 
ATOM     32  C   UNL     1       0.762   3.109  18.972  0.00  0.00    +0.000 C 
ENDBRANCH  30  32
ENDBRANCH  29  30
ENDBRANCH  20  29
ENDBRANCH  19  20
ENDBRANCH   1  19
TORSDOF 7
ENDMDL
MODEL 7
REMARK VINA RESULT:      -8.8      2.182      8.997
REMARK  Name = 
REMARK  10 active torsions:
REMARK  status: ('A' for Active; 'I' for Inactive)
REMARK    1  A    between atoms: C_1  and  C_2
REMARK    2  A    between atoms: C_2  and  C_3
REMARK    3  A    between atoms: C_3  and  C_4
REMARK    4  A    between atoms: C_4  and  N_5
REMARK    5  A    between atoms: N_5  and  C_6
REMARK    6  A    between atoms: C_6  and  C_7
REMARK    7  A    between atoms: C_10  and  C_11
REMARK    8  A    between atoms: C_16  and  C_17
REMARK    9  A    between atoms: C_26  and  C_27
REMARK   10  A    between atoms: C_29  and  C_30
REMARK                            x       y       z     vdW  Elec       q    Type
REMARK                         _______ _______ _______ _____ _____    ______ ____
ROOT
ATOM      1  C   UNL     1       1.798   8.939  18.623  0.00  0.00    +0.000 A 
ATOM      2  C   UNL     1       2.469   8.043  17.790  0.00  0.00    +0.000 A 
ATOM      3  C   UNL     1       2.732   6.739  18.225  0.00  0.00    +0.000 A 
ATOM      4  C   UNL     1       2.388   6.300  19.518  0.00  0.00    +0.000 A 
ATOM      5  C   UNL     1       1.982   7.300  20.417  0.00  0.00    +0.000 A 
ATOM      6  C   UNL     1       1.647   8.587  19.970  0.00  0.00    +0.000 A 
ENDROOT
BRANCH   4   7
ATOM      7  C   UNL     1       2.375   4.841  19.864  0.00  0.00    +0.000 A 
ATOM      8  C   UNL     1       1.228   4.311  20.514  0.00  0.00    +0.000 A 
ATOM      9  C   UNL     1       1.153   2.983  20.948  0.00  0.00    +0.000 A 
ATOM     10  C   UNL     1       2.206   2.116  20.716  0.00  0.00    +0.000 A 
ATOM     11  C   UNL     1       3.342   2.591  20.072  0.00  0.00    +0.000 A 
ATOM     12  C   UNL     1       3.462   3.945  19.662  0.00  0.00    +0.000 A 
BRANCH  12  13
ATOM     13  C   UNL     1       4.753   4.323  19.088  0.00  0.00    +0.000 A 
ATOM     14  N   UNL     1       5.096   4.147  17.767  0.00  0.00    +0.000 NA
ATOM     15  N   UNL     1       6.355   4.538  17.635  0.00  0.00    +0.000 NA
ATOM     16  N   UNL     1       6.691   4.996  18.845  0.00  0.00    +0.000 N 
ATOM     17  N   UNL     1       5.744   4.910  19.790  0.00  0.00    +0.000 NA
ATOM     18  H   UNL     1       7.609   5.380  19.031  0.00  0.00    +0.000 HD
ENDBRANCH  12  13
ENDBRANCH   4   7
BRANCH   1  19
ATOM     19  C   UNL     1       1.234  10.240  18.084  0.00  0.00    +0.000 C 
BRANCH  19  20
ATOM     20  N   UNL     1       0.549  11.069  19.101  0.00  0.00    +0.000 N 
ATOM     21  C   UNL     1      -0.843  11.220  18.878  0.00  0.00    +0.000 A 
ATOM     22  C   UNL     1      -1.635  11.919  19.778  0.00  0.00    +0.000 A 
ATOM     23  C   UNL     1      -2.973  12.102  19.480  0.00  0.00    +0.000 A 
ATOM     24  C   UNL     1      -3.852  12.931  20.367  0.00  0.00    +0.000 C 
ATOM     25  N   UNL     1      -3.540  11.575  18.386  0.00  0.00    +0.000 NA
ATOM     26  C   UNL     1      -2.733  10.866  17.582  0.00  0.00    +0.000 A 
ATOM     27  C   UNL     1      -3.356  10.238  16.372  0.00  0.00    +0.000 C 
ATOM     28  N   UNL     1      -1.414  10.674  17.778  0.00  0.00    +0.000 NA
BRANCH  20  29
ATOM     29  C   UNL     1       1.183  12.224  19.785  0.00  0.00    +0.000 C 
BRANCH  29  30
ATOM     30  C   UNL     1       2.017  13.194  18.958  0.00  0.00    +0.000 C 
BRANCH  30  32
ATOM     31  C   UNL     1       0.124  14.913  18.812  0.00  0.00    +0.000 C 
ATOM     32  C   UNL     1       1.596  14.666  19.121  0.00  0.00    +0.000 C 
ENDBRANCH  30  32
ENDBRANCH  29  30
ENDBRANCH  20  29
ENDBRANCH  19  20
ENDBRANCH   1  19
TORSDOF 7
ENDMDL
MODEL 8
REMARK VINA RESULT:      -8.6      1.776      8.040
REMARK  Name = 
REMARK  10 active torsions:
REMARK  status: ('A' for Active; 'I' for Inactive)
REMARK    1  A    between atoms: C_1  and  C_2
REMARK    2  A    between atoms: C_2  and  C_3
REMARK    3  A    between atoms: C_3  and  C_4
REMARK    4  A    between atoms: C_4  and  N_5
REMARK    5  A    between atoms: N_5  and  C_6
REMARK    6  A    between atoms: C_6  and  C_7
REMARK    7  A    between atoms: C_10  and  C_11
REMARK    8  A    between atoms: C_16  and  C_17
REMARK    9  A    between atoms: C_26  and  C_27
REMARK   10  A    between atoms: C_29  and  C_30
REMARK                            x       y       z     vdW  Elec       q    Type
REMARK                         _______ _______ _______ _____ _____    ______ ____
ROOT
ATOM      1  C   UNL     1       1.313   9.463  19.578  0.00  0.00    +0.000 A 
ATOM      2  C   UNL     1       1.718   9.297  18.253  0.00  0.00    +0.000 A 
ATOM      3  C   UNL     1       2.188   8.055  17.811  0.00  0.00    +0.000 A 
ATOM      4  C   UNL     1       2.323   6.955  18.680  0.00  0.00    +0.000 A 
ATOM      5  C   UNL     1       2.182   7.236  20.050  0.00  0.00    +0.000 A 
ATOM      6  C   UNL     1       1.642   8.454  20.491  0.00  0.00    +0.000 A 
ENDROOT
BRANCH   4   7
ATOM      7  C   UNL     1       2.512   5.565  18.150  0.00  0.00    +0.000 A 
ATOM      8  C   UNL     1       1.446   4.637  18.292  0.00  0.00    +0.000 A 
ATOM      9  C   UNL     1       1.555   3.298  17.903  0.00  0.00    +0.000 A 
ATOM     10  C   UNL     1       2.720   2.837  17.317  0.00  0.00    +0.000 A 
ATOM     11  C   UNL     1       3.783   3.717  17.148  0.00  0.00    +0.000 A 
ATOM     12  C   UNL     1       3.715   5.068  17.576  0.00  0.00    +0.000 A 
BRANCH  12  13
ATOM     13  C   UNL     1       4.944   5.846  17.423  0.00  0.00    +0.000 A 
ATOM     14  N   UNL     1       5.249   6.606  16.317  0.00  0.00    +0.000 NA
ATOM     15  N   UNL     1       6.462   7.102  16.507  0.00  0.00    +0.000 NA
ATOM     16  N   UNL     1       6.805   6.688  17.730  0.00  0.00    +0.000 N 
ATOM     17  N   UNL     1       5.907   5.920  18.364  0.00  0.00    +0.000 NA
ATOM     18  H   UNL     1       7.693   6.941  18.147  0.00  0.00    +0.000 HD
ENDBRANCH  12  13
ENDBRANCH   4   7
BRANCH   1  19
ATOM     19  C   UNL     1       0.526  10.686  20.010  0.00  0.00    +0.000 C 
BRANCH  19  20
ATOM     20  N   UNL     1       0.473  11.760  18.991  0.00  0.00    +0.000 N 
ATOM     21  C   UNL     1       1.370  12.830  19.236  0.00  0.00    +0.000 A 
ATOM     22  C   UNL     1       1.480  13.884  18.340  0.00  0.00    +0.000 A 
ATOM     23  C   UNL     1       2.314  14.940  18.658  0.00  0.00    +0.000 A 
ATOM     24  C   UNL     1       2.397  16.148  17.774  0.00  0.00    +0.000 C 
ATOM     25  N   UNL     1       3.062  14.950  19.771  0.00  0.00    +0.000 NA
ATOM     26  C   UNL     1       2.950  13.880  20.571  0.00  0.00    +0.000 A 
ATOM     27  C   UNL     1       3.805  13.854  21.801  0.00  0.00    +0.000 C 
ATOM     28  N   UNL     1       2.133  12.830  20.355  0.00  0.00    +0.000 NA
BRANCH  20  29
ATOM     29  C   UNL     1      -0.767  12.157  18.279  0.00  0.00    +0.000 C 
BRANCH  29  30
ATOM     30  C   UNL     1      -1.937  11.183  18.250  0.00  0.00    +0.000 C 
BRANCH  30  32
ATOM     31  C   UNL     1      -3.034   9.863  16.349  0.00  0.00    +0.000 C 
ATOM     32  C   UNL     1      -1.787  10.066  17.200  0.00  0.00    +0.000 C 
ENDBRANCH  30  32
ENDBRANCH  29  30
ENDBRANCH  20  29
ENDBRANCH  19  20
ENDBRANCH   1  19
TORSDOF 7
ENDMDL
MODEL 9
REMARK VINA RESULT:      -8.6      1.939      8.753
REMARK  Name = 
REMARK  10 active torsions:
REMARK  status: ('A' for Active; 'I' for Inactive)
REMARK    1  A    between atoms: C_1  and  C_2
REMARK    2  A    between atoms: C_2  and  C_3
REMARK    3  A    between atoms: C_3  and  C_4
REMARK    4  A    between atoms: C_4  and  N_5
REMARK    5  A    between atoms: N_5  and  C_6
REMARK    6  A    between atoms: C_6  and  C_7
REMARK    7  A    between atoms: C_10  and  C_11
REMARK    8  A    between atoms: C_16  and  C_17
REMARK    9  A    between atoms: C_26  and  C_27
REMARK   10  A    between atoms: C_29  and  C_30
REMARK                            x       y       z     vdW  Elec       q    Type
REMARK                         _______ _______ _______ _____ _____    ______ ____
ROOT
ATOM      1  C   UNL     1       1.387   9.632  19.507  0.00  0.00    +0.000 A 
ATOM      2  C   UNL     1       1.881   9.436  18.218  0.00  0.00    +0.000 A 
ATOM      3  C   UNL     1       2.306   8.166  17.811  0.00  0.00    +0.000 A 
ATOM      4  C   UNL     1       2.307   7.064  18.688  0.00  0.00    +0.000 A 
ATOM      5  C   UNL     1       2.080   7.358  20.043  0.00  0.00    +0.000 A 
ATOM      6  C   UNL     1       1.583   8.608  20.442  0.00  0.00    +0.000 A 
ENDROOT
BRANCH   4   7
ATOM      7  C   UNL     1       2.450   5.663  18.172  0.00  0.00    +0.000 A 
ATOM      8  C   UNL     1       1.383   4.751  18.388  0.00  0.00    +0.000 A 
ATOM      9  C   UNL     1       1.455   3.404  18.016  0.00  0.00    +0.000 A 
ATOM     10  C   UNL     1       2.581   2.919  17.376  0.00  0.00    +0.000 A 
ATOM     11  C   UNL     1       3.644   3.782  17.135  0.00  0.00    +0.000 A 
ATOM     12  C   UNL     1       3.615   5.141  17.543  0.00  0.00    +0.000 A 
BRANCH  12  13
ATOM     13  C   UNL     1       4.843   5.901  17.310  0.00  0.00    +0.000 A 
ATOM     14  N   UNL     1       5.894   5.967  18.197  0.00  0.00    +0.000 NA
ATOM     15  N   UNL     1       6.789   6.796  17.680  0.00  0.00    +0.000 NA
ATOM     16  N   UNL     1       6.283   7.133  16.490  0.00  0.00    +0.000 N 
ATOM     17  N   UNL     1       5.089   6.604  16.186  0.00  0.00    +0.000 NA
ATOM     18  H   UNL     1       6.777   7.755  15.860  0.00  0.00    +0.000 HD
ENDBRANCH  12  13
ENDBRANCH   4   7
BRANCH   1  19
ATOM     19  C   UNL     1       0.646  10.903  19.879  0.00  0.00    +0.000 C 
BRANCH  19  20
ATOM     20  N   UNL     1      -0.711  11.002  19.295  0.00  0.00    +0.000 N 
ATOM     21  C   UNL     1      -1.593  11.838  20.025  0.00  0.00    +0.000 A 
ATOM     22  C   UNL     1      -2.882  12.080  19.573  0.00  0.00    +0.000 A 
ATOM     23  C   UNL     1      -3.728  12.842  20.356  0.00  0.00    +0.000 A 
ATOM     24  C   UNL     1      -5.159  13.053  19.963  0.00  0.00    +0.000 C 
ATOM     25  N   UNL     1      -3.326  13.404  21.505  0.00  0.00    +0.000 NA
ATOM     26  C   UNL     1      -2.053  13.176  21.863  0.00  0.00    +0.000 A 
ATOM     27  C   UNL     1      -1.572  13.826  23.125  0.00  0.00    +0.000 C 
ATOM     28  N   UNL     1      -1.177  12.415  21.178  0.00  0.00    +0.000 NA
BRANCH  20  29
ATOM     29  C   UNL     1      -1.383   9.887  18.582  0.00  0.00    +0.000 C 
BRANCH  29  30
ATOM     30  C   UNL     1      -1.495   9.953  17.064  0.00  0.00    +0.000 C 
BRANCH  30  32
ATOM     31  C   UNL     1      -3.051   9.992  15.030  0.00  0.00    +0.000 C 
ATOM     32  C   UNL     1      -2.945   9.900  16.547  0.00  0.00    +0.000 C 
ENDBRANCH  30  32
ENDBRANCH  29  30
ENDBRANCH  20  29
ENDBRANCH  19  20
ENDBRANCH   1  19
TORSDOF 7
ENDMDL
