MODEL 1
REMARK VINA RESULT:      -7.6      0.000      0.000
REMARK  Name = 
REMARK  8 active torsions:
REMARK  status: ('A' for Active; 'I' for Inactive)
REMARK    1  A    between atoms: C_1  and  C_2
REMARK    2  A    between atoms: C_2  and  C_3
REMARK    3  A    between atoms: C_2  and  N_4
REMARK    4  A    between atoms: C_8  and  C_9
REMARK    5  A    between atoms: C_12  and  C_13
REMARK    6  A    between atoms: C_13  and  N_14
REMARK    7  A    between atoms: N_14  and  C_15
REMARK    8  A    between atoms: N_14  and  C_16
REMARK                            x       y       z     vdW  Elec       q    Type
REMARK                         _______ _______ _______ _____ _____    ______ ____
ROOT
ATOM      1  C   UNL     1       4.423   4.412  17.010  0.00  0.00    +0.000 A 
ATOM      2  C   UNL     1       3.458   5.368  17.340  0.00  0.00    +0.000 A 
ATOM      3  C   UNL     1       2.328   5.029  18.100  0.00  0.00    +0.000 A 
ATOM      4  C   UNL     1       2.151   3.727  18.571  0.00  0.00    +0.000 A 
ATOM      5  C   UNL     1       3.139   2.778  18.299  0.00  0.00    +0.000 A 
ATOM      6  C   UNL     1       4.255   3.117  17.523  0.00  0.00    +0.000 A 
ENDROOT
BRANCH   1  11
ATOM      7  N   UNL     1       6.680   5.533  16.478  0.00  0.00    +0.000 N 
ATOM      8  N   UNL     1       7.576   5.621  15.466  0.00  0.00    +0.000 NA
ATOM      9  C   UNL     1       7.048   4.894  14.488  0.00  0.00    +0.000 A 
ATOM     10  C   UNL     1       5.850   4.286  14.878  0.00  0.00    +0.000 A 
ATOM     11  C   UNL     1       5.604   4.708  16.180  0.00  0.00    +0.000 A 
BRANCH   7  13
ATOM     12  C   UNL     1       7.762   5.539  18.703  0.00  0.00    +0.000 C 
ATOM     13  C   UNL     1       6.938   6.328  17.681  0.00  0.00    +0.000 C 
ATOM     14  C   UNL     1       7.642   7.658  17.376  0.00  0.00    +0.000 C 
ENDBRANCH   7  13
ENDBRANCH   1  11
BRANCH   4  15
ATOM     15  C   UNL     1       0.930   3.355  19.387  0.00  0.00    +0.000 C 
BRANCH  15  16
ATOM     16  N   UNL     1       1.054   3.660  20.827  0.00  0.00    +0.000 NA
ATOM     17  C   UNL     1       1.569   2.519  21.587  0.00  0.00    +0.000 C 
ATOM     18  C   UNL     1       1.947   4.809  21.005  0.00  0.00    +0.000 C 
ENDBRANCH  15  16
ENDBRANCH   4  15
TORSDOF 4
ENDMDL
MODEL 2
REMARK VINA RESULT:      -7.2      0.518      1.157
REMARK  Name = 
REMARK  8 active torsions:
REMARK  status: ('A' for Active; 'I' for Inactive)
REMARK    1  A    between atoms: C_1  and  C_2
REMARK    2  A    between atoms: C_2  and  C_3
REMARK    3  A    between atoms: C_2  and  N_4
REMARK    4  A    between atoms: C_8  and  C_9
REMARK    5  A    between atoms: C_12  and  C_13
REMARK    6  A    between atoms: C_13  and  N_14
REMARK    7  A    between atoms: N_14  and  C_15
REMARK    8  A    between atoms: N_14  and  C_16
REMARK                            x       y       z     vdW  Elec       q    Type
REMARK                         _______ _______ _______ _____ _____    ______ ____
ROOT
ATOM      1  C   UNL     1       4.515   3.976  17.136  0.00  0.00    +0.000 A 
ATOM      2  C   UNL     1       4.621   2.991  18.123  0.00  0.00    +0.000 A 
ATOM      3  C   UNL     1       3.516   2.630  18.910  0.00  0.00    +0.000 A 
ATOM      4  C   UNL     1       2.271   3.228  18.708  0.00  0.00    +0.000 A 
ATOM      5  C   UNL     1       2.141   4.169  17.684  0.00  0.00    +0.000 A 
ATOM      6  C   UNL     1       3.251   4.541  16.915  0.00  0.00    +0.000 A 
ENDROOT
BRANCH   1  11
ATOM      7  N   UNL     1       6.596   5.398  16.605  0.00  0.00    +0.000 N 
ATOM      8  N   UNL     1       7.486   5.592  15.601  0.00  0.00    +0.000 NA
ATOM      9  C   UNL     1       7.083   4.775  14.635  0.00  0.00    +0.000 A 
ATOM     10  C   UNL     1       5.979   4.011  15.025  0.00  0.00    +0.000 A 
ATOM     11  C   UNL     1       5.655   4.421  16.313  0.00  0.00    +0.000 A 
BRANCH   7  13
ATOM     12  C   UNL     1       7.328   5.476  18.967  0.00  0.00    +0.000 C 
ATOM     13  C   UNL     1       6.719   6.247  17.792  0.00  0.00    +0.000 C 
ATOM     14  C   UNL     1       7.544   7.516  17.532  0.00  0.00    +0.000 C 
ENDBRANCH   7  13
ENDBRANCH   1  11
BRANCH   4  15
ATOM     15  C   UNL     1       1.078   2.844  19.558  0.00  0.00    +0.000 C 
BRANCH  15  16
ATOM     16  N   UNL     1       1.058   3.483  20.890  0.00  0.00    +0.000 NA
ATOM     17  C   UNL     1       1.843   2.731  21.871  0.00  0.00    +0.000 C 
ATOM     18  C   UNL     1       1.586   4.846  20.783  0.00  0.00    +0.000 C 
ENDBRANCH  15  16
ENDBRANCH   4  15
TORSDOF 4
ENDMDL
MODEL 3
REMARK VINA RESULT:      -7.1      0.768      1.810
REMARK  Name = 
REMARK  8 active torsions:
REMARK  status: ('A' for Active; 'I' for Inactive)
REMARK    1  A    between atoms: C_1  and  C_2
REMARK    2  A    between atoms: C_2  and  C_3
REMARK    3  A    between atoms: C_2  and  N_4
REMARK    4  A    between atoms: C_8  and  C_9
REMARK    5  A    between atoms: C_12  and  C_13
REMARK    6  A    between atoms: C_13  and  N_14
REMARK    7  A    between atoms: N_14  and  C_15
REMARK    8  A    between atoms: N_14  and  C_16
REMARK                            x       y       z     vdW  Elec       q    Type
REMARK                         _______ _______ _______ _____ _____    ______ ____
ROOT
ATOM      1  C   UNL     1       4.751   4.757  17.429  0.00  0.00    +0.000 A 
ATOM      2  C   UNL     1       4.769   3.780  18.429  0.00  0.00    +0.000 A 
ATOM      3  C   UNL     1       3.837   3.797  19.477  0.00  0.00    +0.000 A 
ATOM      4  C   UNL     1       2.846   4.777  19.536  0.00  0.00    +0.000 A 
ATOM      5  C   UNL     1       2.781   5.723  18.508  0.00  0.00    +0.000 A 
ATOM      6  C   UNL     1       3.726   5.714  17.475  0.00  0.00    +0.000 A 
ENDROOT
BRANCH   1  11
ATOM      7  N   UNL     1       6.940   5.493  16.288  0.00  0.00    +0.000 N 
ATOM      8  N   UNL     1       7.579   5.365  15.100  0.00  0.00    +0.000 NA
ATOM      9  C   UNL     1       6.755   4.640  14.354  0.00  0.00    +0.000 A 
ATOM     10  C   UNL     1       5.616   4.247  15.065  0.00  0.00    +0.000 A 
ATOM     11  C   UNL     1       5.733   4.809  16.331  0.00  0.00    +0.000 A 
BRANCH   7  13
ATOM     12  C   UNL     1       6.816   7.669  17.458  0.00  0.00    +0.000 C 
ATOM     13  C   UNL     1       7.565   6.342  17.305  0.00  0.00    +0.000 C 
ATOM     14  C   UNL     1       7.667   5.653  18.673  0.00  0.00    +0.000 C 
ENDBRANCH   7  13
ENDBRANCH   1  11
BRANCH   4  15
ATOM     15  C   UNL     1       1.841   4.801  20.669  0.00  0.00    +0.000 C 
BRANCH  15  16
ATOM     16  N   UNL     1       0.995   3.593  20.747  0.00  0.00    +0.000 NA
ATOM     17  C   UNL     1       0.825   2.957  19.439  0.00  0.00    +0.000 C 
ATOM     18  C   UNL     1       1.598   2.638  21.681  0.00  0.00    +0.000 C 
ENDBRANCH  15  16
ENDBRANCH   4  15
TORSDOF 4
ENDMDL
MODEL 4
REMARK VINA RESULT:      -7.1      0.900      1.552
REMARK  Name = 
REMARK  8 active torsions:
REMARK  status: ('A' for Active; 'I' for Inactive)
REMARK    1  A    between atoms: C_1  and  C_2
REMARK    2  A    between atoms: C_2  and  C_3
REMARK    3  A    between atoms: C_2  and  N_4
REMARK    4  A    between atoms: C_8  and  C_9
REMARK    5  A    between atoms: C_12  and  C_13
REMARK    6  A    between atoms: C_13  and  N_14
REMARK    7  A    between atoms: N_14  and  C_15
REMARK    8  A    between atoms: N_14  and  C_16
REMARK                            x       y       z     vdW  Elec       q    Type
REMARK                         _______ _______ _______ _____ _____    ______ ____
ROOT
ATOM      1  C   UNL     1       4.583   4.842  17.713  0.00  0.00    +0.000 A 
ATOM      2  C   UNL     1       4.732   4.187  18.940  0.00  0.00    +0.000 A 
ATOM      3  C   UNL     1       3.665   4.088  19.845  0.00  0.00    +0.000 A 
ATOM      4  C   UNL     1       2.413   4.619  19.532  0.00  0.00    +0.000 A 
ATOM      5  C   UNL     1       2.236   5.221  18.283  0.00  0.00    +0.000 A 
ATOM      6  C   UNL     1       3.310   5.336  17.391  0.00  0.00    +0.000 A 
ENDROOT
BRANCH   1  11
ATOM      7  N   UNL     1       6.787   5.848  16.838  0.00  0.00    +0.000 N 
ATOM      8  N   UNL     1       7.586   5.791  15.745  0.00  0.00    +0.000 NA
ATOM      9  C   UNL     1       6.966   4.955  14.921  0.00  0.00    +0.000 A 
ATOM     10  C   UNL     1       5.806   4.423  15.493  0.00  0.00    +0.000 A 
ATOM     11  C   UNL     1       5.684   5.010  16.747  0.00  0.00    +0.000 A 
BRANCH   7  13
ATOM     12  C   UNL     1       7.997   6.094  18.982  0.00  0.00    +0.000 C 
ATOM     13  C   UNL     1       7.160   6.784  17.902  0.00  0.00    +0.000 C 
ATOM     14  C   UNL     1       7.918   8.011  17.375  0.00  0.00    +0.000 C 
ENDBRANCH   7  13
ENDBRANCH   1  11
BRANCH   4  15
ATOM     15  C   UNL     1       1.259   4.518  20.508  0.00  0.00    +0.000 C 
BRANCH  15  16
ATOM     16  N   UNL     1       0.736   3.147  20.679  0.00  0.00    +0.000 NA
ATOM     17  C   UNL     1       0.769   2.387  19.428  0.00  0.00    +0.000 C 
ATOM     18  C   UNL     1       1.525   2.449  21.697  0.00  0.00    +0.000 C 
ENDBRANCH  15  16
ENDBRANCH   4  15
TORSDOF 4
ENDMDL
MODEL 5
REMARK VINA RESULT:      -7.0      0.922      1.254
REMARK  Name = 
REMARK  8 active torsions:
REMARK  status: ('A' for Active; 'I' for Inactive)
REMARK    1  A    between atoms: C_1  and  C_2
REMARK    2  A    between atoms: C_2  and  C_3
REMARK    3  A    between atoms: C_2  and  N_4
REMARK    4  A    between atoms: C_8  and  C_9
REMARK    5  A    between atoms: C_12  and  C_13
REMARK    6  A    between atoms: C_13  and  N_14
REMARK    7  A    between atoms: N_14  and  C_15
REMARK    8  A    between atoms: N_14  and  C_16
REMARK                            x       y       z     vdW  Elec       q    Type
REMARK                         _______ _______ _______ _____ _____    ______ ____
ROOT
ATOM      1  C   UNL     1       4.496   5.038  17.702  0.00  0.00    +0.000 A 
ATOM      2  C   UNL     1       3.301   5.748  17.554  0.00  0.00    +0.000 A 
ATOM      3  C   UNL     1       2.243   5.589  18.461  0.00  0.00    +0.000 A 
ATOM      4  C   UNL     1       2.366   4.733  19.557  0.00  0.00    +0.000 A 
ATOM      5  C   UNL     1       3.578   4.065  19.749  0.00  0.00    +0.000 A 
ATOM      6  C   UNL     1       4.624   4.212  18.829  0.00  0.00    +0.000 A 
ENDROOT
BRANCH   1  11
ATOM      7  N   UNL     1       6.769   5.908  16.860  0.00  0.00    +0.000 N 
ATOM      8  N   UNL     1       7.580   5.801  15.779  0.00  0.00    +0.000 NA
ATOM      9  C   UNL     1       6.924   5.001  14.948  0.00  0.00    +0.000 A 
ATOM     10  C   UNL     1       5.726   4.540  15.503  0.00  0.00    +0.000 A 
ATOM     11  C   UNL     1       5.620   5.138  16.754  0.00  0.00    +0.000 A 
BRANCH   7  13
ATOM     12  C   UNL     1       8.035   6.108  18.976  0.00  0.00    +0.000 C 
ATOM     13  C   UNL     1       7.180   6.824  17.927  0.00  0.00    +0.000 C 
ATOM     14  C   UNL     1       7.941   8.049  17.399  0.00  0.00    +0.000 C 
ENDBRANCH   7  13
ENDBRANCH   1  11
BRANCH   4  15
ATOM     15  C   UNL     1       1.224   4.555  20.536  0.00  0.00    +0.000 C 
BRANCH  15  16
ATOM     16  N   UNL     1       0.729   3.167  20.634  0.00  0.00    +0.000 NA
ATOM     17  C   UNL     1       0.815   2.462  19.354  0.00  0.00    +0.000 C 
ATOM     18  C   UNL     1       1.505   2.443  21.644  0.00  0.00    +0.000 C 
ENDBRANCH  15  16
ENDBRANCH   4  15
TORSDOF 4
ENDMDL
MODEL 6
REMARK VINA RESULT:      -7.0      4.033      6.043
REMARK  Name = 
REMARK  8 active torsions:
REMARK  status: ('A' for Active; 'I' for Inactive)
REMARK    1  A    between atoms: C_1  and  C_2
REMARK    2  A    between atoms: C_2  and  C_3
REMARK    3  A    between atoms: C_2  and  N_4
REMARK    4  A    between atoms: C_8  and  C_9
REMARK    5  A    between atoms: C_12  and  C_13
REMARK    6  A    between atoms: C_13  and  N_14
REMARK    7  A    between atoms: N_14  and  C_15
REMARK    8  A    between atoms: N_14  and  C_16
REMARK                            x       y       z     vdW  Elec       q    Type
REMARK                         _______ _______ _______ _____ _____    ______ ____
ROOT
ATOM      1  C   UNL     1       2.783   6.906  18.927  0.00  0.00    +0.000 A 
ATOM      2  C   UNL     1       2.778   7.732  17.799  0.00  0.00    +0.000 A 
ATOM      3  C   UNL     1       2.050   8.932  17.781  0.00  0.00    +0.000 A 
ATOM      4  C   UNL     1       1.331   9.347  18.902  0.00  0.00    +0.000 A 
ATOM      5  C   UNL     1       1.379   8.559  20.056  0.00  0.00    +0.000 A 
ATOM      6  C   UNL     1       2.090   7.352  20.062  0.00  0.00    +0.000 A 
ENDROOT
BRANCH   1  11
ATOM      7  N   UNL     1       2.958   4.339  19.061  0.00  0.00    +0.000 N 
ATOM      8  N   UNL     1       3.903   3.372  19.144  0.00  0.00    +0.000 NA
ATOM      9  C   UNL     1       5.055   4.031  19.174  0.00  0.00    +0.000 A 
ATOM     10  C   UNL     1       4.869   5.412  19.050  0.00  0.00    +0.000 A 
ATOM     11  C   UNL     1       3.496   5.616  18.982  0.00  0.00    +0.000 A 
BRANCH   7  13
ATOM     12  C   UNL     1       1.357   2.554  18.457  0.00  0.00    +0.000 C 
ATOM     13  C   UNL     1       1.555   3.922  19.114  0.00  0.00    +0.000 C 
ATOM     14  C   UNL     1       0.998   3.887  20.545  0.00  0.00    +0.000 C 
ENDBRANCH   7  13
ENDBRANCH   1  11
BRANCH   4  15
ATOM     15  C   UNL     1       0.541  10.639  18.885  0.00  0.00    +0.000 C 
BRANCH  15  16
ATOM     16  N   UNL     1      -0.898  10.467  19.171  0.00  0.00    +0.000 NA
ATOM     17  C   UNL     1      -1.469  11.638  19.839  0.00  0.00    +0.000 C 
ATOM     18  C   UNL     1      -1.617  10.220  17.918  0.00  0.00    +0.000 C 
ENDBRANCH  15  16
ENDBRANCH   4  15
TORSDOF 4
ENDMDL
MODEL 7
REMARK VINA RESULT:      -6.9      3.990      6.164
REMARK  Name = 
REMARK  8 active torsions:
REMARK  status: ('A' for Active; 'I' for Inactive)
REMARK    1  A    between atoms: C_1  and  C_2
REMARK    2  A    between atoms: C_2  and  C_3
REMARK    3  A    between atoms: C_2  and  N_4
REMARK    4  A    between atoms: C_8  and  C_9
REMARK    5  A    between atoms: C_12  and  C_13
REMARK    6  A    between atoms: C_13  and  N_14
REMARK    7  A    between atoms: N_14  and  C_15
REMARK    8  A    between atoms: N_14  and  C_16
REMARK                            x       y       z     vdW  Elec       q    Type
REMARK                         _______ _______ _______ _____ _____    ______ ____
ROOT
ATOM      1  C   UNL     1       2.613   6.763  19.262  0.00  0.00    +0.000 A 
ATOM      2  C   UNL     1       1.968   7.283  20.388  0.00  0.00    +0.000 A 
ATOM      3  C   UNL     1       1.306   8.518  20.341  0.00  0.00    +0.000 A 
ATOM      4  C   UNL     1       1.251   9.253  19.155  0.00  0.00    +0.000 A 
ATOM      5  C   UNL     1       1.840   8.714  18.008  0.00  0.00    +0.000 A 
ATOM      6  C   UNL     1       2.517   7.489  18.066  0.00  0.00    +0.000 A 
ENDROOT
BRANCH   1  11
ATOM      7  N   UNL     1       2.869   4.209  19.483  0.00  0.00    +0.000 N 
ATOM      8  N   UNL     1       3.839   3.263  19.473  0.00  0.00    +0.000 NA
ATOM      9  C   UNL     1       4.967   3.944  19.310  0.00  0.00    +0.000 A 
ATOM     10  C   UNL     1       4.732   5.314  19.153  0.00  0.00    +0.000 A 
ATOM     11  C   UNL     1       3.358   5.490  19.271  0.00  0.00    +0.000 A 
BRANCH   7  13
ATOM     12  C   UNL     1       1.007   2.791  18.682  0.00  0.00    +0.000 C 
ATOM     13  C   UNL     1       1.497   3.769  19.752  0.00  0.00    +0.000 C 
ATOM     14  C   UNL     1       1.340   3.129  21.139  0.00  0.00    +0.000 C 
ENDBRANCH   7  13
ENDBRANCH   1  11
BRANCH   4  15
ATOM     15  C   UNL     1       0.541  10.590  19.101  0.00  0.00    +0.000 C 
BRANCH  15  16
ATOM     16  N   UNL     1      -0.894  10.522  19.439  0.00  0.00    +0.000 NA
ATOM     17  C   UNL     1      -1.324  11.668  20.243  0.00  0.00    +0.000 C 
ATOM     18  C   UNL     1      -1.683  10.468  18.205  0.00  0.00    +0.000 C 
ENDBRANCH  15  16
ENDBRANCH   4  15
TORSDOF 4
ENDMDL
MODEL 8
REMARK VINA RESULT:      -6.8      0.491      1.485
REMARK  Name = 
REMARK  8 active torsions:
REMARK  status: ('A' for Active; 'I' for Inactive)
REMARK    1  A    between atoms: C_1  and  C_2
REMARK    2  A    between atoms: C_2  and  C_3
REMARK    3  A    between atoms: C_2  and  N_4
REMARK    4  A    between atoms: C_8  and  C_9
REMARK    5  A    between atoms: C_12  and  C_13
REMARK    6  A    between atoms: C_13  and  N_14
REMARK    7  A    between atoms: N_14  and  C_15
REMARK    8  A    between atoms: N_14  and  C_16
REMARK                            x       y       z     vdW  Elec       q    Type
REMARK                         _______ _______ _______ _____ _____    ______ ____
ROOT
ATOM      1  C   UNL     1       4.395   4.258  16.851  0.00  0.00    +0.000 A 
ATOM      2  C   UNL     1       4.080   2.996  17.366  0.00  0.00    +0.000 A 
ATOM      3  C   UNL     1       2.988   2.815  18.227  0.00  0.00    +0.000 A 
ATOM      4  C   UNL     1       2.166   3.889  18.573  0.00  0.00    +0.000 A 
ATOM      5  C   UNL     1       2.435   5.142  18.015  0.00  0.00    +0.000 A 
ATOM      6  C   UNL     1       3.539   5.322  17.172  0.00  0.00    +0.000 A 
ENDROOT
BRANCH   1  11
ATOM      7  N   UNL     1       6.712   5.219  16.267  0.00  0.00    +0.000 N 
ATOM      8  N   UNL     1       7.562   5.298  15.214  0.00  0.00    +0.000 NA
ATOM      9  C   UNL     1       6.926   4.683  14.225  0.00  0.00    +0.000 A 
ATOM     10  C   UNL     1       5.700   4.154  14.641  0.00  0.00    +0.000 A 
ATOM     11  C   UNL     1       5.555   4.509  15.977  0.00  0.00    +0.000 A 
BRANCH   7  13
ATOM     12  C   UNL     1       6.532   7.332  17.541  0.00  0.00    +0.000 C 
ATOM     13  C   UNL     1       7.096   5.909  17.501  0.00  0.00    +0.000 C 
ATOM     14  C   UNL     1       6.662   5.152  18.764  0.00  0.00    +0.000 C 
ENDBRANCH   7  13
ENDBRANCH   1  11
BRANCH   4  15
ATOM     15  C   UNL     1       0.988   3.698  19.506  0.00  0.00    +0.000 C 
BRANCH  15  16
ATOM     16  N   UNL     1       1.322   3.864  20.935  0.00  0.00    +0.000 NA
ATOM     17  C   UNL     1       1.718   2.599  21.557  0.00  0.00    +0.000 C 
ATOM     18  C   UNL     1       2.409   4.837  21.071  0.00  0.00    +0.000 C 
ENDBRANCH  15  16
ENDBRANCH   4  15
TORSDOF 4
ENDMDL
MODEL 9
REMARK VINA RESULT:      -6.8      2.415      3.105
REMARK  Name = 
REMARK  8 active torsions:
REMARK  status: ('A' for Active; 'I' for Inactive)
REMARK    1  A    between atoms: C_1  and  C_2
REMARK    2  A    between atoms: C_2  and  C_3
REMARK    3  A    between atoms: C_2  and  N_4
REMARK    4  A    between atoms: C_8  and  C_9
REMARK    5  A    between atoms: C_12  and  C_13
REMARK    6  A    between atoms: C_13  and  N_14
REMARK    7  A    between atoms: N_14  and  C_15
REMARK    8  A    between atoms: N_14  and  C_16
REMARK                            x       y       z     vdW  Elec       q    Type
REMARK                         _______ _______ _______ _____ _____    ______ ____
ROOT
ATOM      1  C   UNL     1       4.420   5.820  17.736  0.00  0.00    +0.000 A 
ATOM      2  C   UNL     1       3.792   7.048  17.510  0.00  0.00    +0.000 A 
ATOM      3  C   UNL     1       2.818   7.540  18.392  0.00  0.00    +0.000 A 
ATOM      4  C   UNL     1       2.469   6.826  19.539  0.00  0.00    +0.000 A 
ATOM      5  C   UNL     1       3.135   5.626  19.807  0.00  0.00    +0.000 A 
ATOM      6  C   UNL     1       4.091   5.130  18.912  0.00  0.00    +0.000 A 
ENDROOT
BRANCH   1  11
ATOM      7  N   UNL     1       6.794   5.410  16.825  0.00  0.00    +0.000 N 
ATOM      8  N   UNL     1       7.412   4.770  15.804  0.00  0.00    +0.000 NA
ATOM      9  C   UNL     1       6.423   4.229  15.102  0.00  0.00    +0.000 A 
ATOM     10  C   UNL     1       5.177   4.461  15.692  0.00  0.00    +0.000 A 
ATOM     11  C   UNL     1       5.417   5.240  16.818  0.00  0.00    +0.000 A 
BRANCH   7  13
ATOM     12  C   UNL     1       7.344   7.699  17.586  0.00  0.00    +0.000 C 
ATOM     13  C   UNL     1       7.629   6.202  17.732  0.00  0.00    +0.000 C 
ATOM     14  C   UNL     1       7.464   5.792  19.202  0.00  0.00    +0.000 C 
ENDBRANCH   7  13
ENDBRANCH   1  11
BRANCH   4  15
ATOM     15  C   UNL     1       1.415   7.351  20.492  0.00  0.00    +0.000 C 
BRANCH  15  16
ATOM     16  N   UNL     1       1.496   8.805  20.734  0.00  0.00    +0.000 NA
ATOM     17  C   UNL     1       0.442   9.538  20.029  0.00  0.00    +0.000 C 
ATOM     18  C   UNL     1       1.394   9.066  22.173  0.00  0.00    +0.000 C 
ENDBRANCH  15  16
ENDBRANCH   4  15
TORSDOF 4
ENDMDL
