MODEL 1
REMARK VINA RESULT:      -8.5      0.000      0.000
REMARK  Name = 
REMARK  9 active torsions:
REMARK  status: ('A' for Active; 'I' for Inactive)
REMARK    1  A    between atoms: C_2  and  C_14
REMARK    2  A    between atoms: N_3  and  C_4
REMARK    3  A    between atoms: C_4  and  C_5
REMARK    4  A    between atoms: C_16  and  C_17
REMARK    5  A    between atoms: C_24  and  O_25
REMARK    6  A    between atoms: O_25  and  C_26
REMARK    7  A    between atoms: C_26  and  C_27
REMARK    8  A    between atoms: C_30  and  C_31
REMARK    9  A    between atoms: C_31  and  O_32
REMARK                            x       y       z     vdW  Elec       q    Type
REMARK                         _______ _______ _______ _____ _____    ______ ____
ROOT
ATOM      1  C   UNL     1       1.521   8.983  19.633  0.00  0.00    +0.000 C 
ATOM      2  C   UNL     1       1.113   9.798  18.649  0.00  0.00    +0.000 C 
ATOM      3  C   UNL     1       0.510  11.144  18.905  0.00  0.00    +0.000 C 
ATOM      4  C   UNL     1       0.905  11.626  20.303  0.00  0.00    +0.000 C 
ATOM      5  C   UNL     1       0.799  10.507  21.344  0.00  0.00    +0.000 C 
ATOM      6  O   UNL     1       1.505   9.312  20.973  0.00  0.00    +0.000 OA
ENDROOT
BRANCH   3   7
ATOM      7  C   UNL     1      -0.996  11.140  18.650  0.00  0.00    +0.000 A 
ATOM      8  C   UNL     1      -1.848  12.093  19.241  0.00  0.00    +0.000 A 
ATOM      9  C   UNL     1      -3.225  12.061  19.036  0.00  0.00    +0.000 A 
ATOM     10  C   UNL     1      -3.779  11.080  18.227  0.00  0.00    +0.000 A 
ATOM     11  C   UNL     1      -2.953  10.133  17.616  0.00  0.00    +0.000 A 
ATOM     12  C   UNL     1      -1.570  10.164  17.825  0.00  0.00    +0.000 A 
ENDBRANCH   3   7
BRANCH   1  14
ATOM     13  O   UNL     1       1.969   7.223  18.062  0.00  0.00    +0.000 OA
ATOM     14  C   UNL     1       1.945   7.599  19.233  0.00  0.00    +0.000 C 
ATOM     15  N   UNL     1       2.251   6.772  20.280  0.00  0.00    +0.000 N 
ATOM     16  H   UNL     1       2.084   7.074  21.235  0.00  0.00    +0.000 HD
BRANCH  15  17
ATOM     17  C   UNL     1       2.501   5.377  20.030  0.00  0.00    +0.000 C 
BRANCH  17  18
ATOM     18  C   UNL     1       3.675   5.214  19.136  0.00  0.00    +0.000 A 
ATOM     19  N   UNL     1       4.950   5.396  19.432  0.00  0.00    +0.000 NA
ATOM     20  C   UNL     1       5.645   5.026  18.304  0.00  0.00    +0.000 A 
ATOM     21  C   UNL     1       7.027   4.984  18.073  0.00  0.00    +0.000 A 
ATOM     22  C   UNL     1       7.489   4.546  16.824  0.00  0.00    +0.000 A 
ATOM     23  C   UNL     1       6.591   4.164  15.824  0.00  0.00    +0.000 A 
ATOM     24  C   UNL     1       5.207   4.202  16.034  0.00  0.00    +0.000 A 
ATOM     25  C   UNL     1       4.778   4.638  17.291  0.00  0.00    +0.000 A 
ATOM     26  N   UNL     1       3.533   4.783  17.838  0.00  0.00    +0.000 N 
ATOM     27  H   UNL     1       2.656   4.574  17.378  0.00  0.00    +0.000 HD
ENDBRANCH  17  18
ENDBRANCH  15  17
ENDBRANCH   1  14
BRANCH   5  28
ATOM     28  O   UNL     1      -0.579  10.267  21.645  0.00  0.00    +0.000 OA
BRANCH  28  29
ATOM     29  C   UNL     1      -0.912  10.637  22.980  0.00  0.00    +0.000 C 
BRANCH  29  30
ATOM     30  C   UNL     1      -1.620  11.973  23.056  0.00  0.00    +0.000 A 
ATOM     31  C   UNL     1      -0.958  13.203  22.954  0.00  0.00    +0.000 A 
ATOM     32  C   UNL     1      -1.656  14.407  23.109  0.00  0.00    +0.000 A 
ATOM     33  C   UNL     1      -3.033  14.409  23.373  0.00  0.00    +0.000 A 
ATOM     34  C   UNL     1      -3.703  13.182  23.435  0.00  0.00    +0.000 A 
ATOM     35  C   UNL     1      -3.007  11.981  23.276  0.00  0.00    +0.000 A 
BRANCH  33  36
ATOM     36  C   UNL     1      -3.769  15.690  23.662  0.00  0.00    +0.000 C 
BRANCH  36  37
ATOM     37  O   UNL     1      -4.775  15.493  24.645  0.00  0.00    +0.000 OA
ATOM     38  H   UNL     1      -5.575  15.212  24.168  0.00  0.00    +0.000 HD
ENDBRANCH  36  37
ENDBRANCH  33  36
ENDBRANCH  29  30
ENDBRANCH  28  29
ENDBRANCH   5  28
TORSDOF 9
ENDMDL
MODEL 2
REMARK VINA RESULT:      -8.4      4.987      8.528
REMARK  Name = 
REMARK  9 active torsions:
REMARK  status: ('A' for Active; 'I' for Inactive)
REMARK    1  A    between atoms: C_2  and  C_14
REMARK    2  A    between atoms: N_3  and  C_4
REMARK    3  A    between atoms: C_4  and  C_5
REMARK    4  A    between atoms: C_16  and  C_17
REMARK    5  A    between atoms: C_24  and  O_25
REMARK    6  A    between atoms: O_25  and  C_26
REMARK    7  A    between atoms: C_26  and  C_27
REMARK    8  A    between atoms: C_30  and  C_31
REMARK    9  A    between atoms: C_31  and  O_32
REMARK                            x       y       z     vdW  Elec       q    Type
REMARK                         _______ _______ _______ _____ _____    ______ ____
ROOT
ATOM      1  C   UNL     1       6.939   6.842  17.448  0.00  0.00    +0.000 C 
ATOM      2  C   UNL     1       6.948   5.512  17.271  0.00  0.00    +0.000 C 
ATOM      3  C   UNL     1       5.866   4.782  16.537  0.00  0.00    +0.000 C 
ATOM      4  C   UNL     1       5.111   5.758  15.632  0.00  0.00    +0.000 C 
ATOM      5  C   UNL     1       4.822   7.085  16.340  0.00  0.00    +0.000 C 
ATOM      6  O   UNL     1       5.989   7.692  16.920  0.00  0.00    +0.000 OA
ENDROOT
BRANCH   3   7
ATOM      7  C   UNL     1       4.971   4.000  17.496  0.00  0.00    +0.000 A 
ATOM      8  C   UNL     1       5.274   3.891  18.866  0.00  0.00    +0.000 A 
ATOM      9  C   UNL     1       4.475   3.145  19.729  0.00  0.00    +0.000 A 
ATOM     10  C   UNL     1       3.349   2.500  19.240  0.00  0.00    +0.000 A 
ATOM     11  C   UNL     1       3.017   2.607  17.887  0.00  0.00    +0.000 A 
ATOM     12  C   UNL     1       3.822   3.355  17.021  0.00  0.00    +0.000 A 
ENDBRANCH   3   7
BRANCH   1  14
ATOM     13  O   UNL     1       8.544   6.753  19.233  0.00  0.00    +0.000 OA
ATOM     14  C   UNL     1       7.998   7.411  18.349  0.00  0.00    +0.000 C 
ATOM     15  N   UNL     1       8.269   8.737  18.142  0.00  0.00    +0.000 N 
ATOM     16  H   UNL     1       7.698   9.280  17.501  0.00  0.00    +0.000 HD
BRANCH  15  17
ATOM     17  C   UNL     1       9.135   9.433  19.057  0.00  0.00    +0.000 C 
BRANCH  17  18
ATOM     18  C   UNL     1       9.423  10.801  18.558  0.00  0.00    +0.000 A 
ATOM     19  N   UNL     1       8.755  11.913  18.813  0.00  0.00    +0.000 NA
ATOM     20  C   UNL     1       9.468  12.917  18.202  0.00  0.00    +0.000 A 
ATOM     21  C   UNL     1       9.237  14.299  18.180  0.00  0.00    +0.000 A 
ATOM     22  C   UNL     1      10.138  15.124  17.491  0.00  0.00    +0.000 A 
ATOM     23  C   UNL     1      11.243  14.580  16.832  0.00  0.00    +0.000 A 
ATOM     24  C   UNL     1      11.490  13.202  16.839  0.00  0.00    +0.000 A 
ATOM     25  C   UNL     1      10.578  12.407  17.539  0.00  0.00    +0.000 A 
ATOM     26  N   UNL     1      10.516  11.060  17.765  0.00  0.00    +0.000 N 
ATOM     27  H   UNL     1      11.181  10.373  17.435  0.00  0.00    +0.000 HD
ENDBRANCH  17  18
ENDBRANCH  15  17
ENDBRANCH   1  14
BRANCH   5  28
ATOM     28  O   UNL     1       3.765   6.900  17.286  0.00  0.00    +0.000 OA
BRANCH  28  29
ATOM     29  C   UNL     1       2.824   7.970  17.262  0.00  0.00    +0.000 C 
BRANCH  29  30
ATOM     30  C   UNL     1       2.181   8.213  18.611  0.00  0.00    +0.000 A 
ATOM     31  C   UNL     1       2.228   7.291  19.664  0.00  0.00    +0.000 A 
ATOM     32  C   UNL     1       1.548   7.539  20.863  0.00  0.00    +0.000 A 
ATOM     33  C   UNL     1       0.803   8.714  21.035  0.00  0.00    +0.000 A 
ATOM     34  C   UNL     1       0.789   9.655  19.999  0.00  0.00    +0.000 A 
ATOM     35  C   UNL     1       1.471   9.408  18.804  0.00  0.00    +0.000 A 
BRANCH  33  36
ATOM     36  C   UNL     1      -0.029   8.934  22.270  0.00  0.00    +0.000 C 
BRANCH  36  37
ATOM     37  O   UNL     1       0.653   9.752  23.209  0.00  0.00    +0.000 OA
ATOM     38  H   UNL     1       0.644   9.270  24.053  0.00  0.00    +0.000 HD
ENDBRANCH  36  37
ENDBRANCH  33  36
ENDBRANCH  29  30
ENDBRANCH  28  29
ENDBRANCH   5  28
TORSDOF 9
ENDMDL
MODEL 3
REMARK VINA RESULT:      -8.2      1.483      2.135
REMARK  Name = 
REMARK  9 active torsions:
REMARK  status: ('A' for Active; 'I' for Inactive)
REMARK    1  A    between atoms: C_2  and  C_14
REMARK    2  A    between atoms: N_3  and  C_4
REMARK    3  A    between atoms: C_4  and  C_5
REMARK    4  A    between atoms: C_16  and  C_17
REMARK    5  A    between atoms: C_24  and  O_25
REMARK    6  A    between atoms: O_25  and  C_26
REMARK    7  A    between atoms: C_26  and  C_27
REMARK    8  A    between atoms: C_30  and  C_31
REMARK    9  A    between atoms: C_31  and  O_32
REMARK                            x       y       z     vdW  Elec       q    Type
REMARK                         _______ _______ _______ _____ _____    ______ ____
ROOT
ATOM      1  C   UNL     1       0.966   9.320  20.323  0.00  0.00    +0.000 C 
ATOM      2  C   UNL     1       0.631   9.602  19.054  0.00  0.00    +0.000 C 
ATOM      3  C   UNL     1       0.086  10.931  18.634  0.00  0.00    +0.000 C 
ATOM      4  C   UNL     1       0.457  11.991  19.674  0.00  0.00    +0.000 C 
ATOM      5  C   UNL     1       0.261  11.479  21.105  0.00  0.00    +0.000 C 
ATOM      6  O   UNL     1       0.920  10.228  21.361  0.00  0.00    +0.000 OA
ENDROOT
BRANCH   3   7
ATOM      7  C   UNL     1      -1.409  10.851  18.330  0.00  0.00    +0.000 A 
ATOM      8  C   UNL     1      -1.989   9.693  17.780  0.00  0.00    +0.000 A 
ATOM      9  C   UNL     1      -3.345   9.638  17.469  0.00  0.00    +0.000 A 
ATOM     10  C   UNL     1      -4.153  10.739  17.713  0.00  0.00    +0.000 A 
ATOM     11  C   UNL     1      -3.604  11.895  18.274  0.00  0.00    +0.000 A 
ATOM     12  C   UNL     1      -2.240  11.949  18.583  0.00  0.00    +0.000 A 
ENDBRANCH   3   7
BRANCH   1  14
ATOM     13  O   UNL     1       0.892   7.284  21.596  0.00  0.00    +0.000 OA
ATOM     14  C   UNL     1       1.336   7.895  20.624  0.00  0.00    +0.000 C 
ATOM     15  N   UNL     1       2.246   7.348  19.761  0.00  0.00    +0.000 N 
ATOM     16  H   UNL     1       2.694   7.929  19.057  0.00  0.00    +0.000 HD
BRANCH  15  17
ATOM     17  C   UNL     1       2.805   6.054  20.049  0.00  0.00    +0.000 C 
BRANCH  17  18
ATOM     18  C   UNL     1       3.778   5.665  18.997  0.00  0.00    +0.000 A 
ATOM     19  N   UNL     1       3.554   5.509  17.704  0.00  0.00    +0.000 NA
ATOM     20  C   UNL     1       4.783   5.243  17.148  0.00  0.00    +0.000 A 
ATOM     21  C   UNL     1       5.137   5.031  15.809  0.00  0.00    +0.000 A 
ATOM     22  C   UNL     1       6.483   4.794  15.496  0.00  0.00    +0.000 A 
ATOM     23  C   UNL     1       7.455   4.763  16.499  0.00  0.00    +0.000 A 
ATOM     24  C   UNL     1       7.121   4.969  17.843  0.00  0.00    +0.000 A 
ATOM     25  C   UNL     1       5.773   5.209  18.123  0.00  0.00    +0.000 A 
ATOM     26  N   UNL     1       5.106   5.461  19.289  0.00  0.00    +0.000 N 
ATOM     27  H   UNL     1       5.524   5.524  20.208  0.00  0.00    +0.000 HD
ENDBRANCH  17  18
ENDBRANCH  15  17
ENDBRANCH   1  14
BRANCH   5  28
ATOM     28  O   UNL     1      -1.136  11.442  21.410  0.00  0.00    +0.000 OA
BRANCH  28  29
ATOM     29  C   UNL     1      -1.424  11.990  22.694  0.00  0.00    +0.000 C 
BRANCH  29  30
ATOM     30  C   UNL     1      -2.894  12.294  22.883  0.00  0.00    +0.000 A 
ATOM     31  C   UNL     1      -3.753  12.632  21.830  0.00  0.00    +0.000 A 
ATOM     32  C   UNL     1      -5.088  12.978  22.078  0.00  0.00    +0.000 A 
ATOM     33  C   UNL     1      -5.592  12.998  23.385  0.00  0.00    +0.000 A 
ATOM     34  C   UNL     1      -4.747  12.621  24.434  0.00  0.00    +0.000 A 
ATOM     35  C   UNL     1      -3.416  12.271  24.186  0.00  0.00    +0.000 A 
BRANCH  33  36
ATOM     36  C   UNL     1      -6.987  13.486  23.674  0.00  0.00    +0.000 C 
BRANCH  36  37
ATOM     37  O   UNL     1      -7.888  12.399  23.832  0.00  0.00    +0.000 OA
ATOM     38  H   UNL     1      -7.818  12.116  24.760  0.00  0.00    +0.000 HD
ENDBRANCH  36  37
ENDBRANCH  33  36
ENDBRANCH  29  30
ENDBRANCH  28  29
ENDBRANCH   5  28
TORSDOF 9
ENDMDL
MODEL 4
REMARK VINA RESULT:      -8.1      1.482      1.915
REMARK  Name = 
REMARK  9 active torsions:
REMARK  status: ('A' for Active; 'I' for Inactive)
REMARK    1  A    between atoms: C_2  and  C_14
REMARK    2  A    between atoms: N_3  and  C_4
REMARK    3  A    between atoms: C_4  and  C_5
REMARK    4  A    between atoms: C_16  and  C_17
REMARK    5  A    between atoms: C_24  and  O_25
REMARK    6  A    between atoms: O_25  and  C_26
REMARK    7  A    between atoms: C_26  and  C_27
REMARK    8  A    between atoms: C_30  and  C_31
REMARK    9  A    between atoms: C_31  and  O_32
REMARK                            x       y       z     vdW  Elec       q    Type
REMARK                         _______ _______ _______ _____ _____    ______ ____
ROOT
ATOM      1  C   UNL     1       1.045   9.403  20.183  0.00  0.00    +0.000 C 
ATOM      2  C   UNL     1       0.672   9.727  18.935  0.00  0.00    +0.000 C 
ATOM      3  C   UNL     1       0.065  11.050  18.585  0.00  0.00    +0.000 C 
ATOM      4  C   UNL     1       0.415  12.077  19.665  0.00  0.00    +0.000 C 
ATOM      5  C   UNL     1       0.269  11.494  21.074  0.00  0.00    +0.000 C 
ATOM      6  O   UNL     1       0.984  10.262  21.261  0.00  0.00    +0.000 OA
ENDROOT
BRANCH   3   7
ATOM      7  C   UNL     1      -1.431  10.922  18.307  0.00  0.00    +0.000 A 
ATOM      8  C   UNL     1      -1.994   9.721  17.834  0.00  0.00    +0.000 A 
ATOM      9  C   UNL     1      -3.353   9.621  17.546  0.00  0.00    +0.000 A 
ATOM     10  C   UNL     1      -4.180  10.718  17.734  0.00  0.00    +0.000 A 
ATOM     11  C   UNL     1      -3.648  11.915  18.219  0.00  0.00    +0.000 A 
ATOM     12  C   UNL     1      -2.282  12.016  18.505  0.00  0.00    +0.000 A 
ENDBRANCH   3   7
BRANCH   1  14
ATOM     13  O   UNL     1       1.194   7.357  21.433  0.00  0.00    +0.000 OA
ATOM     14  C   UNL     1       1.478   7.983  20.412  0.00  0.00    +0.000 C 
ATOM     15  N   UNL     1       2.259   7.458  19.418  0.00  0.00    +0.000 N 
ATOM     16  H   UNL     1       2.588   8.051  18.662  0.00  0.00    +0.000 HD
BRANCH  15  17
ATOM     17  C   UNL     1       2.875   6.171  19.608  0.00  0.00    +0.000 C 
BRANCH  17  18
ATOM     18  C   UNL     1       3.830   5.888  18.507  0.00  0.00    +0.000 A 
ATOM     19  N   UNL     1       5.015   6.436  18.301  0.00  0.00    +0.000 NA
ATOM     20  C   UNL     1       5.543   5.773  17.219  0.00  0.00    +0.000 A 
ATOM     21  C   UNL     1       6.788   5.921  16.593  0.00  0.00    +0.000 A 
ATOM     22  C   UNL     1       7.097   5.097  15.501  0.00  0.00    +0.000 A 
ATOM     23  C   UNL     1       6.180   4.151  15.038  0.00  0.00    +0.000 A 
ATOM     24  C   UNL     1       4.929   3.990  15.647  0.00  0.00    +0.000 A 
ATOM     25  C   UNL     1       4.653   4.821  16.736  0.00  0.00    +0.000 A 
ATOM     26  N   UNL     1       3.567   4.926  17.560  0.00  0.00    +0.000 N 
ATOM     27  H   UNL     1       2.726   4.367  17.505  0.00  0.00    +0.000 HD
ENDBRANCH  17  18
ENDBRANCH  15  17
ENDBRANCH   1  14
BRANCH   5  28
ATOM     28  O   UNL     1      -1.118  11.386  21.404  0.00  0.00    +0.000 OA
BRANCH  28  29
ATOM     29  C   UNL     1      -1.382  11.755  22.755  0.00  0.00    +0.000 C 
BRANCH  29  30
ATOM     30  C   UNL     1      -2.805  12.229  22.964  0.00  0.00    +0.000 A 
ATOM     31  C   UNL     1      -3.431  12.258  24.216  0.00  0.00    +0.000 A 
ATOM     32  C   UNL     1      -4.775  12.635  24.335  0.00  0.00    +0.000 A 
ATOM     33  C   UNL     1      -5.524  12.988  23.203  0.00  0.00    +0.000 A 
ATOM     34  C   UNL     1      -4.888  12.999  21.957  0.00  0.00    +0.000 A 
ATOM     35  C   UNL     1      -3.545  12.627  21.840  0.00  0.00    +0.000 A 
BRANCH  33  36
ATOM     36  C   UNL     1      -6.999  13.276  23.304  0.00  0.00    +0.000 C 
BRANCH  36  37
ATOM     37  O   UNL     1      -7.434  13.251  24.656  0.00  0.00    +0.000 OA
ATOM     38  H   UNL     1      -7.799  12.363  24.812  0.00  0.00    +0.000 HD
ENDBRANCH  36  37
ENDBRANCH  33  36
ENDBRANCH  29  30
ENDBRANCH  28  29
ENDBRANCH   5  28
TORSDOF 9
ENDMDL
MODEL 5
REMARK VINA RESULT:      -8.1      3.728      7.289
REMARK  Name = 
REMARK  9 active torsions:
REMARK  status: ('A' for Active; 'I' for Inactive)
REMARK    1  A    between atoms: C_2  and  C_14
REMARK    2  A    between atoms: N_3  and  C_4
REMARK    3  A    between atoms: C_4  and  C_5
REMARK    4  A    between atoms: C_16  and  C_17
REMARK    5  A    between atoms: C_24  and  O_25
REMARK    6  A    between atoms: O_25  and  C_26
REMARK    7  A    between atoms: C_26  and  C_27
REMARK    8  A    between atoms: C_30  and  C_31
REMARK    9  A    between atoms: C_31  and  O_32
REMARK                            x       y       z     vdW  Elec       q    Type
REMARK                         _______ _______ _______ _____ _____    ______ ____
ROOT
ATOM      1  C   UNL     1       4.555   5.083  17.470  0.00  0.00    +0.000 C 
ATOM      2  C   UNL     1       4.100   3.831  17.632  0.00  0.00    +0.000 C 
ATOM      3  C   UNL     1       2.652   3.512  17.840  0.00  0.00    +0.000 C 
ATOM      4  C   UNL     1       1.793   4.673  17.333  0.00  0.00    +0.000 C 
ATOM      5  C   UNL     1       2.366   6.031  17.750  0.00  0.00    +0.000 C 
ATOM      6  O   UNL     1       3.749   6.201  17.401  0.00  0.00    +0.000 OA
ENDROOT
BRANCH   3   7
ATOM      7  C   UNL     1       2.370   3.113  19.287  0.00  0.00    +0.000 A 
ATOM      8  C   UNL     1       1.069   3.160  19.825  0.00  0.00    +0.000 A 
ATOM      9  C   UNL     1       0.823   2.832  21.156  0.00  0.00    +0.000 A 
ATOM     10  C   UNL     1       1.871   2.441  21.975  0.00  0.00    +0.000 A 
ATOM     11  C   UNL     1       3.168   2.370  21.460  0.00  0.00    +0.000 A 
ATOM     12  C   UNL     1       3.415   2.702  20.123  0.00  0.00    +0.000 A 
ENDBRANCH   3   7
BRANCH   1  14
ATOM     13  O   UNL     1       6.811   4.415  16.986  0.00  0.00    +0.000 OA
ATOM     14  C   UNL     1       6.046   5.263  17.445  0.00  0.00    +0.000 C 
ATOM     15  N   UNL     1       6.490   6.422  18.023  0.00  0.00    +0.000 N 
ATOM     16  H   UNL     1       5.840   7.027  18.516  0.00  0.00    +0.000 HD
BRANCH  15  17
ATOM     17  C   UNL     1       7.902   6.621  18.212  0.00  0.00    +0.000 C 
BRANCH  17  18
ATOM     18  C   UNL     1       8.221   8.071  18.235  0.00  0.00    +0.000 A 
ATOM     19  N   UNL     1       7.794   9.007  17.406  0.00  0.00    +0.000 NA
ATOM     20  C   UNL     1       8.288  10.191  17.903  0.00  0.00    +0.000 A 
ATOM     21  C   UNL     1       8.115  11.502  17.442  0.00  0.00    +0.000 A 
ATOM     22  C   UNL     1       8.718  12.552  18.148  0.00  0.00    +0.000 A 
ATOM     23  C   UNL     1       9.485  12.298  19.288  0.00  0.00    +0.000 A 
ATOM     24  C   UNL     1       9.674  10.994  19.764  0.00  0.00    +0.000 A 
ATOM     25  C   UNL     1       9.055   9.970  19.041  0.00  0.00    +0.000 A 
ATOM     26  N   UNL     1       9.011   8.616  19.220  0.00  0.00    +0.000 N 
ATOM     27  H   UNL     1       9.455   8.103  19.971  0.00  0.00    +0.000 HD
ENDBRANCH  17  18
ENDBRANCH  15  17
ENDBRANCH   1  14
BRANCH   5  28
ATOM     28  O   UNL     1       2.114   6.247  19.141  0.00  0.00    +0.000 OA
BRANCH  28  29
ATOM     29  C   UNL     1       2.582   7.518  19.584  0.00  0.00    +0.000 C 
BRANCH  29  30
ATOM     30  C   UNL     1       1.553   8.613  19.409  0.00  0.00    +0.000 A 
ATOM     31  C   UNL     1       0.662   9.002  20.417  0.00  0.00    +0.000 A 
ATOM     32  C   UNL     1      -0.320   9.970  20.170  0.00  0.00    +0.000 A 
ATOM     33  C   UNL     1      -0.435  10.569  18.908  0.00  0.00    +0.000 A 
ATOM     34  C   UNL     1       0.481  10.212  17.912  0.00  0.00    +0.000 A 
ATOM     35  C   UNL     1       1.464   9.249  18.160  0.00  0.00    +0.000 A 
BRANCH  33  36
ATOM     36  C   UNL     1      -1.561  11.519  18.597  0.00  0.00    +0.000 C 
BRANCH  36  37
ATOM     37  O   UNL     1      -1.475  11.996  17.261  0.00  0.00    +0.000 OA
ATOM     38  H   UNL     1      -1.685  12.945  17.294  0.00  0.00    +0.000 HD
ENDBRANCH  36  37
ENDBRANCH  33  36
ENDBRANCH  29  30
ENDBRANCH  28  29
ENDBRANCH   5  28
TORSDOF 9
ENDMDL
MODEL 6
REMARK VINA RESULT:      -8.0      0.593      1.131
REMARK  Name = 
REMARK  9 active torsions:
REMARK  status: ('A' for Active; 'I' for Inactive)
REMARK    1  A    between atoms: C_2  and  C_14
REMARK    2  A    between atoms: N_3  and  C_4
REMARK    3  A    between atoms: C_4  and  C_5
REMARK    4  A    between atoms: C_16  and  C_17
REMARK    5  A    between atoms: C_24  and  O_25
REMARK    6  A    between atoms: O_25  and  C_26
REMARK    7  A    between atoms: C_26  and  C_27
REMARK    8  A    between atoms: C_30  and  C_31
REMARK    9  A    between atoms: C_31  and  O_32
REMARK                            x       y       z     vdW  Elec       q    Type
REMARK                         _______ _______ _______ _____ _____    ______ ____
ROOT
ATOM      1  C   UNL     1       1.605   8.706  19.728  0.00  0.00    +0.000 C 
ATOM      2  C   UNL     1       1.270   9.526  18.720  0.00  0.00    +0.000 C 
ATOM      3  C   UNL     1       0.719  10.901  18.938  0.00  0.00    +0.000 C 
ATOM      4  C   UNL     1       1.085  11.383  20.344  0.00  0.00    +0.000 C 
ATOM      5  C   UNL     1       0.891  10.284  21.393  0.00  0.00    +0.000 C 
ATOM      6  O   UNL     1       1.555   9.053  21.063  0.00  0.00    +0.000 OA
ENDROOT
BRANCH   3   7
ATOM      7  C   UNL     1      -0.775  10.960  18.627  0.00  0.00    +0.000 A 
ATOM      8  C   UNL     1      -1.610  11.937  19.202  0.00  0.00    +0.000 A 
ATOM      9  C   UNL     1      -2.978  11.963  18.946  0.00  0.00    +0.000 A 
ATOM     10  C   UNL     1      -3.540  11.017  18.102  0.00  0.00    +0.000 A 
ATOM     11  C   UNL     1      -2.730  10.048  17.506  0.00  0.00    +0.000 A 
ATOM     12  C   UNL     1      -1.355  10.021  17.766  0.00  0.00    +0.000 A 
ENDBRANCH   3   7
BRANCH   1  14
ATOM     13  O   UNL     1       2.066   6.917  18.194  0.00  0.00    +0.000 OA
ATOM     14  C   UNL     1       1.980   7.299  19.360  0.00  0.00    +0.000 C 
ATOM     15  N   UNL     1       2.168   6.462  20.427  0.00  0.00    +0.000 N 
ATOM     16  H   UNL     1       1.950   6.778  21.367  0.00  0.00    +0.000 HD
BRANCH  15  17
ATOM     17  C   UNL     1       2.359   5.054  20.196  0.00  0.00    +0.000 C 
BRANCH  17  18
ATOM     18  C   UNL     1       3.490   4.832  19.262  0.00  0.00    +0.000 A 
ATOM     19  N   UNL     1       3.475   4.180  18.112  0.00  0.00    +0.000 NA
ATOM     20  C   UNL     1       4.735   4.337  17.585  0.00  0.00    +0.000 A 
ATOM     21  C   UNL     1       5.263   3.887  16.367  0.00  0.00    +0.000 A 
ATOM     22  C   UNL     1       6.593   4.201  16.051  0.00  0.00    +0.000 A 
ATOM     23  C   UNL     1       7.381   4.943  16.933  0.00  0.00    +0.000 A 
ATOM     24  C   UNL     1       6.874   5.399  18.156  0.00  0.00    +0.000 A 
ATOM     25  C   UNL     1       5.544   5.075  18.441  0.00  0.00    +0.000 A 
ATOM     26  N   UNL     1       4.736   5.362  19.505  0.00  0.00    +0.000 N 
ATOM     27  H   UNL     1       4.998   5.903  20.319  0.00  0.00    +0.000 HD
ENDBRANCH  17  18
ENDBRANCH  15  17
ENDBRANCH   1  14
BRANCH   5  28
ATOM     28  O   UNL     1      -0.506  10.110  21.646  0.00  0.00    +0.000 OA
BRANCH  28  29
ATOM     29  C   UNL     1      -0.873  10.524  22.959  0.00  0.00    +0.000 C 
BRANCH  29  30
ATOM     30  C   UNL     1      -1.539  11.883  22.978  0.00  0.00    +0.000 A 
ATOM     31  C   UNL     1      -0.862  13.076  22.700  0.00  0.00    +0.000 A 
ATOM     32  C   UNL     1      -1.515  14.312  22.809  0.00  0.00    +0.000 A 
ATOM     33  C   UNL     1      -2.859  14.380  23.202  0.00  0.00    +0.000 A 
ATOM     34  C   UNL     1      -3.548  13.186  23.440  0.00  0.00    +0.000 A 
ATOM     35  C   UNL     1      -2.897  11.954  23.327  0.00  0.00    +0.000 A 
BRANCH  33  36
ATOM     36  C   UNL     1      -3.533  15.705  23.440  0.00  0.00    +0.000 C 
BRANCH  36  37
ATOM     37  O   UNL     1      -3.139  16.663  22.467  0.00  0.00    +0.000 OA
ATOM     38  H   UNL     1      -3.768  17.401  22.537  0.00  0.00    +0.000 HD
ENDBRANCH  36  37
ENDBRANCH  33  36
ENDBRANCH  29  30
ENDBRANCH  28  29
ENDBRANCH   5  28
TORSDOF 9
ENDMDL
MODEL 7
REMARK VINA RESULT:      -7.9      1.083      1.572
REMARK  Name = 
REMARK  9 active torsions:
REMARK  status: ('A' for Active; 'I' for Inactive)
REMARK    1  A    between atoms: C_2  and  C_14
REMARK    2  A    between atoms: N_3  and  C_4
REMARK    3  A    between atoms: C_4  and  C_5
REMARK    4  A    between atoms: C_16  and  C_17
REMARK    5  A    between atoms: C_24  and  O_25
REMARK    6  A    between atoms: O_25  and  C_26
REMARK    7  A    between atoms: C_26  and  C_27
REMARK    8  A    between atoms: C_30  and  C_31
REMARK    9  A    between atoms: C_31  and  O_32
REMARK                            x       y       z     vdW  Elec       q    Type
REMARK                         _______ _______ _______ _____ _____    ______ ____
ROOT
ATOM      1  C   UNL     1       1.105   9.453  20.163  0.00  0.00    +0.000 C 
ATOM      2  C   UNL     1       0.734   9.663  18.891  0.00  0.00    +0.000 C 
ATOM      3  C   UNL     1       0.168  10.964  18.413  0.00  0.00    +0.000 C 
ATOM      4  C   UNL     1       0.559  12.081  19.383  0.00  0.00    +0.000 C 
ATOM      5  C   UNL     1       0.406  11.648  20.844  0.00  0.00    +0.000 C 
ATOM      6  O   UNL     1       1.082  10.417  21.151  0.00  0.00    +0.000 OA
ENDROOT
BRANCH   3   7
ATOM      7  C   UNL     1      -1.334  10.858  18.157  0.00  0.00    +0.000 A 
ATOM      8  C   UNL     1      -1.931   9.649  17.750  0.00  0.00    +0.000 A 
ATOM      9  C   UNL     1      -3.295   9.568  17.481  0.00  0.00    +0.000 A 
ATOM     10  C   UNL     1      -4.093  10.694  17.621  0.00  0.00    +0.000 A 
ATOM     11  C   UNL     1      -3.528  11.901  18.039  0.00  0.00    +0.000 A 
ATOM     12  C   UNL     1      -2.157  11.982  18.307  0.00  0.00    +0.000 A 
ENDBRANCH   3   7
BRANCH   1  14
ATOM     13  O   UNL     1       1.332   7.589  21.662  0.00  0.00    +0.000 OA
ATOM     14  C   UNL     1       1.493   8.049  20.532  0.00  0.00    +0.000 C 
ATOM     15  N   UNL     1       2.090   7.340  19.525  0.00  0.00    +0.000 N 
ATOM     16  H   UNL     1       2.333   7.800  18.652  0.00  0.00    +0.000 HD
BRANCH  15  17
ATOM     17  C   UNL     1       2.660   6.050  19.809  0.00  0.00    +0.000 C 
BRANCH  17  18
ATOM     18  C   UNL     1       3.824   5.792  18.925  0.00  0.00    +0.000 A 
ATOM     19  N   UNL     1       5.022   5.355  19.271  0.00  0.00    +0.000 NA
ATOM     20  C   UNL     1       5.708   5.189  18.091  0.00  0.00    +0.000 A 
ATOM     21  C   UNL     1       7.006   4.714  17.864  0.00  0.00    +0.000 A 
ATOM     22  C   UNL     1       7.470   4.622  16.544  0.00  0.00    +0.000 A 
ATOM     23  C   UNL     1       6.658   5.003  15.473  0.00  0.00    +0.000 A 
ATOM     24  C   UNL     1       5.359   5.485  15.679  0.00  0.00    +0.000 A 
ATOM     25  C   UNL     1       4.923   5.559  17.005  0.00  0.00    +0.000 A 
ATOM     26  N   UNL     1       3.740   5.954  17.563  0.00  0.00    +0.000 N 
ATOM     27  H   UNL     1       2.925   6.278  17.056  0.00  0.00    +0.000 HD
ENDBRANCH  17  18
ENDBRANCH  15  17
ENDBRANCH   1  14
BRANCH   5  28
ATOM     28  O   UNL     1      -0.982  11.620  21.190  0.00  0.00    +0.000 OA
BRANCH  28  29
ATOM     29  C   UNL     1      -1.188  11.386  22.581  0.00  0.00    +0.000 C 
BRANCH  29  30
ATOM     30  C   UNL     1      -1.930  12.517  23.260  0.00  0.00    +0.000 A 
ATOM     31  C   UNL     1      -3.258  12.416  23.692  0.00  0.00    +0.000 A 
ATOM     32  C   UNL     1      -3.917  13.522  24.245  0.00  0.00    +0.000 A 
ATOM     33  C   UNL     1      -3.262  14.755  24.374  0.00  0.00    +0.000 A 
ATOM     34  C   UNL     1      -1.923  14.846  23.980  0.00  0.00    +0.000 A 
ATOM     35  C   UNL     1      -1.265  13.741  23.433  0.00  0.00    +0.000 A 
BRANCH  33  36
ATOM     36  C   UNL     1      -3.996  15.980  24.853  0.00  0.00    +0.000 C 
BRANCH  36  37
ATOM     37  O   UNL     1      -5.389  15.878  24.590  0.00  0.00    +0.000 OA
ATOM     38  H   UNL     1      -5.513  15.064  24.072  0.00  0.00    +0.000 HD
ENDBRANCH  36  37
ENDBRANCH  33  36
ENDBRANCH  29  30
ENDBRANCH  28  29
ENDBRANCH   5  28
TORSDOF 9
ENDMDL
MODEL 8
REMARK VINA RESULT:      -7.9      0.823      1.707
REMARK  Name = 
REMARK  9 active torsions:
REMARK  status: ('A' for Active; 'I' for Inactive)
REMARK    1  A    between atoms: C_2  and  C_14
REMARK    2  A    between atoms: N_3  and  C_4
REMARK    3  A    between atoms: C_4  and  C_5
REMARK    4  A    between atoms: C_16  and  C_17
REMARK    5  A    between atoms: C_24  and  O_25
REMARK    6  A    between atoms: O_25  and  C_26
REMARK    7  A    between atoms: C_26  and  C_27
REMARK    8  A    between atoms: C_30  and  C_31
REMARK    9  A    between atoms: C_31  and  O_32
REMARK                            x       y       z     vdW  Elec       q    Type
REMARK                         _______ _______ _______ _____ _____    ______ ____
ROOT
ATOM      1  C   UNL     1       1.521   8.859  19.761  0.00  0.00    +0.000 C 
ATOM      2  C   UNL     1       1.139   9.668  18.761  0.00  0.00    +0.000 C 
ATOM      3  C   UNL     1       0.568  11.033  18.993  0.00  0.00    +0.000 C 
ATOM      4  C   UNL     1       0.966  11.526  20.386  0.00  0.00    +0.000 C 
ATOM      5  C   UNL     1       0.825  10.427  21.443  0.00  0.00    +0.000 C 
ATOM      6  O   UNL     1       1.504   9.208  21.096  0.00  0.00    +0.000 OA
ENDROOT
BRANCH   3   7
ATOM      7  C   UNL     1      -0.936  11.061  18.727  0.00  0.00    +0.000 A 
ATOM      8  C   UNL     1      -1.561  10.093  17.919  0.00  0.00    +0.000 A 
ATOM      9  C   UNL     1      -2.927  10.145  17.649  0.00  0.00    +0.000 A 
ATOM     10  C   UNL     1      -3.698  11.162  18.191  0.00  0.00    +0.000 A 
ATOM     11  C   UNL     1      -3.104  12.125  19.010  0.00  0.00    +0.000 A 
ATOM     12  C   UNL     1      -1.731  12.073  19.278  0.00  0.00    +0.000 A 
ENDBRANCH   3   7
BRANCH   1  14
ATOM     13  O   UNL     1       2.104   7.111  18.220  0.00  0.00    +0.000 OA
ATOM     14  C   UNL     1       1.913   7.458  19.385  0.00  0.00    +0.000 C 
ATOM     15  N   UNL     1       1.989   6.586  20.437  0.00  0.00    +0.000 N 
ATOM     16  H   UNL     1       1.687   6.876  21.363  0.00  0.00    +0.000 HD
BRANCH  15  17
ATOM     17  C   UNL     1       2.185   5.184  20.180  0.00  0.00    +0.000 C 
BRANCH  17  18
ATOM     18  C   UNL     1       3.403   4.973  19.359  0.00  0.00    +0.000 A 
ATOM     19  N   UNL     1       3.502   4.334  18.206  0.00  0.00    +0.000 NA
ATOM     20  C   UNL     1       4.807   4.499  17.806  0.00  0.00    +0.000 A 
ATOM     21  C   UNL     1       5.453   4.062  16.642  0.00  0.00    +0.000 A 
ATOM     22  C   UNL     1       6.807   4.381  16.460  0.00  0.00    +0.000 A 
ATOM     23  C   UNL     1       7.503   5.115  17.424  0.00  0.00    +0.000 A 
ATOM     24  C   UNL     1       6.877   5.557  18.596  0.00  0.00    +0.000 A 
ATOM     25  C   UNL     1       5.527   5.228  18.745  0.00  0.00    +0.000 A 
ATOM     26  N   UNL     1       4.617   5.502  19.729  0.00  0.00    +0.000 N 
ATOM     27  H   UNL     1       4.797   6.034  20.570  0.00  0.00    +0.000 HD
ENDBRANCH  17  18
ENDBRANCH  15  17
ENDBRANCH   1  14
BRANCH   5  28
ATOM     28  O   UNL     1      -0.560  10.225  21.738  0.00  0.00    +0.000 OA
BRANCH  28  29
ATOM     29  C   UNL     1      -0.921  10.743  23.016  0.00  0.00    +0.000 C 
BRANCH  29  30
ATOM     30  C   UNL     1      -1.675  12.052  22.923  0.00  0.00    +0.000 A 
ATOM     31  C   UNL     1      -3.066  12.132  22.783  0.00  0.00    +0.000 A 
ATOM     32  C   UNL     1      -3.700  13.371  22.625  0.00  0.00    +0.000 A 
ATOM     33  C   UNL     1      -2.956  14.559  22.599  0.00  0.00    +0.000 A 
ATOM     34  C   UNL     1      -1.571  14.484  22.780  0.00  0.00    +0.000 A 
ATOM     35  C   UNL     1      -0.939  13.248  22.942  0.00  0.00    +0.000 A 
BRANCH  33  36
ATOM     36  C   UNL     1      -3.613  15.882  22.308  0.00  0.00    +0.000 C 
BRANCH  36  37
ATOM     37  O   UNL     1      -3.507  16.215  20.931  0.00  0.00    +0.000 OA
ATOM     38  H   UNL     1      -2.653  15.864  20.628  0.00  0.00    +0.000 HD
ENDBRANCH  36  37
ENDBRANCH  33  36
ENDBRANCH  29  30
ENDBRANCH  28  29
ENDBRANCH   5  28
TORSDOF 9
ENDMDL
MODEL 9
REMARK VINA RESULT:      -7.9      4.565      8.309
REMARK  Name = 
REMARK  9 active torsions:
REMARK  status: ('A' for Active; 'I' for Inactive)
REMARK    1  A    between atoms: C_2  and  C_14
REMARK    2  A    between atoms: N_3  and  C_4
REMARK    3  A    between atoms: C_4  and  C_5
REMARK    4  A    between atoms: C_16  and  C_17
REMARK    5  A    between atoms: C_24  and  O_25
REMARK    6  A    between atoms: O_25  and  C_26
REMARK    7  A    between atoms: C_26  and  C_27
REMARK    8  A    between atoms: C_30  and  C_31
REMARK    9  A    between atoms: C_31  and  O_32
REMARK                            x       y       z     vdW  Elec       q    Type
REMARK                         _______ _______ _______ _____ _____    ______ ____
ROOT
ATOM      1  C   UNL     1       6.766   6.170  17.471  0.00  0.00    +0.000 C 
ATOM      2  C   UNL     1       6.552   4.846  17.513  0.00  0.00    +0.000 C 
ATOM      3  C   UNL     1       5.428   4.180  16.782  0.00  0.00    +0.000 C 
ATOM      4  C   UNL     1       4.946   5.086  15.646  0.00  0.00    +0.000 C 
ATOM      5  C   UNL     1       4.837   6.548  16.091  0.00  0.00    +0.000 C 
ATOM      6  O   UNL     1       6.036   7.052  16.701  0.00  0.00    +0.000 OA
ENDROOT
BRANCH   3   7
ATOM      7  C   UNL     1       4.322   3.739  17.739  0.00  0.00    +0.000 A 
ATOM      8  C   UNL     1       4.526   3.694  19.131  0.00  0.00    +0.000 A 
ATOM      9  C   UNL     1       3.528   3.254  19.997  0.00  0.00    +0.000 A 
ATOM     10  C   UNL     1       2.300   2.858  19.488  0.00  0.00    +0.000 A 
ATOM     11  C   UNL     1       2.068   2.909  18.111  0.00  0.00    +0.000 A 
ATOM     12  C   UNL     1       3.073   3.349  17.243  0.00  0.00    +0.000 A 
ENDBRANCH   3   7
BRANCH   1  14
ATOM     13  O   UNL     1       8.334   6.044  19.286  0.00  0.00    +0.000 OA
ATOM     14  C   UNL     1       7.823   6.713  18.389  0.00  0.00    +0.000 C 
ATOM     15  N   UNL     1       8.136   8.030  18.182  0.00  0.00    +0.000 N 
ATOM     16  H   UNL     1       7.593   8.586  17.527  0.00  0.00    +0.000 HD
BRANCH  15  17
ATOM     17  C   UNL     1       9.004   8.705  19.109  0.00  0.00    +0.000 C 
BRANCH  17  18
ATOM     18  C   UNL     1       9.085  10.151  18.784  0.00  0.00    +0.000 A 
ATOM     19  N   UNL     1       8.273  10.854  18.013  0.00  0.00    +0.000 NA
ATOM     20  C   UNL     1       8.711  12.154  18.108  0.00  0.00    +0.000 A 
ATOM     21  C   UNL     1       8.197  13.321  17.528  0.00  0.00    +0.000 A 
ATOM     22  C   UNL     1       8.826  14.545  17.802  0.00  0.00    +0.000 A 
ATOM     23  C   UNL     1       9.949  14.601  18.631  0.00  0.00    +0.000 A 
ATOM     24  C   UNL     1      10.480  13.446  19.217  0.00  0.00    +0.000 A 
ATOM     25  C   UNL     1       9.829  12.243  18.931  0.00  0.00    +0.000 A 
ATOM     26  N   UNL     1      10.055  10.956  19.332  0.00  0.00    +0.000 N 
ATOM     27  H   UNL     1      10.791  10.652  19.956  0.00  0.00    +0.000 HD
ENDBRANCH  17  18
ENDBRANCH  15  17
ENDBRANCH   1  14
BRANCH   5  28
ATOM     28  O   UNL     1       3.682   6.709  16.920  0.00  0.00    +0.000 OA
BRANCH  28  29
ATOM     29  C   UNL     1       3.415   8.078  17.213  0.00  0.00    +0.000 C 
BRANCH  29  30
ATOM     30  C   UNL     1       2.466   8.250  18.380  0.00  0.00    +0.000 A 
ATOM     31  C   UNL     1       1.623   9.358  18.531  0.00  0.00    +0.000 A 
ATOM     32  C   UNL     1       0.822   9.498  19.672  0.00  0.00    +0.000 A 
ATOM     33  C   UNL     1       0.851   8.536  20.690  0.00  0.00    +0.000 A 
ATOM     34  C   UNL     1       1.661   7.408  20.522  0.00  0.00    +0.000 A 
ATOM     35  C   UNL     1       2.457   7.266  19.381  0.00  0.00    +0.000 A 
BRANCH  33  36
ATOM     36  C   UNL     1       0.088   8.737  21.973  0.00  0.00    +0.000 C 
BRANCH  36  37
ATOM     37  O   UNL     1      -0.510  10.025  22.017  0.00  0.00    +0.000 OA
ATOM     38  H   UNL     1      -0.314  10.449  21.164  0.00  0.00    +0.000 HD
ENDBRANCH  36  37
ENDBRANCH  33  36
ENDBRANCH  29  30
ENDBRANCH  28  29
ENDBRANCH   5  28
TORSDOF 9
ENDMDL
