MODEL 1
REMARK VINA RESULT:      -7.8      0.000      0.000
REMARK  Name = 
REMARK  7 active torsions:
REMARK  status: ('A' for Active; 'I' for Inactive)
REMARK    1  A    between atoms: C_1  and  O_2
REMARK    2  A    between atoms: O_2  and  C_3
REMARK    3  A    between atoms: C_6  and  N_7
REMARK    4  A    between atoms: C_9  and  C_10
REMARK    5  A    between atoms: C_10  and  C_12
REMARK    6  A    between atoms: C_18  and  O_19
REMARK    7  A    between atoms: C_21  and  C_22
REMARK                            x       y       z     vdW  Elec       q    Type
REMARK                         _______ _______ _______ _____ _____    ______ ____
ROOT
ATOM      1  N   UNL     1       6.339   5.616  16.724  0.00  0.00    +0.000 N 
ATOM      2  C   UNL     1       5.197   5.054  17.319  0.00  0.00    +0.000 A 
ATOM      3  C   UNL     1       4.415   4.151  16.702  0.00  0.00    +0.000 A 
ATOM      4  C   UNL     1       4.717   3.810  15.341  0.00  0.00    +0.000 A 
ATOM      5  C   UNL     1       5.860   4.204  14.771  0.00  0.00    +0.000 A 
ATOM      6  C   UNL     1       6.770   5.160  15.448  0.00  0.00    +0.000 A 
ATOM      7  O   UNL     1       7.807   5.475  14.870  0.00  0.00    +0.000 OA
ENDROOT
BRANCH   1  11
ATOM      8  C   UNL     1       8.576   8.644  18.762  0.00  0.00    +0.000 A 
ATOM      9  C   UNL     1       7.853   8.953  17.613  0.00  0.00    +0.000 A 
ATOM     10  C   UNL     1       7.117   7.965  16.951  0.00  0.00    +0.000 A 
ATOM     11  C   UNL     1       7.105   6.635  17.402  0.00  0.00    +0.000 A 
ATOM     12  C   UNL     1       7.850   6.342  18.555  0.00  0.00    +0.000 A 
ATOM     13  C   UNL     1       8.580   7.333  19.226  0.00  0.00    +0.000 A 
BRANCH   8  15
ATOM     14  C   UNL     1       9.377  10.847  18.501  0.00  0.00    +0.000 C 
ATOM     15  O   UNL     1       9.260   9.688  19.316  0.00  0.00    +0.000 OA
ENDBRANCH   8  15
ENDBRANCH   1  11
BRANCH   3  16
ATOM     16  C   UNL     1       3.242   3.599  17.465  0.00  0.00    +0.000 C 
ATOM     17  O   UNL     1       2.724   2.534  17.125  0.00  0.00    +0.000 OA
BRANCH  16  18
ATOM     18  C   UNL     1       2.714   4.284  18.681  0.00  0.00    +0.000 A 
ATOM     19  C   UNL     1       2.550   5.675  18.596  0.00  0.00    +0.000 A 
ATOM     20  C   UNL     1       2.059   6.396  19.684  0.00  0.00    +0.000 A 
ATOM     21 CL   UNL     1       1.881   8.103  19.574  0.00  0.00    +0.000 Cl
ATOM     22  C   UNL     1       1.714   5.744  20.866  0.00  0.00    +0.000 A 
ATOM     23  C   UNL     1       1.893   4.365  20.974  0.00  0.00    +0.000 A 
ATOM     24  C   UNL     1       2.417   3.644  19.897  0.00  0.00    +0.000 A 
BRANCH  24  25
ATOM     25  O   UNL     1       2.649   2.307  20.063  0.00  0.00    +0.000 OA
ATOM     26  H   UNL     1       2.317   2.020  20.933  0.00  0.00    +0.000 HD
ENDBRANCH  24  25
ENDBRANCH  16  18
ENDBRANCH   3  16
BRANCH   5  27
ATOM     27  C   UNL     1       6.166   3.715  13.365  0.00  0.00    +0.000 C 
ATOM     28  N   UNL     1       6.419   3.310  12.197  0.00  0.00    +0.000 NA
ENDBRANCH   5  27
TORSDOF 6
ENDMDL
MODEL 2
REMARK VINA RESULT:      -7.6      3.538      6.823
REMARK  Name = 
REMARK  7 active torsions:
REMARK  status: ('A' for Active; 'I' for Inactive)
REMARK    1  A    between atoms: C_1  and  O_2
REMARK    2  A    between atoms: O_2  and  C_3
REMARK    3  A    between atoms: C_6  and  N_7
REMARK    4  A    between atoms: C_9  and  C_10
REMARK    5  A    between atoms: C_10  and  C_12
REMARK    6  A    between atoms: C_18  and  O_19
REMARK    7  A    between atoms: C_21  and  C_22
REMARK                            x       y       z     vdW  Elec       q    Type
REMARK                         _______ _______ _______ _____ _____    ______ ____
ROOT
ATOM      1  N   UNL     1       3.478   6.090  17.874  0.00  0.00    +0.000 N 
ATOM      2  C   UNL     1       4.609   6.283  17.064  0.00  0.00    +0.000 A 
ATOM      3  C   UNL     1       5.393   5.276  16.642  0.00  0.00    +0.000 A 
ATOM      4  C   UNL     1       5.105   3.951  17.111  0.00  0.00    +0.000 A 
ATOM      5  C   UNL     1       3.972   3.685  17.768  0.00  0.00    +0.000 A 
ATOM      6  C   UNL     1       3.060   4.771  18.203  0.00  0.00    +0.000 A 
ATOM      7  O   UNL     1       2.032   4.456  18.798  0.00  0.00    +0.000 OA
ENDROOT
BRANCH   1  11
ATOM      8  C   UNL     1       1.165   9.396  19.306  0.00  0.00    +0.000 A 
ATOM      9  C   UNL     1       1.568   9.340  17.975  0.00  0.00    +0.000 A 
ATOM     10  C   UNL     1       2.318   8.257  17.506  0.00  0.00    +0.000 A 
ATOM     11  C   UNL     1       2.711   7.213  18.360  0.00  0.00    +0.000 A 
ATOM     12  C   UNL     1       2.304   7.294  19.701  0.00  0.00    +0.000 A 
ATOM     13  C   UNL     1       1.544   8.374  20.171  0.00  0.00    +0.000 A 
BRANCH   8  15
ATOM     14  C   UNL     1      -0.822  10.632  19.019  0.00  0.00    +0.000 C 
ATOM     15  O   UNL     1       0.445  10.504  19.649  0.00  0.00    +0.000 OA
ENDBRANCH   8  15
ENDBRANCH   1  11
BRANCH   3  16
ATOM     16  C   UNL     1       6.553   5.615  15.745  0.00  0.00    +0.000 C 
ATOM     17  O   UNL     1       7.489   6.294  16.169  0.00  0.00    +0.000 OA
BRANCH  16  18
ATOM     18  C   UNL     1       6.634   5.093  14.350  0.00  0.00    +0.000 A 
ATOM     19  C   UNL     1       5.552   4.316  13.906  0.00  0.00    +0.000 A 
ATOM     20  C   UNL     1       5.541   3.791  12.615  0.00  0.00    +0.000 A 
ATOM     21 CL   UNL     1       4.218   2.825  12.091  0.00  0.00    +0.000 Cl
ATOM     22  C   UNL     1       6.599   4.039  11.743  0.00  0.00    +0.000 A 
ATOM     23  C   UNL     1       7.692   4.790  12.176  0.00  0.00    +0.000 A 
ATOM     24  C   UNL     1       7.722   5.289  13.481  0.00  0.00    +0.000 A 
BRANCH  24  25
ATOM     25  O   UNL     1       8.841   5.955  13.896  0.00  0.00    +0.000 OA
ATOM     26  H   UNL     1       8.789   6.890  13.624  0.00  0.00    +0.000 HD
ENDBRANCH  24  25
ENDBRANCH  16  18
ENDBRANCH   3  16
BRANCH   5  27
ATOM     27  C   UNL     1       3.680   2.241  18.140  0.00  0.00    +0.000 C 
ATOM     28  N   UNL     1       3.436   1.042  18.450  0.00  0.00    +0.000 NA
ENDBRANCH   5  27
TORSDOF 6
ENDMDL
MODEL 3
REMARK VINA RESULT:      -7.4      1.218      1.413
REMARK  Name = 
REMARK  7 active torsions:
REMARK  status: ('A' for Active; 'I' for Inactive)
REMARK    1  A    between atoms: C_1  and  O_2
REMARK    2  A    between atoms: O_2  and  C_3
REMARK    3  A    between atoms: C_6  and  N_7
REMARK    4  A    between atoms: C_9  and  C_10
REMARK    5  A    between atoms: C_10  and  C_12
REMARK    6  A    between atoms: C_18  and  O_19
REMARK    7  A    between atoms: C_21  and  C_22
REMARK                            x       y       z     vdW  Elec       q    Type
REMARK                         _______ _______ _______ _____ _____    ______ ____
ROOT
ATOM      1  N   UNL     1       6.704   5.862  17.366  0.00  0.00    +0.000 N 
ATOM      2  C   UNL     1       5.975   5.097  18.291  0.00  0.00    +0.000 A 
ATOM      3  C   UNL     1       5.282   3.996  17.952  0.00  0.00    +0.000 A 
ATOM      4  C   UNL     1       5.219   3.636  16.564  0.00  0.00    +0.000 A 
ATOM      5  C   UNL     1       5.996   4.240  15.661  0.00  0.00    +0.000 A 
ATOM      6  C   UNL     1       6.813   5.427  16.017  0.00  0.00    +0.000 A 
ATOM      7  O   UNL     1       7.509   5.931  15.139  0.00  0.00    +0.000 OA
ENDROOT
BRANCH   1  11
ATOM      8  C   UNL     1       8.656   9.470  18.593  0.00  0.00    +0.000 A 
ATOM      9  C   UNL     1       7.736   9.485  17.549  0.00  0.00    +0.000 A 
ATOM     10  C   UNL     1       7.094   8.308  17.152  0.00  0.00    +0.000 A 
ATOM     11  C   UNL     1       7.372   7.077  17.769  0.00  0.00    +0.000 A 
ATOM     12  C   UNL     1       8.312   7.081  18.812  0.00  0.00    +0.000 A 
ATOM     13  C   UNL     1       8.949   8.262  19.218  0.00  0.00    +0.000 A 
BRANCH   8  15
ATOM     14  C   UNL     1       9.534  10.894  20.255  0.00  0.00    +0.000 C 
ATOM     15  O   UNL     1       9.223  10.677  18.885  0.00  0.00    +0.000 OA
ENDBRANCH   8  15
ENDBRANCH   1  11
BRANCH   3  16
ATOM     16  C   UNL     1       4.575   3.244  19.047  0.00  0.00    +0.000 C 
ATOM     17  O   UNL     1       5.156   2.350  19.664  0.00  0.00    +0.000 OA
BRANCH  16  18
ATOM     18  C   UNL     1       3.184   3.596  19.457  0.00  0.00    +0.000 A 
ATOM     19  C   UNL     1       2.987   4.893  19.957  0.00  0.00    +0.000 A 
ATOM     20  C   UNL     1       1.719   5.309  20.361  0.00  0.00    +0.000 A 
ATOM     21 CL   UNL     1       1.494   6.893  20.990  0.00  0.00    +0.000 Cl
ATOM     22  C   UNL     1       0.629   4.448  20.262  0.00  0.00    +0.000 A 
ATOM     23  C   UNL     1       0.812   3.148  19.788  0.00  0.00    +0.000 A 
ATOM     24  C   UNL     1       2.088   2.717  19.415  0.00  0.00    +0.000 A 
BRANCH  24  25
ATOM     25  O   UNL     1       2.245   1.415  19.027  0.00  0.00    +0.000 OA
ATOM     26  H   UNL     1       2.302   1.365  18.056  0.00  0.00    +0.000 HD
ENDBRANCH  24  25
ENDBRANCH  16  18
ENDBRANCH   3  16
BRANCH   5  27
ATOM     27  C   UNL     1       5.958   3.735  14.228  0.00  0.00    +0.000 C 
ATOM     28  N   UNL     1       5.926   3.317  13.038  0.00  0.00    +0.000 NA
ENDBRANCH   5  27
TORSDOF 6
ENDMDL
MODEL 4
REMARK VINA RESULT:      -7.3      1.484      2.021
REMARK  Name = 
REMARK  7 active torsions:
REMARK  status: ('A' for Active; 'I' for Inactive)
REMARK    1  A    between atoms: C_1  and  O_2
REMARK    2  A    between atoms: O_2  and  C_3
REMARK    3  A    between atoms: C_6  and  N_7
REMARK    4  A    between atoms: C_9  and  C_10
REMARK    5  A    between atoms: C_10  and  C_12
REMARK    6  A    between atoms: C_18  and  O_19
REMARK    7  A    between atoms: C_21  and  C_22
REMARK                            x       y       z     vdW  Elec       q    Type
REMARK                         _______ _______ _______ _____ _____    ______ ____
ROOT
ATOM      1  N   UNL     1       6.225   5.686  16.641  0.00  0.00    +0.000 N 
ATOM      2  C   UNL     1       5.018   5.195  17.166  0.00  0.00    +0.000 A 
ATOM      3  C   UNL     1       4.238   4.314  16.515  0.00  0.00    +0.000 A 
ATOM      4  C   UNL     1       4.619   3.922  15.188  0.00  0.00    +0.000 A 
ATOM      5  C   UNL     1       5.817   4.246  14.693  0.00  0.00    +0.000 A 
ATOM      6  C   UNL     1       6.723   5.176  15.411  0.00  0.00    +0.000 A 
ATOM      7  O   UNL     1       7.812   5.426  14.901  0.00  0.00    +0.000 OA
ENDROOT
BRANCH   1  11
ATOM      8  C   UNL     1       8.528   8.644  18.710  0.00  0.00    +0.000 A 
ATOM      9  C   UNL     1       8.522   7.322  19.146  0.00  0.00    +0.000 A 
ATOM     10  C   UNL     1       7.775   6.354  18.466  0.00  0.00    +0.000 A 
ATOM     11  C   UNL     1       6.991   6.685  17.349  0.00  0.00    +0.000 A 
ATOM     12  C   UNL     1       7.001   8.026  16.933  0.00  0.00    +0.000 A 
ATOM     13  C   UNL     1       7.757   8.995  17.607  0.00  0.00    +0.000 A 
BRANCH   8  15
ATOM     14  C   UNL     1       9.341  10.839  18.991  0.00  0.00    +0.000 C 
ATOM     15  O   UNL     1       9.287   9.498  19.457  0.00  0.00    +0.000 OA
ENDBRANCH   8  15
ENDBRANCH   1  11
BRANCH   3  16
ATOM     16  C   UNL     1       2.988   3.838  17.205  0.00  0.00    +0.000 C 
ATOM     17  O   UNL     1       2.256   3.008  16.663  0.00  0.00    +0.000 OA
BRANCH  16  18
ATOM     18  C   UNL     1       2.633   4.304  18.577  0.00  0.00    +0.000 A 
ATOM     19  C   UNL     1       2.566   3.320  19.576  0.00  0.00    +0.000 A 
ATOM     20  C   UNL     1       2.245   3.665  20.888  0.00  0.00    +0.000 A 
ATOM     21 CL   UNL     1       2.147   2.447  22.098  0.00  0.00    +0.000 Cl
ATOM     22  C   UNL     1       1.999   4.993  21.228  0.00  0.00    +0.000 A 
ATOM     23  C   UNL     1       2.040   5.980  20.243  0.00  0.00    +0.000 A 
ATOM     24  C   UNL     1       2.328   5.633  18.920  0.00  0.00    +0.000 A 
BRANCH  24  25
ATOM     25  O   UNL     1       2.285   6.612  17.968  0.00  0.00    +0.000 OA
ATOM     26  H   UNL     1       3.182   6.960  17.812  0.00  0.00    +0.000 HD
ENDBRANCH  24  25
ENDBRANCH  16  18
ENDBRANCH   3  16
BRANCH   5  27
ATOM     27  C   UNL     1       6.198   3.706  13.324  0.00  0.00    +0.000 C 
ATOM     28  N   UNL     1       6.513   3.256  12.189  0.00  0.00    +0.000 NA
ENDBRANCH   5  27
TORSDOF 6
ENDMDL
MODEL 5
REMARK VINA RESULT:      -7.2      1.879      2.183
REMARK  Name = 
REMARK  7 active torsions:
REMARK  status: ('A' for Active; 'I' for Inactive)
REMARK    1  A    between atoms: C_1  and  O_2
REMARK    2  A    between atoms: O_2  and  C_3
REMARK    3  A    between atoms: C_6  and  N_7
REMARK    4  A    between atoms: C_9  and  C_10
REMARK    5  A    between atoms: C_10  and  C_12
REMARK    6  A    between atoms: C_18  and  O_19
REMARK    7  A    between atoms: C_21  and  C_22
REMARK                            x       y       z     vdW  Elec       q    Type
REMARK                         _______ _______ _______ _____ _____    ______ ____
ROOT
ATOM      1  N   UNL     1       6.260   5.596  16.665  0.00  0.00    +0.000 N 
ATOM      2  C   UNL     1       5.072   5.085  17.213  0.00  0.00    +0.000 A 
ATOM      3  C   UNL     1       4.288   4.200  16.572  0.00  0.00    +0.000 A 
ATOM      4  C   UNL     1       4.641   3.827  15.232  0.00  0.00    +0.000 A 
ATOM      5  C   UNL     1       5.823   4.171  14.712  0.00  0.00    +0.000 A 
ATOM      6  C   UNL     1       6.734   5.105  15.417  0.00  0.00    +0.000 A 
ATOM      7  O   UNL     1       7.807   5.375  14.885  0.00  0.00    +0.000 OA
ENDROOT
BRANCH   1  11
ATOM      8  C   UNL     1       8.507   8.574  18.767  0.00  0.00    +0.000 A 
ATOM      9  C   UNL     1       7.742   8.920  17.656  0.00  0.00    +0.000 A 
ATOM     10  C   UNL     1       7.003   7.948  16.974  0.00  0.00    +0.000 A 
ATOM     11  C   UNL     1       7.029   6.599  17.364  0.00  0.00    +0.000 A 
ATOM     12  C   UNL     1       7.816   6.270  18.479  0.00  0.00    +0.000 A 
ATOM     13  C   UNL     1       8.549   7.243  19.171  0.00  0.00    +0.000 A 
BRANCH   8  15
ATOM     14  C   UNL     1       9.387  10.748  18.525  0.00  0.00    +0.000 C 
ATOM     15  O   UNL     1       9.190   9.605  19.345  0.00  0.00    +0.000 OA
ENDBRANCH   8  15
ENDBRANCH   1  11
BRANCH   3  16
ATOM     16  C   UNL     1       3.061   3.701  17.286  0.00  0.00    +0.000 C 
ATOM     17  O   UNL     1       2.007   3.536  16.671  0.00  0.00    +0.000 OA
BRANCH  16  18
ATOM     18  C   UNL     1       3.100   3.335  18.733  0.00  0.00    +0.000 A 
ATOM     19  C   UNL     1       4.112   2.446  19.128  0.00  0.00    +0.000 A 
ATOM     20  C   UNL     1       4.226   2.052  20.460  0.00  0.00    +0.000 A 
ATOM     21 CL   UNL     1       5.459   0.947  20.928  0.00  0.00    +0.000 Cl
ATOM     22  C   UNL     1       3.345   2.544  21.420  0.00  0.00    +0.000 A 
ATOM     23  C   UNL     1       2.320   3.411  21.039  0.00  0.00    +0.000 A 
ATOM     24  C   UNL     1       2.181   3.781  19.699  0.00  0.00    +0.000 A 
BRANCH  24  25
ATOM     25  O   UNL     1       1.122   4.570  19.349  0.00  0.00    +0.000 OA
ATOM     26  H   UNL     1       0.298   4.050  19.382  0.00  0.00    +0.000 HD
ENDBRANCH  24  25
ENDBRANCH  16  18
ENDBRANCH   3  16
BRANCH   5  27
ATOM     27  C   UNL     1       6.177   3.650  13.329  0.00  0.00    +0.000 C 
ATOM     28  N   UNL     1       6.472   3.216  12.181  0.00  0.00    +0.000 NA
ENDBRANCH   5  27
TORSDOF 6
ENDMDL
MODEL 6
REMARK VINA RESULT:      -7.2      3.532      6.054
REMARK  Name = 
REMARK  7 active torsions:
REMARK  status: ('A' for Active; 'I' for Inactive)
REMARK    1  A    between atoms: C_1  and  O_2
REMARK    2  A    between atoms: O_2  and  C_3
REMARK    3  A    between atoms: C_6  and  N_7
REMARK    4  A    between atoms: C_9  and  C_10
REMARK    5  A    between atoms: C_10  and  C_12
REMARK    6  A    between atoms: C_18  and  O_19
REMARK    7  A    between atoms: C_21  and  C_22
REMARK                            x       y       z     vdW  Elec       q    Type
REMARK                         _______ _______ _______ _____ _____    ______ ____
ROOT
ATOM      1  N   UNL     1       4.118   5.863  17.516  0.00  0.00    +0.000 N 
ATOM      2  C   UNL     1       3.503   7.125  17.479  0.00  0.00    +0.000 A 
ATOM      3  C   UNL     1       2.618   7.539  18.402  0.00  0.00    +0.000 A 
ATOM      4  C   UNL     1       2.224   6.615  19.427  0.00  0.00    +0.000 A 
ATOM      5  C   UNL     1       2.871   5.457  19.594  0.00  0.00    +0.000 A 
ATOM      6  C   UNL     1       3.890   4.996  18.619  0.00  0.00    +0.000 A 
ATOM      7  O   UNL     1       4.451   3.924  18.836  0.00  0.00    +0.000 OA
ENDROOT
BRANCH   1  11
ATOM      8  C   UNL     1       6.745   4.642  14.363  0.00  0.00    +0.000 A 
ATOM      9  C   UNL     1       5.414   4.235  14.370  0.00  0.00    +0.000 A 
ATOM     10  C   UNL     1       4.555   4.639  15.397  0.00  0.00    +0.000 A 
ATOM     11  C   UNL     1       5.007   5.438  16.460  0.00  0.00    +0.000 A 
ATOM     12  C   UNL     1       6.355   5.828  16.439  0.00  0.00    +0.000 A 
ATOM     13  C   UNL     1       7.216   5.433  15.406  0.00  0.00    +0.000 A 
BRANCH   8  15
ATOM     14  C   UNL     1       6.752   3.587  12.254  0.00  0.00    +0.000 C 
ATOM     15  O   UNL     1       7.489   4.179  13.315  0.00  0.00    +0.000 OA
ENDBRANCH   8  15
ENDBRANCH   1  11
BRANCH   3  16
ATOM     16  C   UNL     1       2.060   8.930  18.268  0.00  0.00    +0.000 C 
ATOM     17  O   UNL     1       2.396   9.647  17.325  0.00  0.00    +0.000 OA
BRANCH  16  18
ATOM     18  C   UNL     1       1.044   9.455  19.227  0.00  0.00    +0.000 A 
ATOM     19  C   UNL     1       1.277   9.202  20.588  0.00  0.00    +0.000 A 
ATOM     20  C   UNL     1       0.382   9.660  21.555  0.00  0.00    +0.000 A 
ATOM     21 CL   UNL     1       0.669   9.326  23.218  0.00  0.00    +0.000 Cl
ATOM     22  C   UNL     1      -0.749  10.383  21.184  0.00  0.00    +0.000 A 
ATOM     23  C   UNL     1      -1.006  10.623  19.834  0.00  0.00    +0.000 A 
ATOM     24  C   UNL     1      -0.130  10.137  18.860  0.00  0.00    +0.000 A 
BRANCH  24  25
ATOM     25  O   UNL     1      -0.451  10.324  17.545  0.00  0.00    +0.000 OA
ATOM     26  H   UNL     1      -1.052  11.087  17.458  0.00  0.00    +0.000 HD
ENDBRANCH  24  25
ENDBRANCH  16  18
ENDBRANCH   3  16
BRANCH   5  27
ATOM     27  C   UNL     1       2.475   4.576  20.767  0.00  0.00    +0.000 C 
ATOM     28  N   UNL     1       2.144   3.845  21.740  0.00  0.00    +0.000 NA
ENDBRANCH   5  27
TORSDOF 6
ENDMDL
MODEL 7
REMARK VINA RESULT:      -7.2      1.439      1.795
REMARK  Name = 
REMARK  7 active torsions:
REMARK  status: ('A' for Active; 'I' for Inactive)
REMARK    1  A    between atoms: C_1  and  O_2
REMARK    2  A    between atoms: O_2  and  C_3
REMARK    3  A    between atoms: C_6  and  N_7
REMARK    4  A    between atoms: C_9  and  C_10
REMARK    5  A    between atoms: C_10  and  C_12
REMARK    6  A    between atoms: C_18  and  O_19
REMARK    7  A    between atoms: C_21  and  C_22
REMARK                            x       y       z     vdW  Elec       q    Type
REMARK                         _______ _______ _______ _____ _____    ______ ____
ROOT
ATOM      1  N   UNL     1       6.524   5.456  16.790  0.00  0.00    +0.000 N 
ATOM      2  C   UNL     1       5.533   4.716  17.455  0.00  0.00    +0.000 A 
ATOM      3  C   UNL     1       4.813   3.749  16.861  0.00  0.00    +0.000 A 
ATOM      4  C   UNL     1       5.013   3.521  15.458  0.00  0.00    +0.000 A 
ATOM      5  C   UNL     1       6.029   4.093  14.806  0.00  0.00    +0.000 A 
ATOM      6  C   UNL     1       6.875   5.127  15.452  0.00  0.00    +0.000 A 
ATOM      7  O   UNL     1       7.797   5.608  14.797  0.00  0.00    +0.000 OA
ENDROOT
BRANCH   1  11
ATOM      8  C   UNL     1       8.550   8.656  18.786  0.00  0.00    +0.000 A 
ATOM      9  C   UNL     1       7.840   8.893  17.613  0.00  0.00    +0.000 A 
ATOM     10  C   UNL     1       7.174   7.849  16.964  0.00  0.00    +0.000 A 
ATOM     11  C   UNL     1       7.220   6.533  17.454  0.00  0.00    +0.000 A 
ATOM     12  C   UNL     1       7.951   6.314  18.632  0.00  0.00    +0.000 A 
ATOM     13  C   UNL     1       8.612   7.360  19.290  0.00  0.00    +0.000 A 
BRANCH   8  15
ATOM     14  C   UNL     1       9.462  10.798  18.411  0.00  0.00    +0.000 C 
ATOM     15  O   UNL     1       9.166   9.750  19.324  0.00  0.00    +0.000 OA
ENDBRANCH   8  15
ENDBRANCH   1  11
BRANCH   3  16
ATOM     16  C   UNL     1       3.806   3.006  17.697  0.00  0.00    +0.000 C 
ATOM     17  O   UNL     1       3.658   1.791  17.559  0.00  0.00    +0.000 OA
BRANCH  16  18
ATOM     18  C   UNL     1       3.011   3.699  18.752  0.00  0.00    +0.000 A 
ATOM     19  C   UNL     1       2.635   2.928  19.863  0.00  0.00    +0.000 A 
ATOM     20  C   UNL     1       1.894   3.495  20.899  0.00  0.00    +0.000 A 
ATOM     21 CL   UNL     1       1.424   2.533  22.245  0.00  0.00    +0.000 Cl
ATOM     22  C   UNL     1       1.526   4.837  20.851  0.00  0.00    +0.000 A 
ATOM     23  C   UNL     1       1.872   5.611  19.744  0.00  0.00    +0.000 A 
ATOM     24  C   UNL     1       2.585   5.038  18.688  0.00  0.00    +0.000 A 
BRANCH  24  25
ATOM     25  O   UNL     1       2.841   5.804  17.585  0.00  0.00    +0.000 OA
ATOM     26  H   UNL     1       3.592   5.429  17.089  0.00  0.00    +0.000 HD
ENDBRANCH  24  25
ENDBRANCH  16  18
ENDBRANCH   3  16
BRANCH   5  27
ATOM     27  C   UNL     1       6.248   3.721  13.349  0.00  0.00    +0.000 C 
ATOM     28  N   UNL     1       6.427   3.412  12.139  0.00  0.00    +0.000 NA
ENDBRANCH   5  27
TORSDOF 6
ENDMDL
MODEL 8
REMARK VINA RESULT:      -7.1      3.772      6.809
REMARK  Name = 
REMARK  7 active torsions:
REMARK  status: ('A' for Active; 'I' for Inactive)
REMARK    1  A    between atoms: C_1  and  O_2
REMARK    2  A    between atoms: O_2  and  C_3
REMARK    3  A    between atoms: C_6  and  N_7
REMARK    4  A    between atoms: C_9  and  C_10
REMARK    5  A    between atoms: C_10  and  C_12
REMARK    6  A    between atoms: C_18  and  O_19
REMARK    7  A    between atoms: C_21  and  C_22
REMARK                            x       y       z     vdW  Elec       q    Type
REMARK                         _______ _______ _______ _____ _____    ______ ____
ROOT
ATOM      1  N   UNL     1       2.852   6.415  19.346  0.00  0.00    +0.000 N 
ATOM      2  C   UNL     1       4.067   6.138  18.698  0.00  0.00    +0.000 A 
ATOM      3  C   UNL     1       4.742   4.986  18.861  0.00  0.00    +0.000 A 
ATOM      4  C   UNL     1       4.235   4.031  19.805  0.00  0.00    +0.000 A 
ATOM      5  C   UNL     1       3.022   4.177  20.346  0.00  0.00    +0.000 A 
ATOM      6  C   UNL     1       2.230   5.415  20.143  0.00  0.00    +0.000 A 
ATOM      7  O   UNL     1       1.120   5.480  20.665  0.00  0.00    +0.000 OA
ENDROOT
BRANCH   1  11
ATOM      8  C   UNL     1       0.968  10.234  18.900  0.00  0.00    +0.000 A 
ATOM      9  C   UNL     1       0.958   9.581  20.129  0.00  0.00    +0.000 A 
ATOM     10  C   UNL     1       1.578   8.336  20.276  0.00  0.00    +0.000 A 
ATOM     11  C   UNL     1       2.203   7.696  19.193  0.00  0.00    +0.000 A 
ATOM     12  C   UNL     1       2.193   8.366  17.960  0.00  0.00    +0.000 A 
ATOM     13  C   UNL     1       1.580   9.618  17.812  0.00  0.00    +0.000 A 
BRANCH   8  15
ATOM     14  C   UNL     1      -1.072  11.392  19.137  0.00  0.00    +0.000 C 
ATOM     15  O   UNL     1       0.324  11.438  18.876  0.00  0.00    +0.000 OA
ENDBRANCH   8  15
ENDBRANCH   1  11
BRANCH   3  16
ATOM     16  C   UNL     1       6.013   4.799  18.078  0.00  0.00    +0.000 C 
ATOM     17  O   UNL     1       7.102   4.784  18.654  0.00  0.00    +0.000 OA
BRANCH  16  18
ATOM     18  C   UNL     1       5.990   4.564  16.605  0.00  0.00    +0.000 A 
ATOM     19  C   UNL     1       7.046   5.119  15.865  0.00  0.00    +0.000 A 
ATOM     20  C   UNL     1       7.107   4.946  14.483  0.00  0.00    +0.000 A 
ATOM     21 CL   UNL     1       8.396   5.648  13.585  0.00  0.00    +0.000 Cl
ATOM     22  C   UNL     1       6.128   4.211  13.819  0.00  0.00    +0.000 A 
ATOM     23  C   UNL     1       5.061   3.672  14.537  0.00  0.00    +0.000 A 
ATOM     24  C   UNL     1       4.977   3.872  15.917  0.00  0.00    +0.000 A 
BRANCH  24  25
ATOM     25  O   UNL     1       3.880   3.396  16.578  0.00  0.00    +0.000 OA
ATOM     26  H   UNL     1       3.654   2.507  16.245  0.00  0.00    +0.000 HD
ENDBRANCH  24  25
ENDBRANCH  16  18
ENDBRANCH   3  16
BRANCH   5  27
ATOM     27  C   UNL     1       2.503   3.073  21.253  0.00  0.00    +0.000 C 
ATOM     28  N   UNL     1       2.075   2.157  22.007  0.00  0.00    +0.000 NA
ENDBRANCH   5  27
TORSDOF 6
ENDMDL
MODEL 9
REMARK VINA RESULT:      -7.0      6.118      8.648
REMARK  Name = 
REMARK  7 active torsions:
REMARK  status: ('A' for Active; 'I' for Inactive)
REMARK    1  A    between atoms: C_1  and  O_2
REMARK    2  A    between atoms: O_2  and  C_3
REMARK    3  A    between atoms: C_6  and  N_7
REMARK    4  A    between atoms: C_9  and  C_10
REMARK    5  A    between atoms: C_10  and  C_12
REMARK    6  A    between atoms: C_18  and  O_19
REMARK    7  A    between atoms: C_21  and  C_22
REMARK                            x       y       z     vdW  Elec       q    Type
REMARK                         _______ _______ _______ _____ _____    ______ ____
ROOT
ATOM      1  N   UNL     1       1.468   8.677  19.303  0.00  0.00    +0.000 N 
ATOM      2  C   UNL     1       0.796   9.689  18.598  0.00  0.00    +0.000 A 
ATOM      3  C   UNL     1      -0.003  10.593  19.191  0.00  0.00    +0.000 A 
ATOM      4  C   UNL     1      -0.244  10.464  20.600  0.00  0.00    +0.000 A 
ATOM      5  C   UNL     1       0.468   9.613  21.344  0.00  0.00    +0.000 A 
ATOM      6  C   UNL     1       1.397   8.637  20.723  0.00  0.00    +0.000 A 
ATOM      7  O   UNL     1       2.025   7.887  21.466  0.00  0.00    +0.000 OA
ENDROOT
BRANCH   1  11
ATOM      8  C   UNL     1       3.837   5.738  17.284  0.00  0.00    +0.000 A 
ATOM      9  C   UNL     1       4.078   7.094  17.088  0.00  0.00    +0.000 A 
ATOM     10  C   UNL     1       3.308   8.055  17.752  0.00  0.00    +0.000 A 
ATOM     11  C   UNL     1       2.258   7.687  18.610  0.00  0.00    +0.000 A 
ATOM     12  C   UNL     1       2.025   6.314  18.785  0.00  0.00    +0.000 A 
ATOM     13  C   UNL     1       2.801   5.350  18.127  0.00  0.00    +0.000 A 
BRANCH   8  15
ATOM     14  C   UNL     1       5.601   5.527  15.733  0.00  0.00    +0.000 C 
ATOM     15  O   UNL     1       4.646   4.896  16.576  0.00  0.00    +0.000 OA
ENDBRANCH   8  15
ENDBRANCH   1  11
BRANCH   3  16
ATOM     16  C   UNL     1      -0.634  11.650  18.325  0.00  0.00    +0.000 C 
ATOM     17  O   UNL     1       0.007  12.648  17.995  0.00  0.00    +0.000 OA
BRANCH  16  18
ATOM     18  C   UNL     1      -2.019  11.492  17.793  0.00  0.00    +0.000 A 
ATOM     19  C   UNL     1      -2.139  10.929  16.512  0.00  0.00    +0.000 A 
ATOM     20  C   UNL     1      -3.396  10.741  15.938  0.00  0.00    +0.000 A 
ATOM     21 CL   UNL     1      -3.528  10.069  14.361  0.00  0.00    +0.000 Cl
ATOM     22  C   UNL     1      -4.550  11.098  16.632  0.00  0.00    +0.000 A 
ATOM     23  C   UNL     1      -4.446  11.679  17.896  0.00  0.00    +0.000 A 
ATOM     24  C   UNL     1      -3.187  11.901  18.460  0.00  0.00    +0.000 A 
BRANCH  24  25
ATOM     25  O   UNL     1      -3.120  12.541  19.666  0.00  0.00    +0.000 OA
ATOM     26  H   UNL     1      -3.454  11.955  20.370  0.00  0.00    +0.000 HD
ENDBRANCH  24  25
ENDBRANCH  16  18
ENDBRANCH   3  16
BRANCH   5  27
ATOM     27  C   UNL     1       0.238   9.606  22.846  0.00  0.00    +0.000 C 
ATOM     28  N   UNL     1       0.045   9.602  24.093  0.00  0.00    +0.000 NA
ENDBRANCH   5  27
TORSDOF 6
ENDMDL
