MODEL 1
REMARK VINA RESULT:      -8.2      0.000      0.000
REMARK  Name = 
REMARK  7 active torsions:
REMARK  status: ('A' for Active; 'I' for Inactive)
REMARK    1  A    between atoms: C_2  and  O_3
REMARK    2  A    between atoms: C_2  and  C_4
REMARK    3  A    between atoms: C_8  and  C_10
REMARK    4  A    between atoms: C_10  and  S_11
REMARK    5  A    between atoms: S_11  and  C_12
REMARK    6  A    between atoms: N_22  and  C_23
REMARK    7  A    between atoms: C_23  and  C_24
REMARK                            x       y       z     vdW  Elec       q    Type
REMARK                         _______ _______ _______ _____ _____    ______ ____
ROOT
ATOM      1  C   UNL     1       3.416   6.224  18.517  0.00  0.00    +0.000 A 
ATOM      2  N   UNL     1       2.336   5.905  19.170  0.00  0.00    +0.000 NA
ATOM      3  C   UNL     1       2.329   4.697  19.915  0.00  0.00    +0.000 A 
ATOM      4  C   UNL     1       1.211   4.334  20.698  0.00  0.00    +0.000 A 
ATOM      5  C   UNL     1       1.183   3.139  21.445  0.00  0.00    +0.000 A 
ATOM      6  C   UNL     1       2.247   2.249  21.406  0.00  0.00    +0.000 A 
ATOM      7  C   UNL     1       3.366   2.578  20.651  0.00  0.00    +0.000 A 
ATOM      8  C   UNL     1       3.386   3.803  19.954  0.00  0.00    +0.000 A 
ATOM      9  C   UNL     1       4.613   4.217  19.278  0.00  0.00    +0.000 A 
ATOM     10  O   UNL     1       5.604   3.497  19.405  0.00  0.00    +0.000 OA
ATOM     11  N   UNL     1       4.573   5.421  18.558  0.00  0.00    +0.000 N 
ENDROOT
BRANCH   1  12
ATOM     12  S   UNL     1       3.491   7.743  17.537  0.00  0.00    +0.000 S 
BRANCH  12  13
ATOM     13  C   UNL     1       1.818   8.520  17.485  0.00  0.00    +0.000 C 
BRANCH  13  18
ATOM     14  C   UNL     1       0.800  10.244  22.162  0.00  0.00    +0.000 C 
ATOM     15  C   UNL     1       0.996  11.528  21.331  0.00  0.00    +0.000 C 
ATOM     16  C   UNL     1       0.507  11.449  19.874  0.00  0.00    +0.000 C 
ATOM     17  N   UNL     1       0.763  10.125  19.258  0.00  0.00    +0.000 N 
ATOM     18  C   UNL     1       1.680   9.926  18.216  0.00  0.00    +0.000 C 
ATOM     19  O   UNL     1       2.312  10.895  17.776  0.00  0.00    +0.000 OA
ATOM     20  C   UNL     1       0.149   9.055  20.005  0.00  0.00    +0.000 C 
ATOM     21  C   UNL     1       0.867   8.945  21.345  0.00  0.00    +0.000 C 
BRANCH  14  23
ATOM     22  O   UNL     1      -1.055  11.251  23.372  0.00  0.00    +0.000 OA
ATOM     23  C   UNL     1      -0.476  10.247  22.981  0.00  0.00    +0.000 C 
BRANCH  23  24
ATOM     24  O   UNL     1      -0.951   8.991  23.221  0.00  0.00    +0.000 OA
ATOM     25  H   UNL     1      -0.913   8.720  24.159  0.00  0.00    +0.000 HD
ENDBRANCH  23  24
ENDBRANCH  14  23
ENDBRANCH  13  18
ENDBRANCH  12  13
ENDBRANCH   1  12
BRANCH  11  26
ATOM     26  C   UNL     1       5.893   5.736  17.977  0.00  0.00    +0.000 C 
BRANCH  26  27
ATOM     27  C   UNL     1       6.113   5.155  16.581  0.00  0.00    +0.000 A 
ATOM     28  C   UNL     1       7.298   5.384  15.864  0.00  0.00    +0.000 A 
ATOM     29  C   UNL     1       7.419   4.977  14.533  0.00  0.00    +0.000 A 
ATOM     30  C   UNL     1       6.377   4.297  13.909  0.00  0.00    +0.000 A 
ATOM     31  C   UNL     1       5.212   4.017  14.619  0.00  0.00    +0.000 A 
ATOM     32  C   UNL     1       5.080   4.441  15.946  0.00  0.00    +0.000 A 
ENDBRANCH  26  27
ENDBRANCH  11  26
TORSDOF 7
ENDMDL
MODEL 2
REMARK VINA RESULT:      -8.2      0.806      1.264
REMARK  Name = 
REMARK  7 active torsions:
REMARK  status: ('A' for Active; 'I' for Inactive)
REMARK    1  A    between atoms: C_2  and  O_3
REMARK    2  A    between atoms: C_2  and  C_4
REMARK    3  A    between atoms: C_8  and  C_10
REMARK    4  A    between atoms: C_10  and  S_11
REMARK    5  A    between atoms: S_11  and  C_12
REMARK    6  A    between atoms: N_22  and  C_23
REMARK    7  A    between atoms: C_23  and  C_24
REMARK                            x       y       z     vdW  Elec       q    Type
REMARK                         _______ _______ _______ _____ _____    ______ ____
ROOT
ATOM      1  C   UNL     1       3.235   6.378  18.543  0.00  0.00    +0.000 A 
ATOM      2  N   UNL     1       2.190   5.980  19.211  0.00  0.00    +0.000 NA
ATOM      3  C   UNL     1       2.262   4.744  19.903  0.00  0.00    +0.000 A 
ATOM      4  C   UNL     1       1.187   4.294  20.700  0.00  0.00    +0.000 A 
ATOM      5  C   UNL     1       1.237   3.069  21.396  0.00  0.00    +0.000 A 
ATOM      6  C   UNL     1       2.341   2.234  21.289  0.00  0.00    +0.000 A 
ATOM      7  C   UNL     1       3.420   2.648  20.519  0.00  0.00    +0.000 A 
ATOM      8  C   UNL     1       3.361   3.901  19.874  0.00  0.00    +0.000 A 
ATOM      9  C   UNL     1       4.547   4.401  19.184  0.00  0.00    +0.000 A 
ATOM     10  O   UNL     1       5.574   3.726  19.252  0.00  0.00    +0.000 OA
ATOM     11  N   UNL     1       4.429   5.632  18.518  0.00  0.00    +0.000 N 
ENDROOT
BRANCH   1  12
ATOM     12  S   UNL     1       3.208   7.938  17.627  0.00  0.00    +0.000 S 
BRANCH  12  13
ATOM     13  C   UNL     1       1.556   8.736  17.825  0.00  0.00    +0.000 C 
BRANCH  13  18
ATOM     14  C   UNL     1      -0.116  11.442  21.795  0.00  0.00    +0.000 C 
ATOM     15  C   UNL     1       0.549  12.496  20.887  0.00  0.00    +0.000 C 
ATOM     16  C   UNL     1       0.408  12.242  19.375  0.00  0.00    +0.000 C 
ATOM     17  N   UNL     1       0.501  10.803  19.028  0.00  0.00    +0.000 N 
ATOM     18  C   UNL     1       1.568  10.253  18.303  0.00  0.00    +0.000 C 
ATOM     19  O   UNL     1       2.484  10.994  17.925  0.00  0.00    +0.000 OA
ATOM     20  C   UNL     1      -0.493  10.017  19.717  0.00  0.00    +0.000 C 
ATOM     21  C   UNL     1      -0.151  10.026  21.203  0.00  0.00    +0.000 C 
BRANCH  14  23
ATOM     22  O   UNL     1      -2.245  12.612  21.648  0.00  0.00    +0.000 OA
ATOM     23  C   UNL     1      -1.515  11.828  22.237  0.00  0.00    +0.000 C 
BRANCH  23  24
ATOM     24  O   UNL     1      -1.908  11.174  23.369  0.00  0.00    +0.000 OA
ATOM     25  H   UNL     1      -2.745  11.502  23.751  0.00  0.00    +0.000 HD
ENDBRANCH  23  24
ENDBRANCH  14  23
ENDBRANCH  13  18
ENDBRANCH  12  13
ENDBRANCH   1  12
BRANCH  11  26
ATOM     26  C   UNL     1       5.714   6.034  17.914  0.00  0.00    +0.000 C 
BRANCH  26  27
ATOM     27  C   UNL     1       5.941   5.485  16.507  0.00  0.00    +0.000 A 
ATOM     28  C   UNL     1       4.934   4.800  15.809  0.00  0.00    +0.000 A 
ATOM     29  C   UNL     1       5.206   4.173  14.591  0.00  0.00    +0.000 A 
ATOM     30  C   UNL     1       6.476   4.255  14.027  0.00  0.00    +0.000 A 
ATOM     31  C   UNL     1       7.476   4.973  14.680  0.00  0.00    +0.000 A 
ATOM     32  C   UNL     1       7.212   5.586  15.910  0.00  0.00    +0.000 A 
ENDBRANCH  26  27
ENDBRANCH  11  26
TORSDOF 7
ENDMDL
MODEL 3
REMARK VINA RESULT:      -8.2      1.648      2.329
REMARK  Name = 
REMARK  7 active torsions:
REMARK  status: ('A' for Active; 'I' for Inactive)
REMARK    1  A    between atoms: C_2  and  O_3
REMARK    2  A    between atoms: C_2  and  C_4
REMARK    3  A    between atoms: C_8  and  C_10
REMARK    4  A    between atoms: C_10  and  S_11
REMARK    5  A    between atoms: S_11  and  C_12
REMARK    6  A    between atoms: N_22  and  C_23
REMARK    7  A    between atoms: C_23  and  C_24
REMARK                            x       y       z     vdW  Elec       q    Type
REMARK                         _______ _______ _______ _____ _____    ______ ____
ROOT
ATOM      1  C   UNL     1       2.928   6.392  18.144  0.00  0.00    +0.000 A 
ATOM      2  N   UNL     1       2.060   5.979  19.022  0.00  0.00    +0.000 NA
ATOM      3  C   UNL     1       1.939   4.583  19.247  0.00  0.00    +0.000 A 
ATOM      4  C   UNL     1       1.065   4.080  20.235  0.00  0.00    +0.000 A 
ATOM      5  C   UNL     1       0.929   2.697  20.474  0.00  0.00    +0.000 A 
ATOM      6  C   UNL     1       1.627   1.770  19.713  0.00  0.00    +0.000 A 
ATOM      7  C   UNL     1       2.502   2.230  18.737  0.00  0.00    +0.000 A 
ATOM      8  C   UNL     1       2.654   3.620  18.553  0.00  0.00    +0.000 A 
ATOM      9  C   UNL     1       3.675   4.107  17.630  0.00  0.00    +0.000 A 
ATOM     10  O   UNL     1       4.407   3.273  17.097  0.00  0.00    +0.000 OA
ATOM     11  N   UNL     1       3.761   5.497  17.444  0.00  0.00    +0.000 N 
ENDROOT
BRANCH   1  12
ATOM     12  S   UNL     1       3.127   8.157  17.799  0.00  0.00    +0.000 S 
BRANCH  12  13
ATOM     13  C   UNL     1       1.482   8.988  17.896  0.00  0.00    +0.000 C 
BRANCH  13  18
ATOM     14  C   UNL     1      -0.113  11.667  21.916  0.00  0.00    +0.000 C 
ATOM     15  C   UNL     1       0.523  12.728  20.996  0.00  0.00    +0.000 C 
ATOM     16  C   UNL     1       0.348  12.479  19.487  0.00  0.00    +0.000 C 
ATOM     17  N   UNL     1       0.442  11.042  19.132  0.00  0.00    +0.000 N 
ATOM     18  C   UNL     1       1.494  10.503  18.379  0.00  0.00    +0.000 C 
ATOM     19  O   UNL     1       2.396  11.251  17.982  0.00  0.00    +0.000 OA
ATOM     20  C   UNL     1      -0.530  10.247  19.842  0.00  0.00    +0.000 C 
ATOM     21  C   UNL     1      -0.152  10.253  21.319  0.00  0.00    +0.000 C 
BRANCH  14  23
ATOM     22  O   UNL     1      -2.155  12.988  21.978  0.00  0.00    +0.000 OA
ATOM     23  C   UNL     1      -1.503  12.041  22.393  0.00  0.00    +0.000 C 
BRANCH  23  24
ATOM     24  O   UNL     1      -1.986  11.178  23.333  0.00  0.00    +0.000 OA
ATOM     25  H   UNL     1      -1.901  10.235  23.093  0.00  0.00    +0.000 HD
ENDBRANCH  23  24
ENDBRANCH  14  23
ENDBRANCH  13  18
ENDBRANCH  12  13
ENDBRANCH   1  12
BRANCH  11  26
ATOM     26  C   UNL     1       4.866   5.843  16.530  0.00  0.00    +0.000 C 
BRANCH  26  27
ATOM     27  C   UNL     1       6.144   6.289  17.239  0.00  0.00    +0.000 A 
ATOM     28  C   UNL     1       6.740   5.516  18.247  0.00  0.00    +0.000 A 
ATOM     29  C   UNL     1       7.816   6.010  18.987  0.00  0.00    +0.000 A 
ATOM     30  C   UNL     1       8.343   7.268  18.707  0.00  0.00    +0.000 A 
ATOM     31  C   UNL     1       7.797   8.030  17.677  0.00  0.00    +0.000 A 
ATOM     32  C   UNL     1       6.707   7.546  16.946  0.00  0.00    +0.000 A 
ENDBRANCH  26  27
ENDBRANCH  11  26
TORSDOF 7
ENDMDL
MODEL 4
REMARK VINA RESULT:      -8.0      0.854      1.046
REMARK  Name = 
REMARK  7 active torsions:
REMARK  status: ('A' for Active; 'I' for Inactive)
REMARK    1  A    between atoms: C_2  and  O_3
REMARK    2  A    between atoms: C_2  and  C_4
REMARK    3  A    between atoms: C_8  and  C_10
REMARK    4  A    between atoms: C_10  and  S_11
REMARK    5  A    between atoms: S_11  and  C_12
REMARK    6  A    between atoms: N_22  and  C_23
REMARK    7  A    between atoms: C_23  and  C_24
REMARK                            x       y       z     vdW  Elec       q    Type
REMARK                         _______ _______ _______ _____ _____    ______ ____
ROOT
ATOM      1  C   UNL     1       3.211   6.393  18.535  0.00  0.00    +0.000 A 
ATOM      2  N   UNL     1       2.181   5.991  19.222  0.00  0.00    +0.000 NA
ATOM      3  C   UNL     1       2.275   4.762  19.925  0.00  0.00    +0.000 A 
ATOM      4  C   UNL     1       1.216   4.309  20.741  0.00  0.00    +0.000 A 
ATOM      5  C   UNL     1       1.288   3.090  21.446  0.00  0.00    +0.000 A 
ATOM      6  C   UNL     1       2.399   2.266  21.331  0.00  0.00    +0.000 A 
ATOM      7  C   UNL     1       3.463   2.683  20.541  0.00  0.00    +0.000 A 
ATOM      8  C   UNL     1       3.382   3.929  19.887  0.00  0.00    +0.000 A 
ATOM      9  C   UNL     1       4.553   4.435  19.175  0.00  0.00    +0.000 A 
ATOM     10  O   UNL     1       5.587   3.770  19.233  0.00  0.00    +0.000 OA
ATOM     11  N   UNL     1       4.413   5.658  18.499  0.00  0.00    +0.000 N 
ENDROOT
BRANCH   1  12
ATOM     12  S   UNL     1       3.157   7.945  17.607  0.00  0.00    +0.000 S 
BRANCH  12  13
ATOM     13  C   UNL     1       1.504   8.735  17.833  0.00  0.00    +0.000 C 
BRANCH  13  18
ATOM     14  C   UNL     1      -0.210  11.414  21.804  0.00  0.00    +0.000 C 
ATOM     15  C   UNL     1       0.474  12.472  20.914  0.00  0.00    +0.000 C 
ATOM     16  C   UNL     1       0.352  12.232  19.398  0.00  0.00    +0.000 C 
ATOM     17  N   UNL     1       0.443  10.796  19.040  0.00  0.00    +0.000 N 
ATOM     18  C   UNL     1       1.516  10.248  18.324  0.00  0.00    +0.000 C 
ATOM     19  O   UNL     1       2.442  10.987  17.966  0.00  0.00    +0.000 OA
ATOM     20  C   UNL     1      -0.565  10.009  19.708  0.00  0.00    +0.000 C 
ATOM     21  C   UNL     1      -0.243  10.003  21.198  0.00  0.00    +0.000 C 
BRANCH  14  23
ATOM     22  O   UNL     1      -2.094  11.589  23.334  0.00  0.00    +0.000 OA
ATOM     23  C   UNL     1      -1.612  11.802  22.230  0.00  0.00    +0.000 C 
BRANCH  23  24
ATOM     24  O   UNL     1      -2.297  12.459  21.250  0.00  0.00    +0.000 OA
ATOM     25  H   UNL     1      -1.829  12.500  20.393  0.00  0.00    +0.000 HD
ENDBRANCH  23  24
ENDBRANCH  14  23
ENDBRANCH  13  18
ENDBRANCH  12  13
ENDBRANCH   1  12
BRANCH  11  26
ATOM     26  C   UNL     1       5.685   6.067  17.874  0.00  0.00    +0.000 C 
BRANCH  26  27
ATOM     27  C   UNL     1       5.974   5.379  16.541  0.00  0.00    +0.000 A 
ATOM     28  C   UNL     1       7.245   5.422  15.947  0.00  0.00    +0.000 A 
ATOM     29  C   UNL     1       7.451   4.921  14.660  0.00  0.00    +0.000 A 
ATOM     30  C   UNL     1       6.403   4.329  13.960  0.00  0.00    +0.000 A 
ATOM     31  C   UNL     1       5.146   4.232  14.553  0.00  0.00    +0.000 A 
ATOM     32  C   UNL     1       4.931   4.750  15.834  0.00  0.00    +0.000 A 
ENDBRANCH  26  27
ENDBRANCH  11  26
TORSDOF 7
ENDMDL
MODEL 5
REMARK VINA RESULT:      -8.0      2.098      2.972
REMARK  Name = 
REMARK  7 active torsions:
REMARK  status: ('A' for Active; 'I' for Inactive)
REMARK    1  A    between atoms: C_2  and  O_3
REMARK    2  A    between atoms: C_2  and  C_4
REMARK    3  A    between atoms: C_8  and  C_10
REMARK    4  A    between atoms: C_10  and  S_11
REMARK    5  A    between atoms: S_11  and  C_12
REMARK    6  A    between atoms: N_22  and  C_23
REMARK    7  A    between atoms: C_23  and  C_24
REMARK                            x       y       z     vdW  Elec       q    Type
REMARK                         _______ _______ _______ _____ _____    ______ ____
ROOT
ATOM      1  C   UNL     1       2.925   6.414  18.051  0.00  0.00    +0.000 A 
ATOM      2  N   UNL     1       2.053   5.952  18.900  0.00  0.00    +0.000 NA
ATOM      3  C   UNL     1       1.966   4.547  19.083  0.00  0.00    +0.000 A 
ATOM      4  C   UNL     1       1.089   3.993  20.039  0.00  0.00    +0.000 A 
ATOM      5  C   UNL     1       0.986   2.600  20.237  0.00  0.00    +0.000 A 
ATOM      6  C   UNL     1       1.723   1.715  19.462  0.00  0.00    +0.000 A 
ATOM      7  C   UNL     1       2.602   2.227  18.516  0.00  0.00    +0.000 A 
ATOM      8  C   UNL     1       2.719   3.625  18.375  0.00  0.00    +0.000 A 
ATOM      9  C   UNL     1       3.743   4.166  17.485  0.00  0.00    +0.000 A 
ATOM     10  O   UNL     1       4.506   3.368  16.942  0.00  0.00    +0.000 OA
ATOM     11  N   UNL     1       3.794   5.562  17.341  0.00  0.00    +0.000 N 
ENDROOT
BRANCH   1  12
ATOM     12  S   UNL     1       3.081   8.193  17.760  0.00  0.00    +0.000 S 
BRANCH  12  13
ATOM     13  C   UNL     1       1.464   9.013  18.102  0.00  0.00    +0.000 C 
BRANCH  13  18
ATOM     14  C   UNL     1      -1.670  12.049  20.718  0.00  0.00    +0.000 C 
ATOM     15  C   UNL     1      -0.829  11.360  21.811  0.00  0.00    +0.000 C 
ATOM     16  C   UNL     1       0.635  11.073  21.430  0.00  0.00    +0.000 C 
ATOM     17  N   UNL     1       0.784  10.661  20.014  0.00  0.00    +0.000 N 
ATOM     18  C   UNL     1       1.172   9.371  19.624  0.00  0.00    +0.000 C 
ATOM     19  O   UNL     1       1.407   8.524  20.495  0.00  0.00    +0.000 OA
ATOM     20  C   UNL     1       0.263  11.653  19.106  0.00  0.00    +0.000 C 
ATOM     21  C   UNL     1      -1.251  11.701  19.283  0.00  0.00    +0.000 C 
BRANCH  14  23
ATOM     22  O   UNL     1      -1.183  14.196  21.755  0.00  0.00    +0.000 OA
ATOM     23  C   UNL     1      -1.725  13.558  20.864  0.00  0.00    +0.000 C 
BRANCH  23  24
ATOM     24  O   UNL     1      -2.430  14.158  19.862  0.00  0.00    +0.000 OA
ATOM     25  H   UNL     1      -3.023  14.875  20.161  0.00  0.00    +0.000 HD
ENDBRANCH  23  24
ENDBRANCH  14  23
ENDBRANCH  13  18
ENDBRANCH  12  13
ENDBRANCH   1  12
BRANCH  11  26
ATOM     26  C   UNL     1       4.906   5.964  16.458  0.00  0.00    +0.000 C 
BRANCH  26  27
ATOM     27  C   UNL     1       6.171   6.386  17.202  0.00  0.00    +0.000 A 
ATOM     28  C   UNL     1       6.738   5.589  18.209  0.00  0.00    +0.000 A 
ATOM     29  C   UNL     1       7.802   6.060  18.981  0.00  0.00    +0.000 A 
ATOM     30  C   UNL     1       8.346   7.318  18.736  0.00  0.00    +0.000 A 
ATOM     31  C   UNL     1       7.829   8.104  17.708  0.00  0.00    +0.000 A 
ATOM     32  C   UNL     1       6.751   7.643  16.944  0.00  0.00    +0.000 A 
ENDBRANCH  26  27
ENDBRANCH  11  26
TORSDOF 7
ENDMDL
MODEL 6
REMARK VINA RESULT:      -8.0      3.334      9.457
REMARK  Name = 
REMARK  7 active torsions:
REMARK  status: ('A' for Active; 'I' for Inactive)
REMARK    1  A    between atoms: C_2  and  O_3
REMARK    2  A    between atoms: C_2  and  C_4
REMARK    3  A    between atoms: C_8  and  C_10
REMARK    4  A    between atoms: C_10  and  S_11
REMARK    5  A    between atoms: S_11  and  C_12
REMARK    6  A    between atoms: N_22  and  C_23
REMARK    7  A    between atoms: C_23  and  C_24
REMARK                            x       y       z     vdW  Elec       q    Type
REMARK                         _______ _______ _______ _____ _____    ______ ____
ROOT
ATOM      1  C   UNL     1       1.289  10.723  18.251  0.00  0.00    +0.000 A 
ATOM      2  N   UNL     1       2.354  11.455  18.101  0.00  0.00    +0.000 NA
ATOM      3  C   UNL     1       2.266  12.843  18.385  0.00  0.00    +0.000 A 
ATOM      4  C   UNL     1       3.404  13.674  18.306  0.00  0.00    +0.000 A 
ATOM      5  C   UNL     1       3.339  15.055  18.583  0.00  0.00    +0.000 A 
ATOM      6  C   UNL     1       2.132  15.659  18.909  0.00  0.00    +0.000 A 
ATOM      7  C   UNL     1       0.993  14.870  19.002  0.00  0.00    +0.000 A 
ATOM      8  C   UNL     1       1.098  13.484  18.767  0.00  0.00    +0.000 A 
ATOM      9  C   UNL     1      -0.064  12.632  19.004  0.00  0.00    +0.000 A 
ATOM     10  O   UNL     1      -1.075  13.163  19.464  0.00  0.00    +0.000 OA
ATOM     11  N   UNL     1       0.073  11.265  18.714  0.00  0.00    +0.000 N 
ENDROOT
BRANCH   1  12
ATOM     12  S   UNL     1       1.327   8.949  17.896  0.00  0.00    +0.000 S 
BRANCH  12  13
ATOM     13  C   UNL     1       2.444   8.108  19.100  0.00  0.00    +0.000 C 
BRANCH  13  18
ATOM     14  C   UNL     1       6.050   4.955  17.386  0.00  0.00    +0.000 C 
ATOM     15  C   UNL     1       4.889   4.014  17.766  0.00  0.00    +0.000 C 
ATOM     16  C   UNL     1       3.478   4.580  17.522  0.00  0.00    +0.000 C 
ATOM     17  N   UNL     1       3.385   6.028  17.827  0.00  0.00    +0.000 N 
ATOM     18  C   UNL     1       2.637   6.543  18.896  0.00  0.00    +0.000 C 
ATOM     19  O   UNL     1       2.016   5.761  19.628  0.00  0.00    +0.000 OA
ATOM     20  C   UNL     1       4.327   6.803  17.058  0.00  0.00    +0.000 C 
ATOM     21  C   UNL     1       5.729   6.449  17.539  0.00  0.00    +0.000 C 
BRANCH  14  23
ATOM     22  O   UNL     1       6.269   3.776  15.270  0.00  0.00    +0.000 OA
ATOM     23  C   UNL     1       6.594   4.706  15.993  0.00  0.00    +0.000 C 
BRANCH  23  24
ATOM     24  O   UNL     1       7.482   5.664  15.596  0.00  0.00    +0.000 OA
ATOM     25  H   UNL     1       7.075   6.528  15.393  0.00  0.00    +0.000 HD
ENDBRANCH  23  24
ENDBRANCH  14  23
ENDBRANCH  13  18
ENDBRANCH  12  13
ENDBRANCH   1  12
BRANCH  11  26
ATOM     26  C   UNL     1      -1.158  10.525  19.051  0.00  0.00    +0.000 C 
BRANCH  26  27
ATOM     27  C   UNL     1      -2.206  10.518  17.939  0.00  0.00    +0.000 A 
ATOM     28  C   UNL     1      -1.968   9.897  16.703  0.00  0.00    +0.000 A 
ATOM     29  C   UNL     1      -2.873  10.033  15.648  0.00  0.00    +0.000 A 
ATOM     30  C   UNL     1      -4.050  10.756  15.821  0.00  0.00    +0.000 A 
ATOM     31  C   UNL     1      -4.327  11.338  17.056  0.00  0.00    +0.000 A 
ATOM     32  C   UNL     1      -3.414  11.220  18.109  0.00  0.00    +0.000 A 
ENDBRANCH  26  27
ENDBRANCH  11  26
TORSDOF 7
ENDMDL
MODEL 7
REMARK VINA RESULT:      -7.9      1.743      2.406
REMARK  Name = 
REMARK  7 active torsions:
REMARK  status: ('A' for Active; 'I' for Inactive)
REMARK    1  A    between atoms: C_2  and  O_3
REMARK    2  A    between atoms: C_2  and  C_4
REMARK    3  A    between atoms: C_8  and  C_10
REMARK    4  A    between atoms: C_10  and  S_11
REMARK    5  A    between atoms: S_11  and  C_12
REMARK    6  A    between atoms: N_22  and  C_23
REMARK    7  A    between atoms: C_23  and  C_24
REMARK                            x       y       z     vdW  Elec       q    Type
REMARK                         _______ _______ _______ _____ _____    ______ ____
ROOT
ATOM      1  C   UNL     1       2.905   6.477  18.095  0.00  0.00    +0.000 A 
ATOM      2  N   UNL     1       1.999   6.029  18.916  0.00  0.00    +0.000 NA
ATOM      3  C   UNL     1       1.902   4.627  19.115  0.00  0.00    +0.000 A 
ATOM      4  C   UNL     1       0.986   4.087  20.044  0.00  0.00    +0.000 A 
ATOM      5  C   UNL     1       0.873   2.698  20.257  0.00  0.00    +0.000 A 
ATOM      6  C   UNL     1       1.639   1.801  19.524  0.00  0.00    +0.000 A 
ATOM      7  C   UNL     1       2.555   2.298  18.607  0.00  0.00    +0.000 A 
ATOM      8  C   UNL     1       2.681   3.693  18.450  0.00  0.00    +0.000 A 
ATOM      9  C   UNL     1       3.740   4.221  17.595  0.00  0.00    +0.000 A 
ATOM     10  O   UNL     1       4.523   3.413  17.094  0.00  0.00    +0.000 OA
ATOM     11  N   UNL     1       3.799   5.614  17.433  0.00  0.00    +0.000 N 
ENDROOT
BRANCH   1  12
ATOM     12  S   UNL     1       3.076   8.251  17.785  0.00  0.00    +0.000 S 
BRANCH  12  13
ATOM     13  C   UNL     1       1.420   9.056  17.909  0.00  0.00    +0.000 C 
BRANCH  13  18
ATOM     14  C   UNL     1      -0.311  11.568  21.980  0.00  0.00    +0.000 C 
ATOM     15  C   UNL     1       0.348  12.667  21.123  0.00  0.00    +0.000 C 
ATOM     16  C   UNL     1       0.221  12.478  19.601  0.00  0.00    +0.000 C 
ATOM     17  N   UNL     1       0.333  11.057  19.193  0.00  0.00    +0.000 N 
ATOM     18  C   UNL     1       1.411  10.551  18.452  0.00  0.00    +0.000 C 
ATOM     19  O   UNL     1       2.321  11.318  18.114  0.00  0.00    +0.000 OA
ATOM     20  C   UNL     1      -0.657  10.231  19.839  0.00  0.00    +0.000 C 
ATOM     21  C   UNL     1      -0.326  10.179  21.327  0.00  0.00    +0.000 C 
BRANCH  14  23
ATOM     22  O   UNL     1      -2.272  11.463  23.418  0.00  0.00    +0.000 OA
ATOM     23  C   UNL     1      -1.717  11.918  22.428  0.00  0.00    +0.000 C 
BRANCH  23  24
ATOM     24  O   UNL     1      -2.313  12.841  21.618  0.00  0.00    +0.000 OA
ATOM     25  H   UNL     1      -1.862  13.708  21.600  0.00  0.00    +0.000 HD
ENDBRANCH  23  24
ENDBRANCH  14  23
ENDBRANCH  13  18
ENDBRANCH  12  13
ENDBRANCH   1  12
BRANCH  11  26
ATOM     26  C   UNL     1       4.946   6.002  16.589  0.00  0.00    +0.000 C 
BRANCH  26  27
ATOM     27  C   UNL     1       6.135   6.558  17.370  0.00  0.00    +0.000 A 
ATOM     28  C   UNL     1       6.691   7.813  17.077  0.00  0.00    +0.000 A 
ATOM     29  C   UNL     1       7.870   8.236  17.696  0.00  0.00    +0.000 A 
ATOM     30  C   UNL     1       8.491   7.433  18.649  0.00  0.00    +0.000 A 
ATOM     31  C   UNL     1       7.927   6.206  18.990  0.00  0.00    +0.000 A 
ATOM     32  C   UNL     1       6.757   5.770  18.358  0.00  0.00    +0.000 A 
ENDBRANCH  26  27
ENDBRANCH  11  26
TORSDOF 7
ENDMDL
MODEL 8
REMARK VINA RESULT:      -7.8      1.661      2.294
REMARK  Name = 
REMARK  7 active torsions:
REMARK  status: ('A' for Active; 'I' for Inactive)
REMARK    1  A    between atoms: C_2  and  O_3
REMARK    2  A    between atoms: C_2  and  C_4
REMARK    3  A    between atoms: C_8  and  C_10
REMARK    4  A    between atoms: C_10  and  S_11
REMARK    5  A    between atoms: S_11  and  C_12
REMARK    6  A    between atoms: N_22  and  C_23
REMARK    7  A    between atoms: C_23  and  C_24
REMARK                            x       y       z     vdW  Elec       q    Type
REMARK                         _______ _______ _______ _____ _____    ______ ____
ROOT
ATOM      1  C   UNL     1       3.104   6.396  18.596  0.00  0.00    +0.000 A 
ATOM      2  N   UNL     1       2.086   5.923  19.255  0.00  0.00    +0.000 NA
ATOM      3  C   UNL     1       2.229   4.677  19.919  0.00  0.00    +0.000 A 
ATOM      4  C   UNL     1       1.182   4.149  20.704  0.00  0.00    +0.000 A 
ATOM      5  C   UNL     1       1.303   2.912  21.372  0.00  0.00    +0.000 A 
ATOM      6  C   UNL     1       2.453   2.145  21.246  0.00  0.00    +0.000 A 
ATOM      7  C   UNL     1       3.506   2.638  20.486  0.00  0.00    +0.000 A 
ATOM      8  C   UNL     1       3.375   3.899  19.870  0.00  0.00    +0.000 A 
ATOM      9  C   UNL     1       4.529   4.483  19.192  0.00  0.00    +0.000 A 
ATOM     10  O   UNL     1       5.593   3.866  19.245  0.00  0.00    +0.000 OA
ATOM     11  N   UNL     1       4.340   5.720  18.554  0.00  0.00    +0.000 N 
ENDROOT
BRANCH   1  12
ATOM     12  S   UNL     1       2.988   7.973  17.717  0.00  0.00    +0.000 S 
BRANCH  12  13
ATOM     13  C   UNL     1       1.352   8.750  18.069  0.00  0.00    +0.000 C 
BRANCH  13  18
ATOM     14  C   UNL     1      -1.719  12.087  20.375  0.00  0.00    +0.000 C 
ATOM     15  C   UNL     1      -0.741  11.657  21.488  0.00  0.00    +0.000 C 
ATOM     16  C   UNL     1       0.697  11.369  21.022  0.00  0.00    +0.000 C 
ATOM     17  N   UNL     1       0.745  10.701  19.699  0.00  0.00    +0.000 N 
ATOM     18  C   UNL     1       1.176   9.379  19.519  0.00  0.00    +0.000 C 
ATOM     19  O   UNL     1       1.541   8.725  20.505  0.00  0.00    +0.000 OA
ATOM     20  C   UNL     1       0.082  11.477  18.680  0.00  0.00    +0.000 C 
ATOM     21  C   UNL     1      -1.409  11.490  18.995  0.00  0.00    +0.000 C 
BRANCH  14  23
ATOM     22  O   UNL     1      -0.924  14.370  20.094  0.00  0.00    +0.000 OA
ATOM     23  C   UNL     1      -1.855  13.592  20.243  0.00  0.00    +0.000 C 
BRANCH  23  24
ATOM     24  O   UNL     1      -3.155  14.006  20.274  0.00  0.00    +0.000 OA
ATOM     25  H   UNL     1      -3.727  13.583  19.605  0.00  0.00    +0.000 HD
ENDBRANCH  23  24
ENDBRANCH  14  23
ENDBRANCH  13  18
ENDBRANCH  12  13
ENDBRANCH   1  12
BRANCH  11  26
ATOM     26  C   UNL     1       5.599   6.209  17.961  0.00  0.00    +0.000 C 
BRANCH  26  27
ATOM     27  C   UNL     1       5.902   5.633  16.578  0.00  0.00    +0.000 A 
ATOM     28  C   UNL     1       4.888   5.127  15.750  0.00  0.00    +0.000 A 
ATOM     29  C   UNL     1       5.199   4.467  14.559  0.00  0.00    +0.000 A 
ATOM     30  C   UNL     1       6.524   4.336  14.154  0.00  0.00    +0.000 A 
ATOM     31  C   UNL     1       7.541   4.874  14.938  0.00  0.00    +0.000 A 
ATOM     32  C   UNL     1       7.235   5.520  16.141  0.00  0.00    +0.000 A 
ENDBRANCH  26  27
ENDBRANCH  11  26
TORSDOF 7
ENDMDL
MODEL 9
REMARK VINA RESULT:      -7.8      2.210      3.257
REMARK  Name = 
REMARK  7 active torsions:
REMARK  status: ('A' for Active; 'I' for Inactive)
REMARK    1  A    between atoms: C_2  and  O_3
REMARK    2  A    between atoms: C_2  and  C_4
REMARK    3  A    between atoms: C_8  and  C_10
REMARK    4  A    between atoms: C_10  and  S_11
REMARK    5  A    between atoms: S_11  and  C_12
REMARK    6  A    between atoms: N_22  and  C_23
REMARK    7  A    between atoms: C_23  and  C_24
REMARK                            x       y       z     vdW  Elec       q    Type
REMARK                         _______ _______ _______ _____ _____    ______ ____
ROOT
ATOM      1  C   UNL     1       2.884   6.559  18.189  0.00  0.00    +0.000 A 
ATOM      2  N   UNL     1       2.037   6.117  19.073  0.00  0.00    +0.000 NA
ATOM      3  C   UNL     1       1.948   4.716  19.281  0.00  0.00    +0.000 A 
ATOM      4  C   UNL     1       1.098   4.183  20.275  0.00  0.00    +0.000 A 
ATOM      5  C   UNL     1       0.993   2.794  20.497  0.00  0.00    +0.000 A 
ATOM      6  C   UNL     1       1.698   1.892  19.713  0.00  0.00    +0.000 A 
ATOM      7  C   UNL     1       2.549   2.382  18.731  0.00  0.00    +0.000 A 
ATOM      8  C   UNL     1       2.671   3.777  18.564  0.00  0.00    +0.000 A 
ATOM      9  C   UNL     1       3.669   4.297  17.633  0.00  0.00    +0.000 A 
ATOM     10  O   UNL     1       4.409   3.484  17.079  0.00  0.00    +0.000 OA
ATOM     11  N   UNL     1       3.724   5.690  17.465  0.00  0.00    +0.000 N 
ENDROOT
BRANCH   1  12
ATOM     12  S   UNL     1       3.043   8.332  17.864  0.00  0.00    +0.000 S 
BRANCH  12  13
ATOM     13  C   UNL     1       1.383   9.127  17.992  0.00  0.00    +0.000 C 
BRANCH  13  18
ATOM     14  C   UNL     1      -0.960  13.269  19.792  0.00  0.00    +0.000 C 
ATOM     15  C   UNL     1      -0.537  12.504  21.063  0.00  0.00    +0.000 C 
ATOM     16  C   UNL     1       0.799  11.747  20.959  0.00  0.00    +0.000 C 
ATOM     17  N   UNL     1       1.003  11.132  19.625  0.00  0.00    +0.000 N 
ATOM     18  C   UNL     1       1.014   9.747  19.409  0.00  0.00    +0.000 C 
ATOM     19  O   UNL     1       0.848   8.986  20.371  0.00  0.00    +0.000 OA
ATOM     20  C   UNL     1       0.951  12.111  18.567  0.00  0.00    +0.000 C 
ATOM     21  C   UNL     1      -0.480  12.632  18.480  0.00  0.00    +0.000 C 
BRANCH  14  23
ATOM     22  O   UNL     1      -0.336  15.408  18.814  0.00  0.00    +0.000 OA
ATOM     23  C   UNL     1      -0.556  14.731  19.808  0.00  0.00    +0.000 C 
BRANCH  23  24
ATOM     24  O   UNL     1      -0.491  15.244  21.071  0.00  0.00    +0.000 OA
ATOM     25  H   UNL     1      -1.183  14.912  21.675  0.00  0.00    +0.000 HD
ENDBRANCH  23  24
ENDBRANCH  14  23
ENDBRANCH  13  18
ENDBRANCH  12  13
ENDBRANCH   1  12
BRANCH  11  26
ATOM     26  C   UNL     1       4.809   6.070  16.540  0.00  0.00    +0.000 C 
BRANCH  26  27
ATOM     27  C   UNL     1       6.114   6.457  17.235  0.00  0.00    +0.000 A 
ATOM     28  C   UNL     1       6.699   5.641  18.216  0.00  0.00    +0.000 A 
ATOM     29  C   UNL     1       7.804   6.081  18.947  0.00  0.00    +0.000 A 
ATOM     30  C   UNL     1       8.370   7.326  18.684  0.00  0.00    +0.000 A 
ATOM     31  C   UNL     1       7.834   8.129  17.681  0.00  0.00    +0.000 A 
ATOM     32  C   UNL     1       6.715   7.699  16.959  0.00  0.00    +0.000 A 
ENDBRANCH  26  27
ENDBRANCH  11  26
TORSDOF 7
ENDMDL
