MODEL 1
REMARK VINA RESULT:      -6.6      0.000      0.000
REMARK  Name = 
REMARK  3 active torsions:
REMARK  status: ('A' for Active; 'I' for Inactive)
REMARK    1  A    between atoms: C_1  and  C_2
REMARK    2  A    between atoms: C_2  and  C_3
REMARK    3  A    between atoms: C_10  and  C_11
REMARK                            x       y       z     vdW  Elec       q    Type
REMARK                         _______ _______ _______ _____ _____    ______ ____
ROOT
ATOM      1  C   UNL     1      -1.739  12.611  22.049  0.00  0.00    +0.000 A 
ATOM      2  N   UNL     1      -0.735  11.809  21.630  0.00  0.00    +0.000 NA
ATOM      3  C   UNL     1      -0.770  11.280  20.377  0.00  0.00    +0.000 A 
ATOM      4  N   UNL     1       0.205  10.383  19.969  0.00  0.00    +0.000 N 
ATOM      5  C   UNL     1       0.864   9.549  20.977  0.00  0.00    +0.000 C 
ATOM      6  C   UNL     1       1.293   8.239  20.274  0.00  0.00    +0.000 C 
ATOM      7  N   UNL     1       2.086   8.457  19.044  0.00  0.00    +0.000 N 
ATOM      8  C   UNL     1       2.814   7.458  18.409  0.00  0.00    +0.000 C 
ATOM      9  C   UNL     1       3.055   6.154  19.130  0.00  0.00    +0.000 C 
ATOM     10  O   UNL     1       3.282   7.609  17.282  0.00  0.00    +0.000 OA
ATOM     11  C   UNL     1       1.623   9.549  18.169  0.00  0.00    +0.000 C 
ATOM     12  C   UNL     1       1.154  10.811  18.929  0.00  0.00    +0.000 C 
ATOM     13  C   UNL     1      -1.917  11.541  19.578  0.00  0.00    +0.000 A 
ATOM     14  C   UNL     1      -2.376  11.064  18.284  0.00  0.00    +0.000 A 
ATOM     15  C   UNL     1      -3.638  11.525  17.977  0.00  0.00    +0.000 A 
ATOM     16  S   UNL     1      -4.252  12.580  19.154  0.00  0.00    +0.000 S 
ATOM     17  C   UNL     1      -2.879  12.362  20.144  0.00  0.00    +0.000 A 
ATOM     18  N   UNL     1      -2.835  12.938  21.354  0.00  0.00    +0.000 NA
ATOM     19  C   UNL     1      -4.412  11.156  16.744  0.00  0.00    +0.000 C 
ATOM     20  C   UNL     1      -3.866   9.849  16.148  0.00  0.00    +0.000 C 
ATOM     21  C   UNL     1      -2.346   9.899  16.022  0.00  0.00    +0.000 C 
ATOM     22  C   UNL     1      -1.662  10.112  17.371  0.00  0.00    +0.000 C 
ENDROOT
BRANCH   1  24
ATOM     23  C   UNL     1      -3.030  13.660  23.921  0.00  0.00    +0.000 C 
ATOM     24  C   UNL     1      -1.676  13.136  23.461  0.00  0.00    +0.000 C 
ENDBRANCH   1  24
TORSDOF 1
ENDMDL
MODEL 2
REMARK VINA RESULT:      -6.5      5.332      7.950
REMARK  Name = 
REMARK  3 active torsions:
REMARK  status: ('A' for Active; 'I' for Inactive)
REMARK    1  A    between atoms: C_1  and  C_2
REMARK    2  A    between atoms: C_2  and  C_3
REMARK    3  A    between atoms: C_10  and  C_11
REMARK                            x       y       z     vdW  Elec       q    Type
REMARK                         _______ _______ _______ _____ _____    ______ ____
ROOT
ATOM      1  C   UNL     1       2.564   3.391  20.946  0.00  0.00    +0.000 A 
ATOM      2  N   UNL     1       3.435   3.357  19.913  0.00  0.00    +0.000 NA
ATOM      3  C   UNL     1       3.680   4.487  19.198  0.00  0.00    +0.000 A 
ATOM      4  N   UNL     1       4.500   4.444  18.080  0.00  0.00    +0.000 N 
ATOM      5  C   UNL     1       4.590   3.196  17.319  0.00  0.00    +0.000 C 
ATOM      6  C   UNL     1       4.905   3.578  15.853  0.00  0.00    +0.000 C 
ATOM      7  N   UNL     1       6.078   4.470  15.711  0.00  0.00    +0.000 N 
ATOM      8  C   UNL     1       6.718   4.715  14.502  0.00  0.00    +0.000 C 
ATOM      9  C   UNL     1       6.408   3.836  13.315  0.00  0.00    +0.000 C 
ATOM     10  O   UNL     1       7.543   5.618  14.373  0.00  0.00    +0.000 OA
ATOM     11  C   UNL     1       6.184   5.551  16.707  0.00  0.00    +0.000 C 
ATOM     12  C   UNL     1       5.803   5.125  18.144  0.00  0.00    +0.000 C 
ATOM     13  C   UNL     1       2.942   5.656  19.529  0.00  0.00    +0.000 A 
ATOM     14  C   UNL     1       2.823   6.978  18.936  0.00  0.00    +0.000 A 
ATOM     15  C   UNL     1       1.868   7.747  19.566  0.00  0.00    +0.000 A 
ATOM     16  S   UNL     1       1.172   6.963  20.898  0.00  0.00    +0.000 S 
ATOM     17  C   UNL     1       2.067   5.541  20.597  0.00  0.00    +0.000 A 
ATOM     18  N   UNL     1       1.855   4.451  21.350  0.00  0.00    +0.000 NA
ATOM     19  C   UNL     1       1.465   9.131  19.145  0.00  0.00    +0.000 C 
ATOM     20  C   UNL     1       1.855   9.374  17.679  0.00  0.00    +0.000 C 
ATOM     21  C   UNL     1       3.303   8.967  17.424  0.00  0.00    +0.000 C 
ATOM     22  C   UNL     1       3.551   7.492  17.729  0.00  0.00    +0.000 C 
ENDROOT
BRANCH   1  24
ATOM     23  C   UNL     1       1.002   2.179  22.484  0.00  0.00    +0.000 C 
ATOM     24  C   UNL     1       2.292   2.102  21.679  0.00  0.00    +0.000 C 
ENDBRANCH   1  24
TORSDOF 1
ENDMDL
MODEL 3
REMARK VINA RESULT:      -6.5      3.832      7.579
REMARK  Name = 
REMARK  3 active torsions:
REMARK  status: ('A' for Active; 'I' for Inactive)
REMARK    1  A    between atoms: C_1  and  C_2
REMARK    2  A    between atoms: C_2  and  C_3
REMARK    3  A    between atoms: C_10  and  C_11
REMARK                            x       y       z     vdW  Elec       q    Type
REMARK                         _______ _______ _______ _____ _____    ______ ____
ROOT
ATOM      1  C   UNL     1      -2.980  11.173  16.713  0.00  0.00    +0.000 A 
ATOM      2  N   UNL     1      -3.793  11.757  17.623  0.00  0.00    +0.000 NA
ATOM      3  C   UNL     1      -3.380  11.889  18.912  0.00  0.00    +0.000 A 
ATOM      4  N   UNL     1      -4.238  12.402  19.873  0.00  0.00    +0.000 N 
ATOM      5  C   UNL     1      -5.681  12.221  19.699  0.00  0.00    +0.000 C 
ATOM      6  C   UNL     1      -6.310  12.187  21.112  0.00  0.00    +0.000 C 
ATOM      7  N   UNL     1      -5.934  13.343  21.957  0.00  0.00    +0.000 N 
ATOM      8  C   UNL     1      -6.584  13.678  23.138  0.00  0.00    +0.000 C 
ATOM      9  C   UNL     1      -7.909  13.028  23.457  0.00  0.00    +0.000 C 
ATOM     10  O   UNL     1      -6.122  14.502  23.926  0.00  0.00    +0.000 OA
ATOM     11  C   UNL     1      -4.523  13.762  21.877  0.00  0.00    +0.000 C 
ATOM     12  C   UNL     1      -3.932  13.721  20.448  0.00  0.00    +0.000 C 
ATOM     13  C   UNL     1      -2.120  11.333  19.267  0.00  0.00    +0.000 A 
ATOM     14  C   UNL     1      -1.411  11.156  20.523  0.00  0.00    +0.000 A 
ATOM     15  C   UNL     1      -0.245  10.438  20.367  0.00  0.00    +0.000 A 
ATOM     16  S   UNL     1       0.067  10.045  18.748  0.00  0.00    +0.000 S 
ATOM     17  C   UNL     1      -1.404  10.744  18.237  0.00  0.00    +0.000 A 
ATOM     18  N   UNL     1      -1.769  10.655  16.950  0.00  0.00    +0.000 NA
ATOM     19  C   UNL     1       0.671  10.033  21.486  0.00  0.00    +0.000 C 
ATOM     20  C   UNL     1      -0.082  10.063  22.824  0.00  0.00    +0.000 C 
ATOM     21  C   UNL     1      -0.844  11.374  22.994  0.00  0.00    +0.000 C 
ATOM     22  C   UNL     1      -1.869  11.594  21.883  0.00  0.00    +0.000 C 
ENDROOT
BRANCH   1  24
ATOM     23  C   UNL     1      -2.840   9.833  14.602  0.00  0.00    +0.000 C 
ATOM     24  C   UNL     1      -3.502  11.009  15.309  0.00  0.00    +0.000 C 
ENDBRANCH   1  24
TORSDOF 1
ENDMDL
MODEL 4
REMARK VINA RESULT:      -6.5      3.596      6.071
REMARK  Name = 
REMARK  3 active torsions:
REMARK  status: ('A' for Active; 'I' for Inactive)
REMARK    1  A    between atoms: C_1  and  C_2
REMARK    2  A    between atoms: C_2  and  C_3
REMARK    3  A    between atoms: C_10  and  C_11
REMARK                            x       y       z     vdW  Elec       q    Type
REMARK                         _______ _______ _______ _____ _____    ______ ____
ROOT
ATOM      1  C   UNL     1      -3.153  10.723  16.222  0.00  0.00    +0.000 A 
ATOM      2  N   UNL     1      -2.186  11.299  16.972  0.00  0.00    +0.000 NA
ATOM      3  C   UNL     1      -2.493  11.812  18.193  0.00  0.00    +0.000 A 
ATOM      4  N   UNL     1      -1.531  12.487  18.930  0.00  0.00    +0.000 N 
ATOM      5  C   UNL     1      -0.452  13.177  18.219  0.00  0.00    +0.000 C 
ATOM      6  C   UNL     1      -0.010  14.365  19.106  0.00  0.00    +0.000 C 
ATOM      7  N   UNL     1       0.320  13.978  20.496  0.00  0.00    +0.000 N 
ATOM      8  C   UNL     1       1.002  14.801  21.384  0.00  0.00    +0.000 C 
ATOM      9  C   UNL     1       1.695  16.034  20.858  0.00  0.00    +0.000 C 
ATOM     10  O   UNL     1       1.072  14.547  22.585  0.00  0.00    +0.000 OA
ATOM     11  C   UNL     1      -0.586  12.997  21.119  0.00  0.00    +0.000 C 
ATOM     12  C   UNL     1      -1.040  11.864  20.169  0.00  0.00    +0.000 C 
ATOM     13  C   UNL     1      -3.854  11.785  18.602  0.00  0.00    +0.000 A 
ATOM     14  C   UNL     1      -4.580  12.334  19.735  0.00  0.00    +0.000 A 
ATOM     15  C   UNL     1      -5.940  12.139  19.627  0.00  0.00    +0.000 A 
ATOM     16  S   UNL     1      -6.363  11.243  18.252  0.00  0.00    +0.000 S 
ATOM     17  C   UNL     1      -4.742  11.184  17.723  0.00  0.00    +0.000 A 
ATOM     18  N   UNL     1      -4.448  10.621  16.542  0.00  0.00    +0.000 NA
ATOM     19  C   UNL     1      -6.961  12.649  20.603  0.00  0.00    +0.000 C 
ATOM     20  C   UNL     1      -6.378  13.810  21.422  0.00  0.00    +0.000 C 
ATOM     21  C   UNL     1      -5.006  13.449  21.983  0.00  0.00    +0.000 C 
ATOM     22  C   UNL     1      -4.003  13.112  20.882  0.00  0.00    +0.000 C 
ENDROOT
BRANCH   1  24
ATOM     23  C   UNL     1      -3.997  10.003  13.977  0.00  0.00    +0.000 C 
ATOM     24  C   UNL     1      -2.771  10.209  14.857  0.00  0.00    +0.000 C 
ENDBRANCH   1  24
TORSDOF 1
ENDMDL
MODEL 5
REMARK VINA RESULT:      -6.5      4.326      9.028
REMARK  Name = 
REMARK  3 active torsions:
REMARK  status: ('A' for Active; 'I' for Inactive)
REMARK    1  A    between atoms: C_1  and  C_2
REMARK    2  A    between atoms: C_2  and  C_3
REMARK    3  A    between atoms: C_10  and  C_11
REMARK                            x       y       z     vdW  Elec       q    Type
REMARK                         _______ _______ _______ _____ _____    ______ ____
ROOT
ATOM      1  C   UNL     1       5.477   5.492  16.213  0.00  0.00    +0.000 A 
ATOM      2  N   UNL     1       4.753   6.472  16.800  0.00  0.00    +0.000 NA
ATOM      3  C   UNL     1       3.795   6.152  17.710  0.00  0.00    +0.000 A 
ATOM      4  N   UNL     1       2.984   7.140  18.250  0.00  0.00    +0.000 N 
ATOM      5  C   UNL     1       2.712   8.341  17.457  0.00  0.00    +0.000 C 
ATOM      6  C   UNL     1       1.324   8.869  17.892  0.00  0.00    +0.000 C 
ATOM      7  N   UNL     1       1.192   9.056  19.354  0.00  0.00    +0.000 N 
ATOM      8  C   UNL     1       0.162   9.775  19.949  0.00  0.00    +0.000 C 
ATOM      9  C   UNL     1      -0.716  10.650  19.088  0.00  0.00    +0.000 C 
ATOM     10  O   UNL     1      -0.046   9.734  21.161  0.00  0.00    +0.000 OA
ATOM     11  C   UNL     1       1.782   7.995  20.191  0.00  0.00    +0.000 C 
ATOM     12  C   UNL     1       3.141   7.467  19.676  0.00  0.00    +0.000 C 
ATOM     13  C   UNL     1       3.542   4.774  17.953  0.00  0.00    +0.000 A 
ATOM     14  C   UNL     1       2.546   4.050  18.724  0.00  0.00    +0.000 A 
ATOM     15  C   UNL     1       2.642   2.686  18.549  0.00  0.00    +0.000 A 
ATOM     16  S   UNL     1       3.944   2.245  17.557  0.00  0.00    +0.000 S 
ATOM     17  C   UNL     1       4.345   3.878  17.263  0.00  0.00    +0.000 A 
ATOM     18  N   UNL     1       5.332   4.176  16.407  0.00  0.00    +0.000 NA
ATOM     19  C   UNL     1       1.714   1.674  19.157  0.00  0.00    +0.000 C 
ATOM     20  C   UNL     1       0.389   2.343  19.554  0.00  0.00    +0.000 C 
ATOM     21  C   UNL     1       0.638   3.619  20.352  0.00  0.00    +0.000 C 
ATOM     22  C   UNL     1       1.452   4.643  19.563  0.00  0.00    +0.000 C 
ENDROOT
BRANCH   1  24
ATOM     23  C   UNL     1       6.774   4.762  14.199  0.00  0.00    +0.000 C 
ATOM     24  C   UNL     1       6.496   5.896  15.178  0.00  0.00    +0.000 C 
ENDBRANCH   1  24
TORSDOF 1
ENDMDL
MODEL 6
REMARK VINA RESULT:      -6.3      3.053      6.132
REMARK  Name = 
REMARK  3 active torsions:
REMARK  status: ('A' for Active; 'I' for Inactive)
REMARK    1  A    between atoms: C_1  and  C_2
REMARK    2  A    between atoms: C_2  and  C_3
REMARK    3  A    between atoms: C_10  and  C_11
REMARK                            x       y       z     vdW  Elec       q    Type
REMARK                         _______ _______ _______ _____ _____    ______ ____
ROOT
ATOM      1  C   UNL     1       0.546  10.362  18.546  0.00  0.00    +0.000 A 
ATOM      2  N   UNL     1       0.469  11.083  19.688  0.00  0.00    +0.000 NA
ATOM      3  C   UNL     1      -0.732  11.565  20.103  0.00  0.00    +0.000 A 
ATOM      4  N   UNL     1      -0.810  12.382  21.221  0.00  0.00    +0.000 N 
ATOM      5  C   UNL     1       0.347  13.210  21.572  0.00  0.00    +0.000 C 
ATOM      6  C   UNL     1      -0.194  14.463  22.300  0.00  0.00    +0.000 C 
ATOM      7  N   UNL     1      -1.091  14.149  23.436  0.00  0.00    +0.000 N 
ATOM      8  C   UNL     1      -1.466  15.075  24.401  0.00  0.00    +0.000 C 
ATOM      9  C   UNL     1      -0.725  16.387  24.486  0.00  0.00    +0.000 C 
ATOM     10  O   UNL     1      -2.373  14.853  25.201  0.00  0.00    +0.000 OA
ATOM     11  C   UNL     1      -2.054  13.057  23.207  0.00  0.00    +0.000 C 
ATOM     12  C   UNL     1      -1.473  11.856  22.424  0.00  0.00    +0.000 C 
ATOM     13  C   UNL     1      -1.861  11.348  19.266  0.00  0.00    +0.000 A 
ATOM     14  C   UNL     1      -3.241  11.803  19.292  0.00  0.00    +0.000 A 
ATOM     15  C   UNL     1      -3.940  11.412  18.171  0.00  0.00    +0.000 A 
ATOM     16  S   UNL     1      -3.016  10.444  17.131  0.00  0.00    +0.000 S 
ATOM     17  C   UNL     1      -1.632  10.612  18.115  0.00  0.00    +0.000 A 
ATOM     18  N   UNL     1      -0.466  10.079  17.718  0.00  0.00    +0.000 NA
ATOM     19  C   UNL     1      -5.364  11.783  17.873  0.00  0.00    +0.000 C 
ATOM     20  C   UNL     1      -5.766  13.029  18.677  0.00  0.00    +0.000 C 
ATOM     21  C   UNL     1      -5.383  12.878  20.146  0.00  0.00    +0.000 C 
ATOM     22  C   UNL     1      -3.882  12.673  20.334  0.00  0.00    +0.000 C 
ENDROOT
BRANCH   1  24
ATOM     23  C   UNL     1       1.910   8.392  17.815  0.00  0.00    +0.000 C 
ATOM     24  C   UNL     1       1.907   9.888  18.105  0.00  0.00    +0.000 C 
ENDBRANCH   1  24
TORSDOF 1
ENDMDL
MODEL 7
REMARK VINA RESULT:      -6.3      3.047      5.654
REMARK  Name = 
REMARK  3 active torsions:
REMARK  status: ('A' for Active; 'I' for Inactive)
REMARK    1  A    between atoms: C_1  and  C_2
REMARK    2  A    between atoms: C_2  and  C_3
REMARK    3  A    between atoms: C_10  and  C_11
REMARK                            x       y       z     vdW  Elec       q    Type
REMARK                         _______ _______ _______ _____ _____    ______ ____
ROOT
ATOM      1  C   UNL     1      -3.554  11.446  17.301  0.00  0.00    +0.000 A 
ATOM      2  N   UNL     1      -2.280  11.721  17.662  0.00  0.00    +0.000 NA
ATOM      3  C   UNL     1      -2.011  12.138  18.928  0.00  0.00    +0.000 A 
ATOM      4  N   UNL     1      -0.724  12.511  19.283  0.00  0.00    +0.000 N 
ATOM      5  C   UNL     1       0.166  13.047  18.251  0.00  0.00    +0.000 C 
ATOM      6  C   UNL     1       1.154  14.007  18.954  0.00  0.00    +0.000 C 
ATOM      7  N   UNL     1       1.851  13.399  20.111  0.00  0.00    +0.000 N 
ATOM      8  C   UNL     1       2.972  13.956  20.714  0.00  0.00    +0.000 C 
ATOM      9  C   UNL     1       3.703  15.076  20.015  0.00  0.00    +0.000 C 
ATOM     10  O   UNL     1       3.397  13.554  21.796  0.00  0.00    +0.000 OA
ATOM     11  C   UNL     1       1.019  12.556  20.988  0.00  0.00    +0.000 C 
ATOM     12  C   UNL     1       0.011  11.660  20.231  0.00  0.00    +0.000 C 
ATOM     13  C   UNL     1      -3.110  12.340  19.808  0.00  0.00    +0.000 A 
ATOM     14  C   UNL     1      -3.243  12.888  21.148  0.00  0.00    +0.000 A 
ATOM     15  C   UNL     1      -4.561  12.987  21.541  0.00  0.00    +0.000 A 
ATOM     16  S   UNL     1      -5.635  12.365  20.387  0.00  0.00    +0.000 S 
ATOM     17  C   UNL     1      -4.362  12.040  19.297  0.00  0.00    +0.000 A 
ATOM     18  N   UNL     1      -4.640  11.573  18.071  0.00  0.00    +0.000 NA
ATOM     19  C   UNL     1      -5.027  13.575  22.842  0.00  0.00    +0.000 C 
ATOM     20  C   UNL     1      -3.941  14.488  23.430  0.00  0.00    +0.000 C 
ATOM     21  C   UNL     1      -2.584  13.792  23.433  0.00  0.00    +0.000 C 
ATOM     22  C   UNL     1      -2.138  13.390  22.029  0.00  0.00    +0.000 C 
ENDROOT
BRANCH   1  24
ATOM     23  C   UNL     1      -2.965   9.819  15.490  0.00  0.00    +0.000 C 
ATOM     24  C   UNL     1      -3.805  11.030  15.874  0.00  0.00    +0.000 C 
ENDBRANCH   1  24
TORSDOF 1
ENDMDL
MODEL 8
REMARK VINA RESULT:      -6.3      1.452      1.935
REMARK  Name = 
REMARK  3 active torsions:
REMARK  status: ('A' for Active; 'I' for Inactive)
REMARK    1  A    between atoms: C_1  and  C_2
REMARK    2  A    between atoms: C_2  and  C_3
REMARK    3  A    between atoms: C_10  and  C_11
REMARK                            x       y       z     vdW  Elec       q    Type
REMARK                         _______ _______ _______ _____ _____    ______ ____
ROOT
ATOM      1  C   UNL     1      -2.026  13.957  23.059  0.00  0.00    +0.000 A 
ATOM      2  N   UNL     1      -1.114  13.183  22.429  0.00  0.00    +0.000 NA
ATOM      3  C   UNL     1      -1.415  12.624  21.227  0.00  0.00    +0.000 A 
ATOM      4  N   UNL     1      -0.525  11.755  20.615  0.00  0.00    +0.000 N 
ATOM      5  C   UNL     1       0.383  10.969  21.454  0.00  0.00    +0.000 C 
ATOM      6  C   UNL     1       0.691   9.660  20.690  0.00  0.00    +0.000 C 
ATOM      7  N   UNL     1       1.170   9.879  19.306  0.00  0.00    +0.000 N 
ATOM      8  C   UNL     1       1.771   8.893  18.533  0.00  0.00    +0.000 C 
ATOM      9  C   UNL     1       2.226   7.616  19.196  0.00  0.00    +0.000 C 
ATOM     10  O   UNL     1       1.959   9.035  17.326  0.00  0.00    +0.000 OA
ATOM     11  C   UNL     1       0.472  10.932  18.547  0.00  0.00    +0.000 C 
ATOM     12  C   UNL     1       0.139  12.194  19.378  0.00  0.00    +0.000 C 
ATOM     13  C   UNL     1      -2.726  12.824  20.712  0.00  0.00    +0.000 A 
ATOM     14  C   UNL     1      -3.452  12.301  19.566  0.00  0.00    +0.000 A 
ATOM     15  C   UNL     1      -4.768  12.708  19.554  0.00  0.00    +0.000 A 
ATOM     16  S   UNL     1      -5.136  13.766  20.826  0.00  0.00    +0.000 S 
ATOM     17  C   UNL     1      -3.564  13.622  21.474  0.00  0.00    +0.000 A 
ATOM     18  N   UNL     1      -3.265  14.227  22.633  0.00  0.00    +0.000 NA
ATOM     19  C   UNL     1      -5.790  12.282  18.539  0.00  0.00    +0.000 C 
ATOM     20  C   UNL     1      -5.343  10.983  17.851  0.00  0.00    +0.000 C 
ATOM     21  C   UNL     1      -3.897  11.087  17.375  0.00  0.00    +0.000 C 
ATOM     22  C   UNL     1      -2.929  11.356  18.525  0.00  0.00    +0.000 C 
ENDROOT
BRANCH   1  24
ATOM     23  C   UNL     1      -2.899  14.877  25.218  0.00  0.00    +0.000 C 
ATOM     24  C   UNL     1      -1.660  14.516  24.410  0.00  0.00    +0.000 C 
ENDBRANCH   1  24
TORSDOF 1
ENDMDL
MODEL 9
REMARK VINA RESULT:      -6.3      1.250      1.555
REMARK  Name = 
REMARK  3 active torsions:
REMARK  status: ('A' for Active; 'I' for Inactive)
REMARK    1  A    between atoms: C_1  and  C_2
REMARK    2  A    between atoms: C_2  and  C_3
REMARK    3  A    between atoms: C_10  and  C_11
REMARK                            x       y       z     vdW  Elec       q    Type
REMARK                         _______ _______ _______ _____ _____    ______ ____
ROOT
ATOM      1  C   UNL     1      -3.246  12.903  22.681  0.00  0.00    +0.000 A 
ATOM      2  N   UNL     1      -2.142  12.263  22.234  0.00  0.00    +0.000 NA
ATOM      3  C   UNL     1      -2.039  11.931  20.919  0.00  0.00    +0.000 A 
ATOM      4  N   UNL     1      -0.956  11.194  20.465  0.00  0.00    +0.000 N 
ATOM      5  C   UNL     1      -0.290  10.275  21.391  0.00  0.00    +0.000 C 
ATOM      6  C   UNL     1       0.310   9.129  20.543  0.00  0.00    +0.000 C 
ATOM      7  N   UNL     1       1.162   9.600  19.428  0.00  0.00    +0.000 N 
ATOM      8  C   UNL     1       2.025   8.776  18.715  0.00  0.00    +0.000 C 
ATOM      9  C   UNL     1       2.341   7.402  19.255  0.00  0.00    +0.000 C 
ATOM     10  O   UNL     1       2.553   9.137  17.665  0.00  0.00    +0.000 OA
ATOM     11  C   UNL     1       0.657  10.769  18.686  0.00  0.00    +0.000 C 
ATOM     12  C   UNL     1       0.016  11.856  19.581  0.00  0.00    +0.000 C 
ATOM     13  C   UNL     1      -3.148  12.212  20.074  0.00  0.00    +0.000 A 
ATOM     14  C   UNL     1      -3.469  11.903  18.691  0.00  0.00    +0.000 A 
ATOM     15  C   UNL     1      -4.745  12.296  18.351  0.00  0.00    +0.000 A 
ATOM     16  S   UNL     1      -5.538  13.101  19.615  0.00  0.00    +0.000 S 
ATOM     17  C   UNL     1      -4.222  12.852  20.673  0.00  0.00    +0.000 A 
ATOM     18  N   UNL     1      -4.317  13.238  21.954  0.00  0.00    +0.000 NA
ATOM     19  C   UNL     1      -5.393  12.055  17.018  0.00  0.00    +0.000 C 
ATOM     20  C   UNL     1      -4.683  10.907  16.285  0.00  0.00    +0.000 C 
ATOM     21  C   UNL     1      -3.170  11.105  16.293  0.00  0.00    +0.000 C 
ATOM     22  C   UNL     1      -2.604  11.166  17.710  0.00  0.00    +0.000 C 
ENDROOT
BRANCH   1  24
ATOM     23  C   UNL     1      -4.433  12.401  24.828  0.00  0.00    +0.000 C 
ATOM     24  C   UNL     1      -3.331  13.208  24.155  0.00  0.00    +0.000 C 
ENDBRANCH   1  24
TORSDOF 1
ENDMDL
