MODEL 1
REMARK VINA RESULT:      -9.6      0.000      0.000
REMARK  Name = 
REMARK  9 active torsions:
REMARK  status: ('A' for Active; 'I' for Inactive)
REMARK    1  A    between atoms: C_1  and  C_2
REMARK    2  A    between atoms: C_2  and  C_3
REMARK    3  A    between atoms: C_2  and  N_17
REMARK    4  A    between atoms: C_6  and  C_7
REMARK    5  A    between atoms: C_12  and  C_13
REMARK    6  A    between atoms: C_19  and  C_20
REMARK    7  A    between atoms: C_20  and  C_21
REMARK    8  A    between atoms: C_21  and  C_22
REMARK    9  A    between atoms: C_25  and  C_26
REMARK                            x       y       z     vdW  Elec       q    Type
REMARK                         _______ _______ _______ _____ _____    ______ ____
ROOT
ATOM      1  N   UNL     1       6.362   6.257  17.191  0.00  0.00    +0.000 N 
ATOM      2  C   UNL     1       7.018   7.463  17.140  0.00  0.00    +0.000 A 
ATOM      3  C   UNL     1       7.886   7.487  18.210  0.00  0.00    +0.000 A 
ATOM      4  C   UNL     1       7.808   6.172  18.732  0.00  0.00    +0.000 A 
ATOM      5  N   UNL     1       6.930   5.410  18.076  0.00  0.00    +0.000 NA
ENDROOT
BRANCH   1   7
ATOM      6  C   UNL     1       5.474   5.191  15.112  0.00  0.00    +0.000 C 
ATOM      7  C   UNL     1       5.152   5.907  16.430  0.00  0.00    +0.000 C 
BRANCH   7   8
ATOM      8  C   UNL     1       4.103   5.152  17.263  0.00  0.00    +0.000 A 
ATOM      9  C   UNL     1       4.169   3.737  17.280  0.00  0.00    +0.000 A 
ATOM     10  C   UNL     1       3.223   2.951  17.942  0.00  0.00    +0.000 A 
ATOM     11  C   UNL     1       2.154   3.547  18.602  0.00  0.00    +0.000 A 
ATOM     12  C   UNL     1       2.083   4.949  18.618  0.00  0.00    +0.000 A 
ATOM     13  C   UNL     1       3.055   5.771  17.989  0.00  0.00    +0.000 A 
BRANCH  11  14
ATOM     14  C   UNL     1       1.096   2.722  19.294  0.00  0.00    +0.000 C 
ATOM     15  F   UNL     1       0.332   3.432  20.168  0.00  0.00    +0.000 F 
ATOM     16  F   UNL     1       0.228   2.148  18.415  0.00  0.00    +0.000 F 
ATOM     17  F   UNL     1       1.630   1.696  20.012  0.00  0.00    +0.000 F 
ENDBRANCH  11  14
BRANCH  13  18
ATOM     18  C   UNL     1       2.851   7.262  18.186  0.00  0.00    +0.000 C 
ATOM     19  F   UNL     1       1.824   7.822  17.497  0.00  0.00    +0.000 F 
ATOM     20  F   UNL     1       2.629   7.573  19.495  0.00  0.00    +0.000 F 
ATOM     21  F   UNL     1       3.956   7.976  17.824  0.00  0.00    +0.000 F 
ENDBRANCH  13  18
ENDBRANCH   7   8
ENDBRANCH   1   7
BRANCH   3  22
ATOM     22  C   UNL     1       8.711   8.639  18.706  0.00  0.00    +0.000 C 
BRANCH  22  23
ATOM     23  C   UNL     1       8.300   9.958  18.069  0.00  0.00    +0.000 C 
BRANCH  23  24
ATOM     24  C   UNL     1       9.268  11.081  18.254  0.00  0.00    +0.000 A 
ATOM     25  N   UNL     1      10.451  11.062  18.842  0.00  0.00    +0.000 NA
ATOM     26  N   UNL     1      11.025  12.326  18.887  0.00  0.00    +0.000 NA
ATOM     27  C   UNL     1      10.255  13.260  18.347  0.00  0.00    +0.000 A 
ATOM     28  S   UNL     1       8.822  12.619  17.642  0.00  0.00    +0.000 S 
BRANCH  27  29
ATOM     29  C   UNL     1      10.481  14.713  18.355  0.00  0.00    +0.000 A 
ATOM     30  C   UNL     1      10.307  15.485  19.500  0.00  0.00    +0.000 A 
ATOM     31  C   UNL     1      10.408  16.871  19.389  0.00  0.00    +0.000 A 
ATOM     32  C   UNL     1      10.683  17.448  18.153  0.00  0.00    +0.000 A 
ATOM     33  C   UNL     1      10.878  16.607  17.072  0.00  0.00    +0.000 A 
ATOM     34  N   UNL     1      10.781  15.273  17.148  0.00  0.00    +0.000 NA
ENDBRANCH  27  29
ENDBRANCH  23  24
ENDBRANCH  22  23
ENDBRANCH   3  22
TORSDOF 8
ENDMDL
MODEL 2
REMARK VINA RESULT:      -9.3      0.697      1.173
REMARK  Name = 
REMARK  9 active torsions:
REMARK  status: ('A' for Active; 'I' for Inactive)
REMARK    1  A    between atoms: C_1  and  C_2
REMARK    2  A    between atoms: C_2  and  C_3
REMARK    3  A    between atoms: C_2  and  N_17
REMARK    4  A    between atoms: C_6  and  C_7
REMARK    5  A    between atoms: C_12  and  C_13
REMARK    6  A    between atoms: C_19  and  C_20
REMARK    7  A    between atoms: C_20  and  C_21
REMARK    8  A    between atoms: C_21  and  C_22
REMARK    9  A    between atoms: C_25  and  C_26
REMARK                            x       y       z     vdW  Elec       q    Type
REMARK                         _______ _______ _______ _____ _____    ______ ____
ROOT
ATOM      1  N   UNL     1       6.343   6.331  17.219  0.00  0.00    +0.000 N 
ATOM      2  C   UNL     1       7.016   7.526  17.150  0.00  0.00    +0.000 A 
ATOM      3  C   UNL     1       7.879   7.558  18.224  0.00  0.00    +0.000 A 
ATOM      4  C   UNL     1       7.781   6.253  18.767  0.00  0.00    +0.000 A 
ATOM      5  N   UNL     1       6.895   5.492  18.121  0.00  0.00    +0.000 NA
ENDROOT
BRANCH   1   7
ATOM      6  C   UNL     1       5.451   5.291  15.128  0.00  0.00    +0.000 C 
ATOM      7  C   UNL     1       5.131   5.985  16.459  0.00  0.00    +0.000 C 
BRANCH   7   8
ATOM      8  C   UNL     1       4.092   5.210  17.285  0.00  0.00    +0.000 A 
ATOM      9  C   UNL     1       4.178   3.795  17.296  0.00  0.00    +0.000 A 
ATOM     10  C   UNL     1       3.243   2.992  17.952  0.00  0.00    +0.000 A 
ATOM     11  C   UNL     1       2.164   3.569  18.612  0.00  0.00    +0.000 A 
ATOM     12  C   UNL     1       2.072   4.969  18.635  0.00  0.00    +0.000 A 
ATOM     13  C   UNL     1       3.033   5.809  18.012  0.00  0.00    +0.000 A 
BRANCH  11  14
ATOM     14  C   UNL     1       1.116   2.725  19.297  0.00  0.00    +0.000 C 
ATOM     15  F   UNL     1       1.628   1.667  19.983  0.00  0.00    +0.000 F 
ATOM     16  F   UNL     1       0.382   3.437  20.196  0.00  0.00    +0.000 F 
ATOM     17  F   UNL     1       0.220   2.201  18.416  0.00  0.00    +0.000 F 
ENDBRANCH  11  14
BRANCH  13  18
ATOM     18  C   UNL     1       2.807   7.296  18.217  0.00  0.00    +0.000 C 
ATOM     19  F   UNL     1       2.515   7.689  19.483  0.00  0.00    +0.000 F 
ATOM     20  F   UNL     1       3.896   8.028  17.846  0.00  0.00    +0.000 F 
ATOM     21  F   UNL     1       1.778   7.761  17.451  0.00  0.00    +0.000 F 
ENDBRANCH  13  18
ENDBRANCH   7   8
ENDBRANCH   1   7
BRANCH   3  22
ATOM     22  C   UNL     1       8.718   8.706  18.702  0.00  0.00    +0.000 C 
BRANCH  22  23
ATOM     23  C   UNL     1       8.520   9.956  17.858  0.00  0.00    +0.000 C 
BRANCH  23  24
ATOM     24  C   UNL     1       9.377  11.120  18.234  0.00  0.00    +0.000 A 
ATOM     25  N   UNL     1      10.545  11.118  18.851  0.00  0.00    +0.000 NA
ATOM     26  N   UNL     1      11.002  12.407  19.097  0.00  0.00    +0.000 NA
ATOM     27  C   UNL     1      10.160  13.339  18.673  0.00  0.00    +0.000 A 
ATOM     28  S   UNL     1       8.805  12.687  17.837  0.00  0.00    +0.000 S 
BRANCH  27  29
ATOM     29  C   UNL     1      10.253  14.789  18.898  0.00  0.00    +0.000 A 
ATOM     30  C   UNL     1      11.440  15.407  19.282  0.00  0.00    +0.000 A 
ATOM     31  C   UNL     1      11.410  16.762  19.607  0.00  0.00    +0.000 A 
ATOM     32  C   UNL     1      10.211  17.464  19.538  0.00  0.00    +0.000 A 
ATOM     33  C   UNL     1       9.084  16.784  19.112  0.00  0.00    +0.000 A 
ATOM     34  N   UNL     1       9.081  15.481  18.799  0.00  0.00    +0.000 NA
ENDBRANCH  27  29
ENDBRANCH  23  24
ENDBRANCH  22  23
ENDBRANCH   3  22
TORSDOF 8
ENDMDL
MODEL 3
REMARK VINA RESULT:      -9.3      1.113      1.246
REMARK  Name = 
REMARK  9 active torsions:
REMARK  status: ('A' for Active; 'I' for Inactive)
REMARK    1  A    between atoms: C_1  and  C_2
REMARK    2  A    between atoms: C_2  and  C_3
REMARK    3  A    between atoms: C_2  and  N_17
REMARK    4  A    between atoms: C_6  and  C_7
REMARK    5  A    between atoms: C_12  and  C_13
REMARK    6  A    between atoms: C_19  and  C_20
REMARK    7  A    between atoms: C_20  and  C_21
REMARK    8  A    between atoms: C_21  and  C_22
REMARK    9  A    between atoms: C_25  and  C_26
REMARK                            x       y       z     vdW  Elec       q    Type
REMARK                         _______ _______ _______ _____ _____    ______ ____
ROOT
ATOM      1  N   UNL     1       6.426   6.442  17.188  0.00  0.00    +0.000 N 
ATOM      2  C   UNL     1       7.066   7.657  17.150  0.00  0.00    +0.000 A 
ATOM      3  C   UNL     1       7.938   7.679  18.216  0.00  0.00    +0.000 A 
ATOM      4  C   UNL     1       7.881   6.356  18.720  0.00  0.00    +0.000 A 
ATOM      5  N   UNL     1       7.009   5.591  18.059  0.00  0.00    +0.000 NA
ENDROOT
BRANCH   1   7
ATOM      6  C   UNL     1       5.541   5.420  15.086  0.00  0.00    +0.000 C 
ATOM      7  C   UNL     1       5.216   6.087  16.429  0.00  0.00    +0.000 C 
BRANCH   7   8
ATOM      8  C   UNL     1       4.195   5.280  17.248  0.00  0.00    +0.000 A 
ATOM      9  C   UNL     1       4.324   3.868  17.258  0.00  0.00    +0.000 A 
ATOM     10  C   UNL     1       3.409   3.037  17.906  0.00  0.00    +0.000 A 
ATOM     11  C   UNL     1       2.309   3.581  18.561  0.00  0.00    +0.000 A 
ATOM     12  C   UNL     1       2.175   4.977  18.585  0.00  0.00    +0.000 A 
ATOM     13  C   UNL     1       3.115   5.846  17.969  0.00  0.00    +0.000 A 
BRANCH  11  14
ATOM     14  C   UNL     1       1.283   2.705  19.239  0.00  0.00    +0.000 C 
ATOM     15  F   UNL     1       0.723   3.270  20.342  0.00  0.00    +0.000 F 
ATOM     16  F   UNL     1       0.249   2.383  18.414  0.00  0.00    +0.000 F 
ATOM     17  F   UNL     1       1.811   1.519  19.653  0.00  0.00    +0.000 F 
ENDBRANCH  11  14
BRANCH  13  18
ATOM     18  C   UNL     1       2.843   7.326  18.174  0.00  0.00    +0.000 C 
ATOM     19  F   UNL     1       1.765   7.832  17.523  0.00  0.00    +0.000 F 
ATOM     20  F   UNL     1       2.653   7.626  19.490  0.00  0.00    +0.000 F 
ATOM     21  F   UNL     1       3.897   8.094  17.773  0.00  0.00    +0.000 F 
ENDBRANCH  13  18
ENDBRANCH   7   8
ENDBRANCH   1   7
BRANCH   3  22
ATOM     22  C   UNL     1       8.752   8.834  18.722  0.00  0.00    +0.000 C 
BRANCH  22  23
ATOM     23  C   UNL     1       8.541  10.093  17.895  0.00  0.00    +0.000 C 
BRANCH  23  24
ATOM     24  C   UNL     1       9.492  11.209  18.182  0.00  0.00    +0.000 A 
ATOM     25  N   UNL     1      10.716  11.388  17.718  0.00  0.00    +0.000 NA
ATOM     26  N   UNL     1      11.320  12.509  18.276  0.00  0.00    +0.000 NA
ATOM     27  C   UNL     1      10.542  13.129  19.152  0.00  0.00    +0.000 A 
ATOM     28  S   UNL     1       8.969  12.439  19.256  0.00  0.00    +0.000 S 
BRANCH  27  29
ATOM     29  C   UNL     1      10.910  14.250  20.029  0.00  0.00    +0.000 A 
ATOM     30  C   UNL     1      10.294  14.463  21.259  0.00  0.00    +0.000 A 
ATOM     31  C   UNL     1      10.602  15.623  21.966  0.00  0.00    +0.000 A 
ATOM     32  C   UNL     1      11.515  16.533  21.439  0.00  0.00    +0.000 A 
ATOM     33  C   UNL     1      12.110  16.228  20.228  0.00  0.00    +0.000 A 
ATOM     34  N   UNL     1      11.827  15.123  19.523  0.00  0.00    +0.000 NA
ENDBRANCH  27  29
ENDBRANCH  23  24
ENDBRANCH  22  23
ENDBRANCH   3  22
TORSDOF 8
ENDMDL
MODEL 4
REMARK VINA RESULT:      -9.1      6.492      8.967
REMARK  Name = 
REMARK  9 active torsions:
REMARK  status: ('A' for Active; 'I' for Inactive)
REMARK    1  A    between atoms: C_1  and  C_2
REMARK    2  A    between atoms: C_2  and  C_3
REMARK    3  A    between atoms: C_2  and  N_17
REMARK    4  A    between atoms: C_6  and  C_7
REMARK    5  A    between atoms: C_12  and  C_13
REMARK    6  A    between atoms: C_19  and  C_20
REMARK    7  A    between atoms: C_20  and  C_21
REMARK    8  A    between atoms: C_21  and  C_22
REMARK    9  A    between atoms: C_25  and  C_26
REMARK                            x       y       z     vdW  Elec       q    Type
REMARK                         _______ _______ _______ _____ _____    ______ ____
ROOT
ATOM      1  N   UNL     1       1.630   8.645  19.448  0.00  0.00    +0.000 N 
ATOM      2  C   UNL     1       2.260   7.708  18.667  0.00  0.00    +0.000 A 
ATOM      3  C   UNL     1       2.519   6.624  19.477  0.00  0.00    +0.000 A 
ATOM      4  C   UNL     1       1.836   6.938  20.679  0.00  0.00    +0.000 A 
ATOM      5  N   UNL     1       1.248   8.135  20.639  0.00  0.00    +0.000 NA
ENDROOT
BRANCH   1   7
ATOM      6  C   UNL     1       2.287  10.496  17.902  0.00  0.00    +0.000 C 
ATOM      7  C   UNL     1       1.424  10.058  19.093  0.00  0.00    +0.000 C 
BRANCH   7   8
ATOM      8  C   UNL     1      -0.056  10.433  18.910  0.00  0.00    +0.000 A 
ATOM      9  C   UNL     1      -0.779   9.782  17.879  0.00  0.00    +0.000 A 
ATOM     10  C   UNL     1      -2.105  10.099  17.578  0.00  0.00    +0.000 A 
ATOM     11  C   UNL     1      -2.763  11.101  18.284  0.00  0.00    +0.000 A 
ATOM     12  C   UNL     1      -2.074  11.742  19.324  0.00  0.00    +0.000 A 
ATOM     13  C   UNL     1      -0.740  11.407  19.678  0.00  0.00    +0.000 A 
BRANCH  11  14
ATOM     14  C   UNL     1      -4.184  11.493  17.956  0.00  0.00    +0.000 C 
ATOM     15  F   UNL     1      -4.332  12.026  16.713  0.00  0.00    +0.000 F 
ATOM     16  F   UNL     1      -5.041  10.437  18.017  0.00  0.00    +0.000 F 
ATOM     17  F   UNL     1      -4.676  12.422  18.822  0.00  0.00    +0.000 F 
ENDBRANCH  11  14
BRANCH  13  18
ATOM     18  C   UNL     1      -0.194  12.153  20.883  0.00  0.00    +0.000 C 
ATOM     19  F   UNL     1      -0.293  11.515  22.077  0.00  0.00    +0.000 F 
ATOM     20  F   UNL     1       1.127  12.454  20.734  0.00  0.00    +0.000 F 
ATOM     21  F   UNL     1      -0.823  13.350  21.063  0.00  0.00    +0.000 F 
ENDBRANCH  13  18
ENDBRANCH   7   8
ENDBRANCH   1   7
BRANCH   3  22
ATOM     22  C   UNL     1       3.335   5.405  19.160  0.00  0.00    +0.000 C 
BRANCH  22  23
ATOM     23  C   UNL     1       4.824   5.641  19.362  0.00  0.00    +0.000 C 
BRANCH  23  24
ATOM     24  C   UNL     1       5.695   5.210  18.227  0.00  0.00    +0.000 A 
ATOM     25  N   UNL     1       6.980   4.905  18.244  0.00  0.00    +0.000 NA
ATOM     26  N   UNL     1       7.460   4.625  16.970  0.00  0.00    +0.000 NA
ATOM     27  C   UNL     1       6.530   4.741  16.033  0.00  0.00    +0.000 A 
ATOM     28  S   UNL     1       4.973   5.089  16.677  0.00  0.00    +0.000 S 
BRANCH  27  29
ATOM     29  C   UNL     1       6.720   4.663  14.577  0.00  0.00    +0.000 A 
ATOM     30  C   UNL     1       6.020   3.757  13.785  0.00  0.00    +0.000 A 
ATOM     31  C   UNL     1       6.358   3.653  12.437  0.00  0.00    +0.000 A 
ATOM     32  C   UNL     1       7.372   4.450  11.914  0.00  0.00    +0.000 A 
ATOM     33  C   UNL     1       7.993   5.351  12.761  0.00  0.00    +0.000 A 
ATOM     34  N   UNL     1       7.694   5.468  14.062  0.00  0.00    +0.000 NA
ENDBRANCH  27  29
ENDBRANCH  23  24
ENDBRANCH  22  23
ENDBRANCH   3  22
TORSDOF 8
ENDMDL
MODEL 5
REMARK VINA RESULT:      -8.9      1.072      1.380
REMARK  Name = 
REMARK  9 active torsions:
REMARK  status: ('A' for Active; 'I' for Inactive)
REMARK    1  A    between atoms: C_1  and  C_2
REMARK    2  A    between atoms: C_2  and  C_3
REMARK    3  A    between atoms: C_2  and  N_17
REMARK    4  A    between atoms: C_6  and  C_7
REMARK    5  A    between atoms: C_12  and  C_13
REMARK    6  A    between atoms: C_19  and  C_20
REMARK    7  A    between atoms: C_20  and  C_21
REMARK    8  A    between atoms: C_21  and  C_22
REMARK    9  A    between atoms: C_25  and  C_26
REMARK                            x       y       z     vdW  Elec       q    Type
REMARK                         _______ _______ _______ _____ _____    ______ ____
ROOT
ATOM      1  N   UNL     1       6.672   6.140  17.385  0.00  0.00    +0.000 N 
ATOM      2  C   UNL     1       6.951   7.399  16.913  0.00  0.00    +0.000 A 
ATOM      3  C   UNL     1       7.807   7.982  17.821  0.00  0.00    +0.000 A 
ATOM      4  C   UNL     1       8.128   6.921  18.704  0.00  0.00    +0.000 A 
ATOM      5  N   UNL     1       7.487   5.789  18.403  0.00  0.00    +0.000 NA
ENDROOT
BRANCH   1   7
ATOM      6  C   UNL     1       6.120   4.034  16.155  0.00  0.00    +0.000 C 
ATOM      7  C   UNL     1       5.590   5.264  16.905  0.00  0.00    +0.000 C 
BRANCH   7   8
ATOM      8  C   UNL     1       4.577   4.888  17.998  0.00  0.00    +0.000 A 
ATOM      9  C   UNL     1       4.771   3.664  18.686  0.00  0.00    +0.000 A 
ATOM     10  C   UNL     1       3.871   3.191  19.643  0.00  0.00    +0.000 A 
ATOM     11  C   UNL     1       2.722   3.916  19.943  0.00  0.00    +0.000 A 
ATOM     12  C   UNL     1       2.522   5.142  19.292  0.00  0.00    +0.000 A 
ATOM     13  C   UNL     1       3.444   5.665  18.346  0.00  0.00    +0.000 A 
BRANCH  11  14
ATOM     14  C   UNL     1       1.712   3.411  20.945  0.00  0.00    +0.000 C 
ATOM     15  F   UNL     1       2.093   3.581  22.240  0.00  0.00    +0.000 F 
ATOM     16  F   UNL     1       0.505   4.030  20.823  0.00  0.00    +0.000 F 
ATOM     17  F   UNL     1       1.463   2.080  20.800  0.00  0.00    +0.000 F 
ENDBRANCH  11  14
BRANCH  13  18
ATOM     18  C   UNL     1       3.096   7.043  17.812  0.00  0.00    +0.000 C 
ATOM     19  F   UNL     1       3.452   8.095  18.592  0.00  0.00    +0.000 F 
ATOM     20  F   UNL     1       3.671   7.274  16.597  0.00  0.00    +0.000 F 
ATOM     21  F   UNL     1       1.753   7.183  17.612  0.00  0.00    +0.000 F 
ENDBRANCH  13  18
ENDBRANCH   7   8
ENDBRANCH   1   7
BRANCH   3  22
ATOM     22  C   UNL     1       8.281   9.405  17.864  0.00  0.00    +0.000 C 
BRANCH  22  23
ATOM     23  C   UNL     1       9.007   9.732  19.160  0.00  0.00    +0.000 C 
BRANCH  23  24
ATOM     24  C   UNL     1       9.831  10.978  19.130  0.00  0.00    +0.000 A 
ATOM     25  N   UNL     1      11.063  11.162  19.568  0.00  0.00    +0.000 NA
ATOM     26  N   UNL     1      11.466  12.485  19.436  0.00  0.00    +0.000 NA
ATOM     27  C   UNL     1      10.523  13.260  18.920  0.00  0.00    +0.000 A 
ATOM     28  S   UNL     1       9.118  12.383  18.452  0.00  0.00    +0.000 S 
BRANCH  27  29
ATOM     29  C   UNL     1      10.552  14.723  18.778  0.00  0.00    +0.000 A 
ATOM     30  C   UNL     1      10.793  15.569  19.858  0.00  0.00    +0.000 A 
ATOM     31  C   UNL     1      10.668  16.944  19.667  0.00  0.00    +0.000 A 
ATOM     32  C   UNL     1      10.315  17.439  18.415  0.00  0.00    +0.000 A 
ATOM     33  C   UNL     1      10.130  16.533  17.386  0.00  0.00    +0.000 A 
ATOM     34  N   UNL     1      10.237  15.206  17.542  0.00  0.00    +0.000 NA
ENDBRANCH  27  29
ENDBRANCH  23  24
ENDBRANCH  22  23
ENDBRANCH   3  22
TORSDOF 8
ENDMDL
MODEL 6
REMARK VINA RESULT:      -8.7      6.547      9.174
REMARK  Name = 
REMARK  9 active torsions:
REMARK  status: ('A' for Active; 'I' for Inactive)
REMARK    1  A    between atoms: C_1  and  C_2
REMARK    2  A    between atoms: C_2  and  C_3
REMARK    3  A    between atoms: C_2  and  N_17
REMARK    4  A    between atoms: C_6  and  C_7
REMARK    5  A    between atoms: C_12  and  C_13
REMARK    6  A    between atoms: C_19  and  C_20
REMARK    7  A    between atoms: C_20  and  C_21
REMARK    8  A    between atoms: C_21  and  C_22
REMARK    9  A    between atoms: C_25  and  C_26
REMARK                            x       y       z     vdW  Elec       q    Type
REMARK                         _______ _______ _______ _____ _____    ______ ____
ROOT
ATOM      1  N   UNL     1       1.673   9.602  18.848  0.00  0.00    +0.000 N 
ATOM      2  C   UNL     1       1.880   8.438  19.547  0.00  0.00    +0.000 A 
ATOM      3  C   UNL     1       2.297   7.495  18.633  0.00  0.00    +0.000 A 
ATOM      4  C   UNL     1       2.487   8.245  17.446  0.00  0.00    +0.000 A 
ATOM      5  N   UNL     1       2.166   9.532  17.593  0.00  0.00    +0.000 NA
ENDROOT
BRANCH   1   7
ATOM      6  C   UNL     1       1.715  12.091  19.070  0.00  0.00    +0.000 C 
ATOM      7  C   UNL     1       0.957  10.787  19.349  0.00  0.00    +0.000 C 
BRANCH   7   8
ATOM      8  C   UNL     1      -0.509  10.855  18.889  0.00  0.00    +0.000 A 
ATOM      9  C   UNL     1      -0.863  10.160  17.706  0.00  0.00    +0.000 A 
ATOM     10  C   UNL     1      -2.146  10.216  17.160  0.00  0.00    +0.000 A 
ATOM     11  C   UNL     1      -3.133  10.988  17.764  0.00  0.00    +0.000 A 
ATOM     12  C   UNL     1      -2.811  11.665  18.950  0.00  0.00    +0.000 A 
ATOM     13  C   UNL     1      -1.525  11.590  19.548  0.00  0.00    +0.000 A 
BRANCH  11  14
ATOM     14  C   UNL     1      -4.518  11.099  17.175  0.00  0.00    +0.000 C 
ATOM     15  F   UNL     1      -5.047  12.350  17.250  0.00  0.00    +0.000 F 
ATOM     16  F   UNL     1      -4.552  10.753  15.859  0.00  0.00    +0.000 F 
ATOM     17  F   UNL     1      -5.409  10.278  17.798  0.00  0.00    +0.000 F 
ENDBRANCH  11  14
BRANCH  13  18
ATOM     18  C   UNL     1      -1.394  12.324  20.871  0.00  0.00    +0.000 C 
ATOM     19  F   UNL     1      -0.733  11.667  21.858  0.00  0.00    +0.000 F 
ATOM     20  F   UNL     1      -0.748  13.516  20.726  0.00  0.00    +0.000 F 
ATOM     21  F   UNL     1      -2.613  12.633  21.400  0.00  0.00    +0.000 F 
ENDBRANCH  13  18
ENDBRANCH   7   8
ENDBRANCH   1   7
BRANCH   3  22
ATOM     22  C   UNL     1       2.496   6.023  18.848  0.00  0.00    +0.000 C 
BRANCH  22  23
ATOM     23  C   UNL     1       3.873   5.705  19.411  0.00  0.00    +0.000 C 
BRANCH  23  24
ATOM     24  C   UNL     1       4.915   5.374  18.393  0.00  0.00    +0.000 A 
ATOM     25  N   UNL     1       6.228   5.371  18.528  0.00  0.00    +0.000 NA
ATOM     26  N   UNL     1       6.871   5.083  17.330  0.00  0.00    +0.000 NA
ATOM     27  C   UNL     1       6.026   4.892  16.327  0.00  0.00    +0.000 A 
ATOM     28  S   UNL     1       4.378   4.939  16.823  0.00  0.00    +0.000 S 
BRANCH  27  29
ATOM     29  C   UNL     1       6.358   4.716  14.906  0.00  0.00    +0.000 A 
ATOM     30  C   UNL     1       5.657   3.839  14.083  0.00  0.00    +0.000 A 
ATOM     31  C   UNL     1       6.122   3.629  12.786  0.00  0.00    +0.000 A 
ATOM     32  C   UNL     1       7.260   4.296  12.342  0.00  0.00    +0.000 A 
ATOM     33  C   UNL     1       7.876   5.179  13.211  0.00  0.00    +0.000 A 
ATOM     34  N   UNL     1       7.455   5.396  14.465  0.00  0.00    +0.000 NA
ENDBRANCH  27  29
ENDBRANCH  23  24
ENDBRANCH  22  23
ENDBRANCH   3  22
TORSDOF 8
ENDMDL
MODEL 7
REMARK VINA RESULT:      -8.7      1.226      1.836
REMARK  Name = 
REMARK  9 active torsions:
REMARK  status: ('A' for Active; 'I' for Inactive)
REMARK    1  A    between atoms: C_1  and  C_2
REMARK    2  A    between atoms: C_2  and  C_3
REMARK    3  A    between atoms: C_2  and  N_17
REMARK    4  A    between atoms: C_6  and  C_7
REMARK    5  A    between atoms: C_12  and  C_13
REMARK    6  A    between atoms: C_19  and  C_20
REMARK    7  A    between atoms: C_20  and  C_21
REMARK    8  A    between atoms: C_21  and  C_22
REMARK    9  A    between atoms: C_25  and  C_26
REMARK                            x       y       z     vdW  Elec       q    Type
REMARK                         _______ _______ _______ _____ _____    ______ ____
ROOT
ATOM      1  N   UNL     1       6.752   6.142  17.173  0.00  0.00    +0.000 N 
ATOM      2  C   UNL     1       7.054   7.423  16.783  0.00  0.00    +0.000 A 
ATOM      3  C   UNL     1       7.789   7.986  17.804  0.00  0.00    +0.000 A 
ATOM      4  C   UNL     1       8.030   6.897  18.678  0.00  0.00    +0.000 A 
ATOM      5  N   UNL     1       7.453   5.767  18.265  0.00  0.00    +0.000 NA
ENDROOT
BRANCH   1   7
ATOM      6  C   UNL     1       6.386   4.042  15.867  0.00  0.00    +0.000 C 
ATOM      7  C   UNL     1       5.751   5.266  16.541  0.00  0.00    +0.000 C 
BRANCH   7   8
ATOM      8  C   UNL     1       4.595   4.882  17.478  0.00  0.00    +0.000 A 
ATOM      9  C   UNL     1       4.579   3.565  18.002  0.00  0.00    +0.000 A 
ATOM     10  C   UNL     1       3.538   3.089  18.801  0.00  0.00    +0.000 A 
ATOM     11  C   UNL     1       2.452   3.906  19.098  0.00  0.00    +0.000 A 
ATOM     12  C   UNL     1       2.459   5.221  18.610  0.00  0.00    +0.000 A 
ATOM     13  C   UNL     1       3.526   5.742  17.831  0.00  0.00    +0.000 A 
BRANCH  11  14
ATOM     14  C   UNL     1       1.294   3.406  19.928  0.00  0.00    +0.000 C 
ATOM     15  F   UNL     1       1.656   2.527  20.901  0.00  0.00    +0.000 F 
ATOM     16  F   UNL     1       0.634   4.416  20.559  0.00  0.00    +0.000 F 
ATOM     17  F   UNL     1       0.359   2.765  19.173  0.00  0.00    +0.000 F 
ENDBRANCH  11  14
BRANCH  13  18
ATOM     18  C   UNL     1       3.390   7.210  17.466  0.00  0.00    +0.000 C 
ATOM     19  F   UNL     1       4.130   8.080  18.201  0.00  0.00    +0.000 F 
ATOM     20  F   UNL     1       3.733   7.441  16.167  0.00  0.00    +0.000 F 
ATOM     21  F   UNL     1       2.103   7.644  17.586  0.00  0.00    +0.000 F 
ENDBRANCH  13  18
ENDBRANCH   7   8
ENDBRANCH   1   7
BRANCH   3  22
ATOM     22  C   UNL     1       8.223   9.415  17.952  0.00  0.00    +0.000 C 
BRANCH  22  23
ATOM     23  C   UNL     1       9.116   9.622  19.166  0.00  0.00    +0.000 C 
BRANCH  23  24
ATOM     24  C   UNL     1       9.897  10.896  19.170  0.00  0.00    +0.000 A 
ATOM     25  N   UNL     1      11.158  11.090  18.831  0.00  0.00    +0.000 NA
ATOM     26  N   UNL     1      11.552  12.406  19.042  0.00  0.00    +0.000 NA
ATOM     27  C   UNL     1      10.585  13.158  19.546  0.00  0.00    +0.000 A 
ATOM     28  S   UNL     1       9.088  12.319  19.682  0.00  0.00    +0.000 S 
BRANCH  27  29
ATOM     29  C   UNL     1      10.693  14.544  20.025  0.00  0.00    +0.000 A 
ATOM     30  C   UNL     1      11.044  15.594  19.182  0.00  0.00    +0.000 A 
ATOM     31  C   UNL     1      11.259  16.853  19.742  0.00  0.00    +0.000 A 
ATOM     32  C   UNL     1      11.114  17.033  21.115  0.00  0.00    +0.000 A 
ATOM     33  C   UNL     1      10.726  15.945  21.876  0.00  0.00    +0.000 A 
ATOM     34  N   UNL     1      10.519  14.723  21.366  0.00  0.00    +0.000 NA
ENDBRANCH  27  29
ENDBRANCH  23  24
ENDBRANCH  22  23
ENDBRANCH   3  22
TORSDOF 8
ENDMDL
MODEL 8
REMARK VINA RESULT:      -8.7      2.075      2.598
REMARK  Name = 
REMARK  9 active torsions:
REMARK  status: ('A' for Active; 'I' for Inactive)
REMARK    1  A    between atoms: C_1  and  C_2
REMARK    2  A    between atoms: C_2  and  C_3
REMARK    3  A    between atoms: C_2  and  N_17
REMARK    4  A    between atoms: C_6  and  C_7
REMARK    5  A    between atoms: C_12  and  C_13
REMARK    6  A    between atoms: C_19  and  C_20
REMARK    7  A    between atoms: C_20  and  C_21
REMARK    8  A    between atoms: C_21  and  C_22
REMARK    9  A    between atoms: C_25  and  C_26
REMARK                            x       y       z     vdW  Elec       q    Type
REMARK                         _______ _______ _______ _____ _____    ______ ____
ROOT
ATOM      1  N   UNL     1       6.884   6.263  17.393  0.00  0.00    +0.000 N 
ATOM      2  C   UNL     1       7.125   7.542  16.954  0.00  0.00    +0.000 A 
ATOM      3  C   UNL     1       7.929   8.140  17.898  0.00  0.00    +0.000 A 
ATOM      4  C   UNL     1       8.267   7.076  18.770  0.00  0.00    +0.000 A 
ATOM      5  N   UNL     1       7.682   5.926  18.429  0.00  0.00    +0.000 NA
ENDROOT
BRANCH   1   7
ATOM      6  C   UNL     1       6.455   4.099  16.219  0.00  0.00    +0.000 C 
ATOM      7  C   UNL     1       5.854   5.354  16.864  0.00  0.00    +0.000 C 
BRANCH   7   8
ATOM      8  C   UNL     1       4.754   5.016  17.884  0.00  0.00    +0.000 A 
ATOM      9  C   UNL     1       4.864   3.795  18.593  0.00  0.00    +0.000 A 
ATOM     10  C   UNL     1       3.885   3.355  19.486  0.00  0.00    +0.000 A 
ATOM     11  C   UNL     1       2.737   4.112  19.696  0.00  0.00    +0.000 A 
ATOM     12  C   UNL     1       2.619   5.337  19.022  0.00  0.00    +0.000 A 
ATOM     13  C   UNL     1       3.620   5.826  18.142  0.00  0.00    +0.000 A 
BRANCH  11  14
ATOM     14  C   UNL     1       1.644   3.645  20.626  0.00  0.00    +0.000 C 
ATOM     15  F   UNL     1       1.968   3.739  21.944  0.00  0.00    +0.000 F 
ATOM     16  F   UNL     1       0.491   4.353  20.470  0.00  0.00    +0.000 F 
ATOM     17  F   UNL     1       1.311   2.341  20.415  0.00  0.00    +0.000 F 
ENDBRANCH  11  14
BRANCH  13  18
ATOM     18  C   UNL     1       3.349   7.207  17.572  0.00  0.00    +0.000 C 
ATOM     19  F   UNL     1       3.661   7.387  16.263  0.00  0.00    +0.000 F 
ATOM     20  F   UNL     1       2.034   7.551  17.688  0.00  0.00    +0.000 F 
ATOM     21  F   UNL     1       4.039   8.175  18.242  0.00  0.00    +0.000 F 
ENDBRANCH  13  18
ENDBRANCH   7   8
ENDBRANCH   1   7
BRANCH   3  22
ATOM     22  C   UNL     1       8.343   9.581  17.982  0.00  0.00    +0.000 C 
BRANCH  22  23
ATOM     23  C   UNL     1       9.214   9.860  19.198  0.00  0.00    +0.000 C 
BRANCH  23  24
ATOM     24  C   UNL     1       9.388  11.305  19.536  0.00  0.00    +0.000 A 
ATOM     25  N   UNL     1       9.832  12.283  18.769  0.00  0.00    +0.000 NA
ATOM     26  N   UNL     1       9.925  13.483  19.464  0.00  0.00    +0.000 NA
ATOM     27  C   UNL     1       9.565  13.370  20.735  0.00  0.00    +0.000 A 
ATOM     28  S   UNL     1       8.973  11.801  21.125  0.00  0.00    +0.000 S 
BRANCH  27  29
ATOM     29  C   UNL     1       9.679  14.391  21.786  0.00  0.00    +0.000 A 
ATOM     30  C   UNL     1      10.594  15.437  21.708  0.00  0.00    +0.000 A 
ATOM     31  C   UNL     1      10.733  16.282  22.808  0.00  0.00    +0.000 A 
ATOM     32  C   UNL     1       9.960  16.070  23.946  0.00  0.00    +0.000 A 
ATOM     33  C   UNL     1       9.047  15.031  23.927  0.00  0.00    +0.000 A 
ATOM     34  N   UNL     1       8.897  14.199  22.887  0.00  0.00    +0.000 NA
ENDBRANCH  27  29
ENDBRANCH  23  24
ENDBRANCH  22  23
ENDBRANCH   3  22
TORSDOF 8
ENDMDL
MODEL 9
REMARK VINA RESULT:      -8.6      2.162      3.115
REMARK  Name = 
REMARK  9 active torsions:
REMARK  status: ('A' for Active; 'I' for Inactive)
REMARK    1  A    between atoms: C_1  and  C_2
REMARK    2  A    between atoms: C_2  and  C_3
REMARK    3  A    between atoms: C_2  and  N_17
REMARK    4  A    between atoms: C_6  and  C_7
REMARK    5  A    between atoms: C_12  and  C_13
REMARK    6  A    between atoms: C_19  and  C_20
REMARK    7  A    between atoms: C_20  and  C_21
REMARK    8  A    between atoms: C_21  and  C_22
REMARK    9  A    between atoms: C_25  and  C_26
REMARK                            x       y       z     vdW  Elec       q    Type
REMARK                         _______ _______ _______ _____ _____    ______ ____
ROOT
ATOM      1  N   UNL     1       7.721   7.282  18.172  0.00  0.00    +0.000 N 
ATOM      2  C   UNL     1       8.484   8.019  19.044  0.00  0.00    +0.000 A 
ATOM      3  C   UNL     1       8.608   9.277  18.496  0.00  0.00    +0.000 A 
ATOM      4  C   UNL     1       7.726   9.245  17.387  0.00  0.00    +0.000 A 
ATOM      5  N   UNL     1       7.144   8.055  17.228  0.00  0.00    +0.000 NA
ENDROOT
BRANCH   1   7
ATOM      6  C   UNL     1       8.267   5.173  19.398  0.00  0.00    +0.000 C 
ATOM      7  C   UNL     1       7.567   5.818  18.195  0.00  0.00    +0.000 C 
BRANCH   7   8
ATOM      8  C   UNL     1       6.108   5.354  18.052  0.00  0.00    +0.000 A 
ATOM      9  C   UNL     1       5.252   5.514  19.169  0.00  0.00    +0.000 A 
ATOM     10  C   UNL     1       3.932   5.060  19.173  0.00  0.00    +0.000 A 
ATOM     11  C   UNL     1       3.412   4.405  18.061  0.00  0.00    +0.000 A 
ATOM     12  C   UNL     1       4.235   4.258  16.934  0.00  0.00    +0.000 A 
ATOM     13  C   UNL     1       5.567   4.748  16.891  0.00  0.00    +0.000 A 
BRANCH  11  14
ATOM     14  C   UNL     1       2.001   3.870  18.050  0.00  0.00    +0.000 C 
ATOM     15  F   UNL     1       1.149   4.586  17.268  0.00  0.00    +0.000 F 
ATOM     16  F   UNL     1       1.936   2.586  17.600  0.00  0.00    +0.000 F 
ATOM     17  F   UNL     1       1.445   3.857  19.293  0.00  0.00    +0.000 F 
ENDBRANCH  11  14
BRANCH  13  18
ATOM     18  C   UNL     1       6.270   4.566  15.557  0.00  0.00    +0.000 C 
ATOM     19  F   UNL     1       5.915   3.469  14.839  0.00  0.00    +0.000 F 
ATOM     20  F   UNL     1       6.064   5.630  14.729  0.00  0.00    +0.000 F 
ATOM     21  F   UNL     1       7.622   4.476  15.706  0.00  0.00    +0.000 F 
ENDBRANCH  13  18
ENDBRANCH   7   8
ENDBRANCH   1   7
BRANCH   3  22
ATOM     22  C   UNL     1       9.477  10.408  18.964  0.00  0.00    +0.000 C 
BRANCH  22  23
ATOM     23  C   UNL     1      10.336  10.976  17.844  0.00  0.00    +0.000 C 
BRANCH  23  24
ATOM     24  C   UNL     1      10.344  12.466  17.743  0.00  0.00    +0.000 A 
ATOM     25  N   UNL     1      11.092  13.236  16.973  0.00  0.00    +0.000 NA
ATOM     26  N   UNL     1      10.866  14.585  17.217  0.00  0.00    +0.000 NA
ATOM     27  C   UNL     1       9.970  14.792  18.171  0.00  0.00    +0.000 A 
ATOM     28  S   UNL     1       9.258  13.334  18.747  0.00  0.00    +0.000 S 
BRANCH  27  29
ATOM     29  C   UNL     1       9.600  16.078  18.782  0.00  0.00    +0.000 A 
ATOM     30  C   UNL     1       9.290  16.196  20.133  0.00  0.00    +0.000 A 
ATOM     31  C   UNL     1       8.818  17.420  20.603  0.00  0.00    +0.000 A 
ATOM     32  C   UNL     1       8.673  18.489  19.723  0.00  0.00    +0.000 A 
ATOM     33  C   UNL     1       9.039  18.299  18.403  0.00  0.00    +0.000 A 
ATOM     34  N   UNL     1       9.489  17.131  17.922  0.00  0.00    +0.000 NA
ENDBRANCH  27  29
ENDBRANCH  23  24
ENDBRANCH  22  23
ENDBRANCH   3  22
TORSDOF 8
ENDMDL
