MODEL 1
REMARK VINA RESULT:      -8.4      0.000      0.000
REMARK  Name = 
REMARK  4 active torsions:
REMARK  status: ('A' for Active; 'I' for Inactive)
REMARK    1  A    between atoms: C_1  and  O_2
REMARK    2  A    between atoms: O_2  and  C_3
REMARK    3  A    between atoms: C_12  and  N_13
REMARK    4  A    between atoms: C_14  and  C_16
REMARK                            x       y       z     vdW  Elec       q    Type
REMARK                         _______ _______ _______ _____ _____    ______ ____
ROOT
ATOM      1  N   UNL     1       2.105   7.839  19.295  0.00  0.00    +0.000 N 
ATOM      2  C   UNL     1       1.630   8.990  18.683  0.00  0.00    +0.000 C 
ATOM      3  O   UNL     1       1.628   9.180  17.469  0.00  0.00    +0.000 OA
ATOM      4  H   UNL     1       1.891   7.692  20.279  0.00  0.00    +0.000 HD
ENDROOT
BRANCH   1  14
ATOM      5  C   UNL     1       2.569   5.434  18.956  0.00  0.00    +0.000 A 
ATOM      6  C   UNL     1       3.297   4.417  18.305  0.00  0.00    +0.000 A 
ATOM      7  C   UNL     1       4.204   4.704  17.274  0.00  0.00    +0.000 A 
ATOM      8  C   UNL     1       4.904   3.689  16.597  0.00  0.00    +0.000 A 
ATOM      9  C   UNL     1       5.789   4.002  15.562  0.00  0.00    +0.000 A 
ATOM     10  C   UNL     1       5.986   5.330  15.196  0.00  0.00    +0.000 A 
ATOM     11  C   UNL     1       5.303   6.344  15.867  0.00  0.00    +0.000 A 
ATOM     12  C   UNL     1       4.412   6.043  16.910  0.00  0.00    +0.000 A 
ATOM     13  C   UNL     1       3.724   7.054  17.599  0.00  0.00    +0.000 A 
ATOM     14  C   UNL     1       2.794   6.783  18.617  0.00  0.00    +0.000 A 
BRANCH   5  16
ATOM     15  C   UNL     1       1.108   3.820  19.884  0.00  0.00    +0.000 C 
ATOM     16  O   UNL     1       1.617   5.158  19.916  0.00  0.00    +0.000 OA
ENDBRANCH   5  16
ENDBRANCH   1  14
BRANCH   2  17
ATOM     17  C   UNL     1       1.046  10.029  19.514  0.00  0.00    +0.000 A 
ATOM     18  C   UNL     1       1.046  11.400  19.154  0.00  0.00    +0.000 A 
ATOM     19  N   UNL     1       0.444  12.187  20.040  0.00  0.00    +0.000 NA
ATOM     20  N   UNL     1       0.046  11.337  21.010  0.00  0.00    +0.000 N 
ATOM     21  C   UNL     1      -0.659  11.669  22.158  0.00  0.00    +0.000 A 
ATOM     22  C   UNL     1      -0.963  10.727  23.054  0.00  0.00    +0.000 A 
ATOM     23  C   UNL     1      -0.478   9.358  22.722  0.00  0.00    +0.000 A 
ATOM     24  N   UNL     1       0.159   9.001  21.644  0.00  0.00    +0.000 NA
ATOM     25  C   UNL     1       0.426  10.006  20.749  0.00  0.00    +0.000 A 
ENDBRANCH   2  17
TORSDOF 3
ENDMDL
MODEL 2
REMARK VINA RESULT:      -8.2      1.263      1.856
REMARK  Name = 
REMARK  4 active torsions:
REMARK  status: ('A' for Active; 'I' for Inactive)
REMARK    1  A    between atoms: C_1  and  O_2
REMARK    2  A    between atoms: O_2  and  C_3
REMARK    3  A    between atoms: C_12  and  N_13
REMARK    4  A    between atoms: C_14  and  C_16
REMARK                            x       y       z     vdW  Elec       q    Type
REMARK                         _______ _______ _______ _____ _____    ______ ____
ROOT
ATOM      1  N   UNL     1       1.781   7.222  20.422  0.00  0.00    +0.000 N 
ATOM      2  C   UNL     1       1.323   8.497  20.120  0.00  0.00    +0.000 C 
ATOM      3  O   UNL     1       1.338   8.990  18.994  0.00  0.00    +0.000 OA
ATOM      4  H   UNL     1       1.554   6.832  21.335  0.00  0.00    +0.000 HD
ENDROOT
BRANCH   1  14
ATOM      5  C   UNL     1       2.342   4.966  19.581  0.00  0.00    +0.000 A 
ATOM      6  C   UNL     1       3.070   4.146  18.695  0.00  0.00    +0.000 A 
ATOM      7  C   UNL     1       3.880   4.687  17.687  0.00  0.00    +0.000 A 
ATOM      8  C   UNL     1       4.578   3.873  16.777  0.00  0.00    +0.000 A 
ATOM      9  C   UNL     1       5.366   4.439  15.772  0.00  0.00    +0.000 A 
ATOM     10  C   UNL     1       5.466   5.822  15.667  0.00  0.00    +0.000 A 
ATOM     11  C   UNL     1       4.785   6.639  16.568  0.00  0.00    +0.000 A 
ATOM     12  C   UNL     1       3.991   6.083  17.585  0.00  0.00    +0.000 A 
ATOM     13  C   UNL     1       3.306   6.892  18.504  0.00  0.00    +0.000 A 
ATOM     14  C   UNL     1       2.471   6.367  19.505  0.00  0.00    +0.000 A 
BRANCH   5  16
ATOM     15  C   UNL     1       2.099   3.587  21.490  0.00  0.00    +0.000 C 
ATOM     16  O   UNL     1       1.480   4.446  20.525  0.00  0.00    +0.000 OA
ENDBRANCH   5  16
ENDBRANCH   1  14
BRANCH   2  17
ATOM     17  C   UNL     1       0.737   9.296  21.182  0.00  0.00    +0.000 A 
ATOM     18  C   UNL     1       1.015   9.083  22.555  0.00  0.00    +0.000 A 
ATOM     19  N   UNL     1       0.395   9.935  23.366  0.00  0.00    +0.000 NA
ATOM     20  N   UNL     1      -0.317  10.717  22.529  0.00  0.00    +0.000 N 
ATOM     21  C   UNL     1      -1.124  11.787  22.889  0.00  0.00    +0.000 A 
ATOM     22  C   UNL     1      -1.800  12.462  21.956  0.00  0.00    +0.000 A 
ATOM     23  C   UNL     1      -1.624  11.962  20.563  0.00  0.00    +0.000 A 
ATOM     24  N   UNL     1      -0.855  10.982  20.182  0.00  0.00    +0.000 NA
ATOM     25  C   UNL     1      -0.168  10.340  21.181  0.00  0.00    +0.000 A 
ENDBRANCH   2  17
TORSDOF 3
ENDMDL
MODEL 3
REMARK VINA RESULT:      -7.7      1.213      1.692
REMARK  Name = 
REMARK  4 active torsions:
REMARK  status: ('A' for Active; 'I' for Inactive)
REMARK    1  A    between atoms: C_1  and  O_2
REMARK    2  A    between atoms: O_2  and  C_3
REMARK    3  A    between atoms: C_12  and  N_13
REMARK    4  A    between atoms: C_14  and  C_16
REMARK                            x       y       z     vdW  Elec       q    Type
REMARK                         _______ _______ _______ _____ _____    ______ ____
ROOT
ATOM      1  N   UNL     1       1.831   7.795  19.710  0.00  0.00    +0.000 N 
ATOM      2  C   UNL     1       1.259   8.919  19.132  0.00  0.00    +0.000 C 
ATOM      3  O   UNL     1       1.193   9.119  17.921  0.00  0.00    +0.000 OA
ATOM      4  H   UNL     1       1.669   7.627  20.701  0.00  0.00    +0.000 HD
ENDROOT
BRANCH   1  14
ATOM      5  C   UNL     1       2.404   5.425  19.302  0.00  0.00    +0.000 A 
ATOM      6  C   UNL     1       3.167   4.461  18.611  0.00  0.00    +0.000 A 
ATOM      7  C   UNL     1       4.036   4.816  17.569  0.00  0.00    +0.000 A 
ATOM      8  C   UNL     1       4.770   3.854  16.853  0.00  0.00    +0.000 A 
ATOM      9  C   UNL     1       5.616   4.235  15.809  0.00  0.00    +0.000 A 
ATOM     10  C   UNL     1       5.741   5.579  15.473  0.00  0.00    +0.000 A 
ATOM     11  C   UNL     1       5.024   6.543  16.182  0.00  0.00    +0.000 A 
ATOM     12  C   UNL     1       4.171   6.173  17.235  0.00  0.00    +0.000 A 
ATOM     13  C   UNL     1       3.450   7.132  17.963  0.00  0.00    +0.000 A 
ATOM     14  C   UNL     1       2.556   6.791  18.993  0.00  0.00    +0.000 A 
BRANCH   5  16
ATOM     15  C   UNL     1       0.980   3.744  20.168  0.00  0.00    +0.000 C 
ATOM     16  O   UNL     1       1.487   5.079  20.273  0.00  0.00    +0.000 OA
ENDBRANCH   5  16
ENDBRANCH   1  14
BRANCH   2  17
ATOM     17  C   UNL     1       0.647   9.912  19.998  0.00  0.00    +0.000 A 
ATOM     18  C   UNL     1       1.128  10.210  21.298  0.00  0.00    +0.000 A 
ATOM     19  N   UNL     1       0.441  11.163  21.919  0.00  0.00    +0.000 NA
ATOM     20  N   UNL     1      -0.519  11.498  21.033  0.00  0.00    +0.000 N 
ATOM     21  C   UNL     1      -1.489  12.477  21.201  0.00  0.00    +0.000 A 
ATOM     22  C   UNL     1      -2.402  12.686  20.250  0.00  0.00    +0.000 A 
ATOM     23  C   UNL     1      -2.292  11.796  19.061  0.00  0.00    +0.000 A 
ATOM     24  N   UNL     1      -1.382  10.888  18.853  0.00  0.00    +0.000 NA
ATOM     25  C   UNL     1      -0.456  10.732  19.854  0.00  0.00    +0.000 A 
ENDBRANCH   2  17
TORSDOF 3
ENDMDL
MODEL 4
REMARK VINA RESULT:      -7.7      1.154      1.711
REMARK  Name = 
REMARK  4 active torsions:
REMARK  status: ('A' for Active; 'I' for Inactive)
REMARK    1  A    between atoms: C_1  and  O_2
REMARK    2  A    between atoms: O_2  and  C_3
REMARK    3  A    between atoms: C_12  and  N_13
REMARK    4  A    between atoms: C_14  and  C_16
REMARK                            x       y       z     vdW  Elec       q    Type
REMARK                         _______ _______ _______ _____ _____    ______ ____
ROOT
ATOM      1  N   UNL     1       2.275   6.983  19.777  0.00  0.00    +0.000 N 
ATOM      2  C   UNL     1       1.739   8.231  19.494  0.00  0.00    +0.000 C 
ATOM      3  O   UNL     1       1.699   8.730  18.371  0.00  0.00    +0.000 OA
ATOM      4  H   UNL     1       2.091   6.575  20.692  0.00  0.00    +0.000 HD
ENDROOT
BRANCH   1  14
ATOM      5  C   UNL     1       2.483   4.926  18.422  0.00  0.00    +0.000 A 
ATOM      6  C   UNL     1       3.232   4.128  17.533  0.00  0.00    +0.000 A 
ATOM      7  C   UNL     1       4.450   4.566  16.995  0.00  0.00    +0.000 A 
ATOM      8  C   UNL     1       5.182   3.789  16.079  0.00  0.00    +0.000 A 
ATOM      9  C   UNL     1       6.384   4.258  15.546  0.00  0.00    +0.000 A 
ATOM     10  C   UNL     1       6.871   5.505  15.924  0.00  0.00    +0.000 A 
ATOM     11  C   UNL     1       6.158   6.281  16.838  0.00  0.00    +0.000 A 
ATOM     12  C   UNL     1       4.948   5.820  17.382  0.00  0.00    +0.000 A 
ATOM     13  C   UNL     1       4.224   6.587  18.309  0.00  0.00    +0.000 A 
ATOM     14  C   UNL     1       2.990   6.173  18.839  0.00  0.00    +0.000 A 
BRANCH   5  16
ATOM     15  C   UNL     1       1.274   3.430  19.800  0.00  0.00    +0.000 C 
ATOM     16  O   UNL     1       1.247   4.539  18.894  0.00  0.00    +0.000 OA
ENDBRANCH   5  16
ENDBRANCH   1  14
BRANCH   2  17
ATOM     17  C   UNL     1       1.133   8.990  20.574  0.00  0.00    +0.000 A 
ATOM     18  C   UNL     1       1.447   8.780  21.940  0.00  0.00    +0.000 A 
ATOM     19  N   UNL     1       0.800   9.591  22.770  0.00  0.00    +0.000 NA
ATOM     20  N   UNL     1       0.034  10.344  21.954  0.00  0.00    +0.000 N 
ATOM     21  C   UNL     1      -0.819  11.369  22.340  0.00  0.00    +0.000 A 
ATOM     22  C   UNL     1      -1.545  12.016  21.425  0.00  0.00    +0.000 A 
ATOM     23  C   UNL     1      -1.371  11.539  20.025  0.00  0.00    +0.000 A 
ATOM     24  N   UNL     1      -0.561  10.603  19.620  0.00  0.00    +0.000 NA
ATOM     25  C   UNL     1       0.176   9.987  20.600  0.00  0.00    +0.000 A 
ENDBRANCH   2  17
TORSDOF 3
ENDMDL
MODEL 5
REMARK VINA RESULT:      -7.6      1.045      1.991
REMARK  Name = 
REMARK  4 active torsions:
REMARK  status: ('A' for Active; 'I' for Inactive)
REMARK    1  A    between atoms: C_1  and  O_2
REMARK    2  A    between atoms: O_2  and  C_3
REMARK    3  A    between atoms: C_12  and  N_13
REMARK    4  A    between atoms: C_14  and  C_16
REMARK                            x       y       z     vdW  Elec       q    Type
REMARK                         _______ _______ _______ _____ _____    ______ ____
ROOT
ATOM      1  N   UNL     1       1.995   7.955  19.646  0.00  0.00    +0.000 N 
ATOM      2  C   UNL     1       1.361   9.038  19.054  0.00  0.00    +0.000 C 
ATOM      3  O   UNL     1       1.174   9.157  17.845  0.00  0.00    +0.000 OA
ATOM      4  H   UNL     1       1.934   7.853  20.657  0.00  0.00    +0.000 HD
ENDROOT
BRANCH   1  14
ATOM      5  C   UNL     1       2.451   5.554  19.270  0.00  0.00    +0.000 A 
ATOM      6  C   UNL     1       3.148   4.544  18.576  0.00  0.00    +0.000 A 
ATOM      7  C   UNL     1       3.997   4.839  17.501  0.00  0.00    +0.000 A 
ATOM      8  C   UNL     1       4.665   3.831  16.782  0.00  0.00    +0.000 A 
ATOM      9  C   UNL     1       5.493   4.153  15.704  0.00  0.00    +0.000 A 
ATOM     10  C   UNL     1       5.665   5.483  15.335  0.00  0.00    +0.000 A 
ATOM     11  C   UNL     1       5.015   6.492  16.046  0.00  0.00    +0.000 A 
ATOM     12  C   UNL     1       4.180   6.182  17.133  0.00  0.00    +0.000 A 
ATOM     13  C   UNL     1       3.526   7.186  17.863  0.00  0.00    +0.000 A 
ATOM     14  C   UNL     1       2.652   6.906  18.927  0.00  0.00    +0.000 A 
BRANCH   5  16
ATOM     15  C   UNL     1       1.000   3.949  20.229  0.00  0.00    +0.000 C 
ATOM     16  O   UNL     1       1.552   5.269  20.277  0.00  0.00    +0.000 OA
ENDBRANCH   5  16
ENDBRANCH   1  14
BRANCH   2  17
ATOM     17  C   UNL     1       0.831  10.086  19.910  0.00  0.00    +0.000 A 
ATOM     18  C   UNL     1      -0.099   9.840  20.950  0.00  0.00    +0.000 A 
ATOM     19  N   UNL     1      -0.444  10.929  21.630  0.00  0.00    +0.000 NA
ATOM     20  N   UNL     1       0.252  11.918  21.030  0.00  0.00    +0.000 N 
ATOM     21  C   UNL     1       0.255  13.258  21.391  0.00  0.00    +0.000 A 
ATOM     22  C   UNL     1       0.971  14.139  20.689  0.00  0.00    +0.000 A 
ATOM     23  C   UNL     1       1.711  13.571  19.528  0.00  0.00    +0.000 A 
ATOM     24  N   UNL     1       1.757  12.318  19.175  0.00  0.00    +0.000 NA
ATOM     25  C   UNL     1       1.020  11.454  19.946  0.00  0.00    +0.000 A 
ENDBRANCH   2  17
TORSDOF 3
ENDMDL
MODEL 6
REMARK VINA RESULT:      -7.6      7.017      9.464
REMARK  Name = 
REMARK  4 active torsions:
REMARK  status: ('A' for Active; 'I' for Inactive)
REMARK    1  A    between atoms: C_1  and  O_2
REMARK    2  A    between atoms: O_2  and  C_3
REMARK    3  A    between atoms: C_12  and  N_13
REMARK    4  A    between atoms: C_14  and  C_16
REMARK                            x       y       z     vdW  Elec       q    Type
REMARK                         _______ _______ _______ _____ _____    ______ ____
ROOT
ATOM      1  N   UNL     1       9.061   9.193  19.090  0.00  0.00    +0.000 N 
ATOM      2  C   UNL     1       8.218   8.711  18.099  0.00  0.00    +0.000 C 
ATOM      3  O   UNL     1       7.885   9.348  17.101  0.00  0.00    +0.000 OA
ATOM      4  H   UNL     1       9.431   8.533  19.771  0.00  0.00    +0.000 HD
ENDROOT
BRANCH   1  14
ATOM      5  C   UNL     1       9.403  11.287  20.358  0.00  0.00    +0.000 A 
ATOM      6  C   UNL     1       9.835  12.629  20.394  0.00  0.00    +0.000 A 
ATOM      7  C   UNL     1      10.454  13.235  19.291  0.00  0.00    +0.000 A 
ATOM      8  C   UNL     1      10.920  14.561  19.335  0.00  0.00    +0.000 A 
ATOM      9  C   UNL     1      11.548  15.134  18.227  0.00  0.00    +0.000 A 
ATOM     10  C   UNL     1      11.715  14.390  17.064  0.00  0.00    +0.000 A 
ATOM     11  C   UNL     1      11.250  13.076  17.006  0.00  0.00    +0.000 A 
ATOM     12  C   UNL     1      10.615  12.489  18.113  0.00  0.00    +0.000 A 
ATOM     13  C   UNL     1      10.134  11.171  18.066  0.00  0.00    +0.000 A 
ATOM     14  C   UNL     1       9.534  10.542  19.170  0.00  0.00    +0.000 A 
BRANCH   5  16
ATOM     15  C   UNL     1       8.318  11.543  22.446  0.00  0.00    +0.000 C 
ATOM     16  O   UNL     1       8.865  10.658  21.462  0.00  0.00    +0.000 OA
ENDBRANCH   5  16
ENDBRANCH   1  14
BRANCH   2  17
ATOM     17  C   UNL     1       7.730   7.347  18.203  0.00  0.00    +0.000 A 
ATOM     18  C   UNL     1       8.188   6.433  19.186  0.00  0.00    +0.000 A 
ATOM     19  N   UNL     1       7.601   5.242  19.125  0.00  0.00    +0.000 NA
ATOM     20  N   UNL     1       6.750   5.354  18.083  0.00  0.00    +0.000 N 
ATOM     21  C   UNL     1       5.879   4.376  17.624  0.00  0.00    +0.000 A 
ATOM     22  C   UNL     1       5.110   4.611  16.558  0.00  0.00    +0.000 A 
ATOM     23  C   UNL     1       5.287   5.952  15.934  0.00  0.00    +0.000 A 
ATOM     24  N   UNL     1       6.070   6.905  16.351  0.00  0.00    +0.000 NA
ATOM     25  C   UNL     1       6.821   6.615  17.463  0.00  0.00    +0.000 A 
ENDBRANCH   2  17
TORSDOF 3
ENDMDL
MODEL 7
REMARK VINA RESULT:      -7.5      2.209      3.948
REMARK  Name = 
REMARK  4 active torsions:
REMARK  status: ('A' for Active; 'I' for Inactive)
REMARK    1  A    between atoms: C_1  and  O_2
REMARK    2  A    between atoms: O_2  and  C_3
REMARK    3  A    between atoms: C_12  and  N_13
REMARK    4  A    between atoms: C_14  and  C_16
REMARK                            x       y       z     vdW  Elec       q    Type
REMARK                         _______ _______ _______ _____ _____    ______ ____
ROOT
ATOM      1  N   UNL     1       1.400   8.554  20.717  0.00  0.00    +0.000 N 
ATOM      2  C   UNL     1       0.199   8.840  21.349  0.00  0.00    +0.000 C 
ATOM      3  O   UNL     1      -0.665   8.005  21.608  0.00  0.00    +0.000 OA
ATOM      4  H   UNL     1       2.128   9.266  20.719  0.00  0.00    +0.000 HD
ENDROOT
BRANCH   1  14
ATOM      5  C   UNL     1       2.375   7.201  18.892  0.00  0.00    +0.000 A 
ATOM      6  C   UNL     1       2.650   5.938  18.329  0.00  0.00    +0.000 A 
ATOM      7  C   UNL     1       2.361   4.748  19.012  0.00  0.00    +0.000 A 
ATOM      8  C   UNL     1       2.668   3.487  18.471  0.00  0.00    +0.000 A 
ATOM      9  C   UNL     1       2.384   2.318  19.180  0.00  0.00    +0.000 A 
ATOM     10  C   UNL     1       1.788   2.395  20.434  0.00  0.00    +0.000 A 
ATOM     11  C   UNL     1       1.471   3.640  20.977  0.00  0.00    +0.000 A 
ATOM     12  C   UNL     1       1.750   4.824  20.274  0.00  0.00    +0.000 A 
ATOM     13  C   UNL     1       1.430   6.083  20.804  0.00  0.00    +0.000 A 
ATOM     14  C   UNL     1       1.735   7.286  20.144  0.00  0.00    +0.000 A 
BRANCH   5  16
ATOM     15  C   UNL     1       1.641   9.069  17.637  0.00  0.00    +0.000 C 
ATOM     16  O   UNL     1       2.727   8.378  18.264  0.00  0.00    +0.000 OA
ENDBRANCH   5  16
ENDBRANCH   1  14
BRANCH   2  17
ATOM     17  C   UNL     1      -0.049  10.203  21.788  0.00  0.00    +0.000 A 
ATOM     18  C   UNL     1      -0.797  10.519  22.950  0.00  0.00    +0.000 A 
ATOM     19  N   UNL     1      -0.891  11.823  23.189  0.00  0.00    +0.000 NA
ATOM     20  N   UNL     1      -0.211  12.388  22.169  0.00  0.00    +0.000 N 
ATOM     21  C   UNL     1       0.005  13.745  21.976  0.00  0.00    +0.000 A 
ATOM     22  C   UNL     1       0.674  14.171  20.902  0.00  0.00    +0.000 A 
ATOM     23  C   UNL     1       1.125  13.099  19.971  0.00  0.00    +0.000 A 
ATOM     24  N   UNL     1       0.968  11.816  20.132  0.00  0.00    +0.000 NA
ATOM     25  C   UNL     1       0.293  11.435  21.264  0.00  0.00    +0.000 A 
ENDBRANCH   2  17
TORSDOF 3
ENDMDL
MODEL 8
REMARK VINA RESULT:      -7.5      2.155      2.537
REMARK  Name = 
REMARK  4 active torsions:
REMARK  status: ('A' for Active; 'I' for Inactive)
REMARK    1  A    between atoms: C_1  and  O_2
REMARK    2  A    between atoms: O_2  and  C_3
REMARK    3  A    between atoms: C_12  and  N_13
REMARK    4  A    between atoms: C_14  and  C_16
REMARK                            x       y       z     vdW  Elec       q    Type
REMARK                         _______ _______ _______ _____ _____    ______ ____
ROOT
ATOM      1  N   UNL     1       1.546   8.029  18.858  0.00  0.00    +0.000 N 
ATOM      2  C   UNL     1       1.492   9.314  18.337  0.00  0.00    +0.000 C 
ATOM      3  O   UNL     1       2.314   9.779  17.550  0.00  0.00    +0.000 OA
ATOM      4  H   UNL     1       0.727   7.670  19.344  0.00  0.00    +0.000 HD
ENDROOT
BRANCH   1  14
ATOM      5  C   UNL     1       2.851   6.052  19.564  0.00  0.00    +0.000 A 
ATOM      6  C   UNL     1       3.964   5.204  19.387  0.00  0.00    +0.000 A 
ATOM      7  C   UNL     1       4.843   5.356  18.306  0.00  0.00    +0.000 A 
ATOM      8  C   UNL     1       5.933   4.490  18.105  0.00  0.00    +0.000 A 
ATOM      9  C   UNL     1       6.783   4.655  17.010  0.00  0.00    +0.000 A 
ATOM     10  C   UNL     1       6.557   5.688  16.106  0.00  0.00    +0.000 A 
ATOM     11  C   UNL     1       5.484   6.558  16.299  0.00  0.00    +0.000 A 
ATOM     12  C   UNL     1       4.623   6.404  17.398  0.00  0.00    +0.000 A 
ATOM     13  C   UNL     1       3.544   7.277  17.610  0.00  0.00    +0.000 A 
ATOM     14  C   UNL     1       2.640   7.123  18.675  0.00  0.00    +0.000 A 
BRANCH   5  16
ATOM     15  C   UNL     1       1.527   4.502  20.767  0.00  0.00    +0.000 C 
ATOM     16  O   UNL     1       1.936   5.861  20.579  0.00  0.00    +0.000 OA
ENDBRANCH   5  16
ENDBRANCH   1  14
BRANCH   2  17
ATOM     17  C   UNL     1       0.367  10.162  18.695  0.00  0.00    +0.000 A 
ATOM     18  C   UNL     1       0.388  11.052  19.797  0.00  0.00    +0.000 A 
ATOM     19  N   UNL     1      -0.732  11.753  19.941  0.00  0.00    +0.000 NA
ATOM     20  N   UNL     1      -1.516  11.320  18.933  0.00  0.00    +0.000 N 
ATOM     21  C   UNL     1      -2.795  11.769  18.633  0.00  0.00    +0.000 A 
ATOM     22  C   UNL     1      -3.475  11.228  17.619  0.00  0.00    +0.000 A 
ATOM     23  C   UNL     1      -2.766  10.138  16.892  0.00  0.00    +0.000 A 
ATOM     24  N   UNL     1      -1.558   9.710  17.123  0.00  0.00    +0.000 NA
ATOM     25  C   UNL     1      -0.899  10.316  18.163  0.00  0.00    +0.000 A 
ENDBRANCH   2  17
TORSDOF 3
ENDMDL
MODEL 9
REMARK VINA RESULT:      -7.2      2.785      5.064
REMARK  Name = 
REMARK  4 active torsions:
REMARK  status: ('A' for Active; 'I' for Inactive)
REMARK    1  A    between atoms: C_1  and  O_2
REMARK    2  A    between atoms: O_2  and  C_3
REMARK    3  A    between atoms: C_12  and  N_13
REMARK    4  A    between atoms: C_14  and  C_16
REMARK                            x       y       z     vdW  Elec       q    Type
REMARK                         _______ _______ _______ _____ _____    ______ ____
ROOT
ATOM      1  N   UNL     1       4.543   5.580  17.340  0.00  0.00    +0.000 N 
ATOM      2  C   UNL     1       3.918   4.683  18.194  0.00  0.00    +0.000 C 
ATOM      3  O   UNL     1       4.076   3.464  18.156  0.00  0.00    +0.000 OA
ATOM      4  H   UNL     1       4.502   6.572  17.569  0.00  0.00    +0.000 HD
ENDROOT
BRANCH   1  14
ATOM      5  C   UNL     1       6.717   5.458  16.171  0.00  0.00    +0.000 A 
ATOM      6  C   UNL     1       7.461   5.124  15.020  0.00  0.00    +0.000 A 
ATOM      7  C   UNL     1       6.870   4.487  13.919  0.00  0.00    +0.000 A 
ATOM      8  C   UNL     1       7.616   4.119  12.785  0.00  0.00    +0.000 A 
ATOM      9  C   UNL     1       7.005   3.471  11.709  0.00  0.00    +0.000 A 
ATOM     10  C   UNL     1       5.644   3.187  11.754  0.00  0.00    +0.000 A 
ATOM     11  C   UNL     1       4.893   3.554  12.870  0.00  0.00    +0.000 A 
ATOM     12  C   UNL     1       5.495   4.208  13.957  0.00  0.00    +0.000 A 
ATOM     13  C   UNL     1       4.750   4.592  15.083  0.00  0.00    +0.000 A 
ATOM     14  C   UNL     1       5.331   5.208  16.205  0.00  0.00    +0.000 A 
BRANCH   5  16
ATOM     15  C   UNL     1       7.484   7.431  17.229  0.00  0.00    +0.000 C 
ATOM     16  O   UNL     1       7.303   6.012  17.290  0.00  0.00    +0.000 OA
ENDBRANCH   5  16
ENDBRANCH   1  14
BRANCH   2  17
ATOM     17  C   UNL     1       3.058   5.203  19.243  0.00  0.00    +0.000 A 
ATOM     18  C   UNL     1       2.608   4.421  20.336  0.00  0.00    +0.000 A 
ATOM     19  N   UNL     1       1.847   5.089  21.197  0.00  0.00    +0.000 NA
ATOM     20  N   UNL     1       1.776   6.329  20.670  0.00  0.00    +0.000 N 
ATOM     21  C   UNL     1       1.110   7.418  21.214  0.00  0.00    +0.000 A 
ATOM     22  C   UNL     1       1.095   8.586  20.569  0.00  0.00    +0.000 A 
ATOM     23  C   UNL     1       1.814   8.597  19.264  0.00  0.00    +0.000 A 
ATOM     24  N   UNL     1       2.475   7.607  18.734  0.00  0.00    +0.000 NA
ATOM     25  C   UNL     1       2.474   6.438  19.452  0.00  0.00    +0.000 A 
ENDBRANCH   2  17
TORSDOF 3
ENDMDL
