MODEL 1
REMARK VINA RESULT:      -8.6      0.000      0.000
REMARK  Name = 
REMARK  8 active torsions:
REMARK  status: ('A' for Active; 'I' for Inactive)
REMARK    1  A    between atoms: C_1  and  C_2
REMARK    2  A    between atoms: C_2  and  C_26
REMARK    3  A    between atoms: N_7  and  C_8
REMARK    4  A    between atoms: C_11  and  C_12
REMARK    5  A    between atoms: C_17  and  S_18
REMARK    6  A    between atoms: S_18  and  N_19
REMARK    7  A    between atoms: C_30  and  C_31
REMARK    8  A    between atoms: N_33  and  O_34
REMARK                            x       y       z     vdW  Elec       q    Type
REMARK                         _______ _______ _______ _____ _____    ______ ____
ROOT
ATOM      1  C   UNL     1      -0.618  14.892  19.383  0.00  0.00    +0.000 C 
ATOM      2  C   UNL     1      -0.719  13.428  19.708  0.00  0.00    +0.000 C 
ATOM      3  C   UNL     1       0.288  12.552  19.515  0.00  0.00    +0.000 C 
ATOM      4  C   UNL     1       1.603  12.846  18.882  0.00  0.00    +0.000 C 
ATOM      5  C   UNL     1       2.066  11.477  18.471  0.00  0.00    +0.000 C 
ATOM      6  O   UNL     1       2.980  11.332  17.668  0.00  0.00    +0.000 OA
ATOM      7  N   UNL     1       1.312  10.520  19.113  0.00  0.00    +0.000 N 
ATOM      8  C   UNL     1       0.263  11.087  19.798  0.00  0.00    +0.000 C 
ATOM      9  O   UNL     1      -0.521  10.571  20.578  0.00  0.00    +0.000 OA
ENDROOT
BRANCH   7  10
ATOM     10  C   UNL     1       1.581   9.118  19.069  0.00  0.00    +0.000 A 
ATOM     11  C   UNL     1       1.815   8.451  17.865  0.00  0.00    +0.000 A 
ATOM     12  C   UNL     1       2.040   7.064  17.826  0.00  0.00    +0.000 A 
ATOM     13  C   UNL     1       2.088   6.275  18.990  0.00  0.00    +0.000 A 
ATOM     14  C   UNL     1       1.940   6.973  20.190  0.00  0.00    +0.000 A 
ATOM     15  C   UNL     1       1.646   8.346  20.231  0.00  0.00    +0.000 A 
BRANCH  13  16
ATOM     16  C   UNL     1       2.333   4.804  18.908  0.00  0.00    +0.000 A 
ATOM     17  C   UNL     1       1.222   3.948  19.131  0.00  0.00    +0.000 A 
ATOM     18  C   UNL     1       1.331   2.555  19.174  0.00  0.00    +0.000 A 
ATOM     19  C   UNL     1       2.560   1.956  18.957  0.00  0.00    +0.000 A 
ATOM     20  C   UNL     1       3.671   2.749  18.696  0.00  0.00    +0.000 A 
ATOM     21  C   UNL     1       3.574   4.159  18.675  0.00  0.00    +0.000 A 
BRANCH  21  22
ATOM     22  S   UNL     1       5.091   5.048  18.410  0.00  0.00    +0.000 S 
ATOM     23  O   UNL     1       5.070   5.665  17.104  0.00  0.00    +0.000 OA
ATOM     24  O   UNL     1       5.445   5.759  19.621  0.00  0.00    +0.000 OA
BRANCH  22  25
ATOM     25  N   UNL     1       6.283   3.872  18.241  0.00  0.00    +0.000 NA
ATOM     26  H   UNL     1       5.937   3.012  18.675  0.00  0.00    +0.000 HD
ATOM     27  H   UNL     1       6.509   3.762  17.252  0.00  0.00    +0.000 HD
ENDBRANCH  22  25
ENDBRANCH  21  22
ENDBRANCH  13  16
ENDBRANCH   7  10
BRANCH   2  28
ATOM     28  C   UNL     1      -2.042  12.998  20.197  0.00  0.00    +0.000 A 
ATOM     29  C   UNL     1      -2.986  12.434  19.331  0.00  0.00    +0.000 A 
ATOM     30  C   UNL     1      -4.265  12.120  19.796  0.00  0.00    +0.000 A 
ATOM     31  C   UNL     1      -4.606  12.355  21.131  0.00  0.00    +0.000 A 
ATOM     32  C   UNL     1      -3.657  12.885  22.013  0.00  0.00    +0.000 A 
ATOM     33  C   UNL     1      -2.375  13.201  21.543  0.00  0.00    +0.000 A 
BRANCH  32  34
ATOM     34  C   UNL     1      -3.993  13.075  23.457  0.00  0.00    +0.000 C 
ATOM     35  N   UNL     1      -3.424  13.990  24.193  0.00  0.00    +0.000 NA
ATOM     36  N   UNL     1      -4.920  12.243  24.056  0.00  0.00    +0.000 N 
ATOM     37  H   UNL     1      -2.802  14.582  23.637  0.00  0.00    +0.000 HD
ATOM     38  H   UNL     1      -5.107  11.345  23.619  0.00  0.00    +0.000 HD
BRANCH  36  39
ATOM     39  O   UNL     1      -4.725  12.151  25.444  0.00  0.00    +0.000 OA
ATOM     40  H   UNL     1      -4.191  11.324  25.518  0.00  0.00    +0.000 HD
ENDBRANCH  36  39
ENDBRANCH  32  34
ENDBRANCH   2  28
TORSDOF 7
ENDMDL
MODEL 2
REMARK VINA RESULT:      -8.6      3.060      4.559
REMARK  Name = 
REMARK  8 active torsions:
REMARK  status: ('A' for Active; 'I' for Inactive)
REMARK    1  A    between atoms: C_1  and  C_2
REMARK    2  A    between atoms: C_2  and  C_26
REMARK    3  A    between atoms: N_7  and  C_8
REMARK    4  A    between atoms: C_11  and  C_12
REMARK    5  A    between atoms: C_17  and  S_18
REMARK    6  A    between atoms: S_18  and  N_19
REMARK    7  A    between atoms: C_30  and  C_31
REMARK    8  A    between atoms: N_33  and  O_34
REMARK                            x       y       z     vdW  Elec       q    Type
REMARK                         _______ _______ _______ _____ _____    ______ ____
ROOT
ATOM      1  C   UNL     1      -2.930  13.738  20.695  0.00  0.00    +0.000 C 
ATOM      2  C   UNL     1      -2.549  12.451  20.020  0.00  0.00    +0.000 C 
ATOM      3  C   UNL     1      -1.399  11.792  20.269  0.00  0.00    +0.000 C 
ATOM      4  C   UNL     1      -0.297  12.249  21.158  0.00  0.00    +0.000 C 
ATOM      5  C   UNL     1       0.866  11.439  20.658  0.00  0.00    +0.000 C 
ATOM      6  O   UNL     1       2.018  11.735  20.952  0.00  0.00    +0.000 OA
ATOM      7  N   UNL     1       0.408  10.408  19.868  0.00  0.00    +0.000 N 
ATOM      8  C   UNL     1      -0.943  10.520  19.633  0.00  0.00    +0.000 C 
ATOM      9  O   UNL     1      -1.703   9.731  19.098  0.00  0.00    +0.000 OA
ENDROOT
BRANCH   7  10
ATOM     10  C   UNL     1       1.229   9.360  19.354  0.00  0.00    +0.000 A 
ATOM     11  C   UNL     1       1.708   9.376  18.042  0.00  0.00    +0.000 A 
ATOM     12  C   UNL     1       2.484   8.321  17.531  0.00  0.00    +0.000 A 
ATOM     13  C   UNL     1       2.860   7.215  18.314  0.00  0.00    +0.000 A 
ATOM     14  C   UNL     1       2.448   7.258  19.646  0.00  0.00    +0.000 A 
ATOM     15  C   UNL     1       1.615   8.274  20.144  0.00  0.00    +0.000 A 
BRANCH  13  16
ATOM     16  C   UNL     1       3.689   6.114  17.735  0.00  0.00    +0.000 A 
ATOM     17  C   UNL     1       4.976   6.460  17.245  0.00  0.00    +0.000 A 
ATOM     18  C   UNL     1       5.815   5.548  16.598  0.00  0.00    +0.000 A 
ATOM     19  C   UNL     1       5.411   4.232  16.447  0.00  0.00    +0.000 A 
ATOM     20  C   UNL     1       4.176   3.834  16.944  0.00  0.00    +0.000 A 
ATOM     21  C   UNL     1       3.311   4.756  17.577  0.00  0.00    +0.000 A 
BRANCH  21  22
ATOM     22  S   UNL     1       1.729   4.127  18.090  0.00  0.00    +0.000 S 
ATOM     23  O   UNL     1       1.586   4.279  19.520  0.00  0.00    +0.000 OA
ATOM     24  O   UNL     1       0.719   4.544  17.140  0.00  0.00    +0.000 OA
BRANCH  22  25
ATOM     25  N   UNL     1       1.824   2.457  17.907  0.00  0.00    +0.000 NA
ATOM     26  H   UNL     1       1.108   2.036  18.505  0.00  0.00    +0.000 HD
ATOM     27  H   UNL     1       1.714   2.220  16.920  0.00  0.00    +0.000 HD
ENDBRANCH  22  25
ENDBRANCH  21  22
ENDBRANCH  13  16
ENDBRANCH   7  10
BRANCH   2  28
ATOM     28  C   UNL     1      -3.505  11.988  18.996  0.00  0.00    +0.000 A 
ATOM     29  C   UNL     1      -4.879  11.936  19.259  0.00  0.00    +0.000 A 
ATOM     30  C   UNL     1      -5.755  11.407  18.308  0.00  0.00    +0.000 A 
ATOM     31  C   UNL     1      -5.267  10.938  17.086  0.00  0.00    +0.000 A 
ATOM     32  C   UNL     1      -3.899  11.019  16.800  0.00  0.00    +0.000 A 
ATOM     33  C   UNL     1      -3.022  11.549  17.757  0.00  0.00    +0.000 A 
BRANCH  32  34
ATOM     34  C   UNL     1      -3.381  10.582  15.468  0.00  0.00    +0.000 C 
ATOM     35  N   UNL     1      -2.105  10.536  15.196  0.00  0.00    +0.000 NA
ATOM     36  N   UNL     1      -4.272  10.235  14.470  0.00  0.00    +0.000 N 
ATOM     37  H   UNL     1      -1.539  10.756  16.019  0.00  0.00    +0.000 HD
ATOM     38  H   UNL     1      -5.224  10.581  14.541  0.00  0.00    +0.000 HD
BRANCH  36  39
ATOM     39  O   UNL     1      -3.718  10.399  13.190  0.00  0.00    +0.000 OA
ATOM     40  H   UNL     1      -4.154  11.231  12.887  0.00  0.00    +0.000 HD
ENDBRANCH  36  39
ENDBRANCH  32  34
ENDBRANCH   2  28
TORSDOF 7
ENDMDL
MODEL 3
REMARK VINA RESULT:      -8.5      3.176      5.081
REMARK  Name = 
REMARK  8 active torsions:
REMARK  status: ('A' for Active; 'I' for Inactive)
REMARK    1  A    between atoms: C_1  and  C_2
REMARK    2  A    between atoms: C_2  and  C_26
REMARK    3  A    between atoms: N_7  and  C_8
REMARK    4  A    between atoms: C_11  and  C_12
REMARK    5  A    between atoms: C_17  and  S_18
REMARK    6  A    between atoms: S_18  and  N_19
REMARK    7  A    between atoms: C_30  and  C_31
REMARK    8  A    between atoms: N_33  and  O_34
REMARK                            x       y       z     vdW  Elec       q    Type
REMARK                         _______ _______ _______ _____ _____    ______ ____
ROOT
ATOM      1  C   UNL     1      -1.092  13.732  22.447  0.00  0.00    +0.000 C 
ATOM      2  C   UNL     1      -0.195  13.145  21.393  0.00  0.00    +0.000 C 
ATOM      3  C   UNL     1      -0.178  11.835  21.075  0.00  0.00    +0.000 C 
ATOM      4  C   UNL     1      -0.950  10.755  21.748  0.00  0.00    +0.000 C 
ATOM      5  C   UNL     1      -0.177   9.527  21.360  0.00  0.00    +0.000 C 
ATOM      6  O   UNL     1      -0.337   8.465  21.949  0.00  0.00    +0.000 OA
ATOM      7  N   UNL     1       0.673   9.824  20.318  0.00  0.00    +0.000 N 
ATOM      8  C   UNL     1       0.689  11.175  20.055  0.00  0.00    +0.000 C 
ATOM      9  O   UNL     1       1.212  11.777  19.133  0.00  0.00    +0.000 OA
ENDROOT
BRANCH   7  10
ATOM     10  C   UNL     1       1.444   8.857  19.605  0.00  0.00    +0.000 A 
ATOM     11  C   UNL     1       1.959   7.720  20.231  0.00  0.00    +0.000 A 
ATOM     12  C   UNL     1       2.750   6.792  19.531  0.00  0.00    +0.000 A 
ATOM     13  C   UNL     1       3.034   6.926  18.159  0.00  0.00    +0.000 A 
ATOM     14  C   UNL     1       2.437   8.020  17.531  0.00  0.00    +0.000 A 
ATOM     15  C   UNL     1       1.704   8.987  18.238  0.00  0.00    +0.000 A 
BRANCH  13  16
ATOM     16  C   UNL     1       3.876   5.916  17.449  0.00  0.00    +0.000 A 
ATOM     17  C   UNL     1       5.037   6.392  16.785  0.00  0.00    +0.000 A 
ATOM     18  C   UNL     1       5.861   5.572  16.010  0.00  0.00    +0.000 A 
ATOM     19  C   UNL     1       5.574   4.222  15.897  0.00  0.00    +0.000 A 
ATOM     20  C   UNL     1       4.470   3.700  16.559  0.00  0.00    +0.000 A 
ATOM     21  C   UNL     1       3.618   4.527  17.325  0.00  0.00    +0.000 A 
BRANCH  21  22
ATOM     22  S   UNL     1       2.198   3.740  18.050  0.00  0.00    +0.000 S 
ATOM     23  O   UNL     1       2.378   3.632  19.479  0.00  0.00    +0.000 OA
ATOM     24  O   UNL     1       0.996   4.264  17.436  0.00  0.00    +0.000 OA
BRANCH  22  25
ATOM     25  N   UNL     1       2.266   2.134  17.550  0.00  0.00    +0.000 NA
ATOM     26  H   UNL     1       3.064   2.037  16.918  0.00  0.00    +0.000 HD
ATOM     27  H   UNL     1       2.326   1.529  18.370  0.00  0.00    +0.000 HD
ENDBRANCH  22  25
ENDBRANCH  21  22
ENDBRANCH  13  16
ENDBRANCH   7  10
BRANCH   2  28
ATOM     28  C   UNL     1       0.732  14.109  20.770  0.00  0.00    +0.000 A 
ATOM     29  C   UNL     1       2.086  14.144  21.121  0.00  0.00    +0.000 A 
ATOM     30  C   UNL     1       2.924  15.125  20.587  0.00  0.00    +0.000 A 
ATOM     31  C   UNL     1       2.419  16.070  19.690  0.00  0.00    +0.000 A 
ATOM     32  C   UNL     1       1.074  16.021  19.306  0.00  0.00    +0.000 A 
ATOM     33  C   UNL     1       0.235  15.036  19.844  0.00  0.00    +0.000 A 
BRANCH  32  34
ATOM     34  C   UNL     1       0.544  16.986  18.295  0.00  0.00    +0.000 C 
ATOM     35  N   UNL     1      -0.713  17.010  17.943  0.00  0.00    +0.000 NA
ATOM     36  N   UNL     1       1.407  17.875  17.683  0.00  0.00    +0.000 N 
ATOM     37  H   UNL     1      -1.268  16.354  18.497  0.00  0.00    +0.000 HD
ATOM     38  H   UNL     1       2.398  17.652  17.681  0.00  0.00    +0.000 HD
BRANCH  36  39
ATOM     39  O   UNL     1       0.933  18.291  16.428  0.00  0.00    +0.000 OA
ATOM     40  H   UNL     1       0.268  18.975  16.681  0.00  0.00    +0.000 HD
ENDBRANCH  36  39
ENDBRANCH  32  34
ENDBRANCH   2  28
TORSDOF 7
ENDMDL
MODEL 4
REMARK VINA RESULT:      -8.1      0.637      1.153
REMARK  Name = 
REMARK  8 active torsions:
REMARK  status: ('A' for Active; 'I' for Inactive)
REMARK    1  A    between atoms: C_1  and  C_2
REMARK    2  A    between atoms: C_2  and  C_26
REMARK    3  A    between atoms: N_7  and  C_8
REMARK    4  A    between atoms: C_11  and  C_12
REMARK    5  A    between atoms: C_17  and  S_18
REMARK    6  A    between atoms: S_18  and  N_19
REMARK    7  A    between atoms: C_30  and  C_31
REMARK    8  A    between atoms: N_33  and  O_34
REMARK                            x       y       z     vdW  Elec       q    Type
REMARK                         _______ _______ _______ _____ _____    ______ ____
ROOT
ATOM      1  C   UNL     1      -0.723  14.820  19.364  0.00  0.00    +0.000 C 
ATOM      2  C   UNL     1      -0.844  13.336  19.565  0.00  0.00    +0.000 C 
ATOM      3  C   UNL     1       0.186  12.478  19.420  0.00  0.00    +0.000 C 
ATOM      4  C   UNL     1       1.560  12.821  18.962  0.00  0.00    +0.000 C 
ATOM      5  C   UNL     1       2.081  11.488  18.503  0.00  0.00    +0.000 C 
ATOM      6  O   UNL     1       3.079  11.407  17.799  0.00  0.00    +0.000 OA
ATOM      7  N   UNL     1       1.270  10.484  18.983  0.00  0.00    +0.000 N 
ATOM      8  C   UNL     1       0.145  10.995  19.587  0.00  0.00    +0.000 C 
ATOM      9  O   UNL     1      -0.715  10.420  20.233  0.00  0.00    +0.000 OA
ENDROOT
BRANCH   7  10
ATOM     10  C   UNL     1       1.556   9.091  18.863  0.00  0.00    +0.000 A 
ATOM     11  C   UNL     1       1.798   8.290  19.982  0.00  0.00    +0.000 A 
ATOM     12  C   UNL     1       2.118   6.928  19.853  0.00  0.00    +0.000 A 
ATOM     13  C   UNL     1       2.169   6.279  18.605  0.00  0.00    +0.000 A 
ATOM     14  C   UNL     1       1.837   7.074  17.507  0.00  0.00    +0.000 A 
ATOM     15  C   UNL     1       1.585   8.451  17.622  0.00  0.00    +0.000 A 
BRANCH  13  16
ATOM     16  C   UNL     1       2.510   4.828  18.510  0.00  0.00    +0.000 A 
ATOM     17  C   UNL     1       1.433   3.904  18.567  0.00  0.00    +0.000 A 
ATOM     18  C   UNL     1       1.618   2.519  18.580  0.00  0.00    +0.000 A 
ATOM     19  C   UNL     1       2.898   1.997  18.499  0.00  0.00    +0.000 A 
ATOM     20  C   UNL     1       3.984   2.859  18.402  0.00  0.00    +0.000 A 
ATOM     21  C   UNL     1       3.807   4.261  18.413  0.00  0.00    +0.000 A 
BRANCH  21  22
ATOM     22  S   UNL     1       5.288   5.243  18.365  0.00  0.00    +0.000 S 
ATOM     23  O   UNL     1       5.260   6.111  17.211  0.00  0.00    +0.000 OA
ATOM     24  O   UNL     1       5.598   5.706  19.702  0.00  0.00    +0.000 OA
BRANCH  22  25
ATOM     25  N   UNL     1       6.530   4.171  17.988  0.00  0.00    +0.000 NA
ATOM     26  H   UNL     1       6.108   3.339  17.567  0.00  0.00    +0.000 HD
ATOM     27  H   UNL     1       7.201   4.636  17.374  0.00  0.00    +0.000 HD
ENDBRANCH  22  25
ENDBRANCH  21  22
ENDBRANCH  13  16
ENDBRANCH   7  10
BRANCH   2  28
ATOM     28  C   UNL     1      -2.210  12.867  19.869  0.00  0.00    +0.000 A 
ATOM     29  C   UNL     1      -2.987  12.222  18.900  0.00  0.00    +0.000 A 
ATOM     30  C   UNL     1      -4.309  11.870  19.182  0.00  0.00    +0.000 A 
ATOM     31  C   UNL     1      -4.859  12.149  20.435  0.00  0.00    +0.000 A 
ATOM     32  C   UNL     1      -4.079  12.762  21.422  0.00  0.00    +0.000 A 
ATOM     33  C   UNL     1      -2.752  13.115  21.136  0.00  0.00    +0.000 A 
BRANCH  32  34
ATOM     34  C   UNL     1      -4.640  13.001  22.787  0.00  0.00    +0.000 C 
ATOM     35  N   UNL     1      -5.791  12.515  23.164  0.00  0.00    +0.000 NA
ATOM     36  N   UNL     1      -3.940  13.786  23.684  0.00  0.00    +0.000 N 
ATOM     37  H   UNL     1      -6.192  11.906  22.447  0.00  0.00    +0.000 HD
ATOM     38  H   UNL     1      -3.248  14.431  23.314  0.00  0.00    +0.000 HD
BRANCH  36  39
ATOM     39  O   UNL     1      -4.784  14.371  24.641  0.00  0.00    +0.000 OA
ATOM     40  H   UNL     1      -5.421  13.639  24.823  0.00  0.00    +0.000 HD
ENDBRANCH  36  39
ENDBRANCH  32  34
ENDBRANCH   2  28
TORSDOF 7
ENDMDL
MODEL 5
REMARK VINA RESULT:      -8.1      3.216      5.299
REMARK  Name = 
REMARK  8 active torsions:
REMARK  status: ('A' for Active; 'I' for Inactive)
REMARK    1  A    between atoms: C_1  and  C_2
REMARK    2  A    between atoms: C_2  and  C_26
REMARK    3  A    between atoms: N_7  and  C_8
REMARK    4  A    between atoms: C_11  and  C_12
REMARK    5  A    between atoms: C_17  and  S_18
REMARK    6  A    between atoms: S_18  and  N_19
REMARK    7  A    between atoms: C_30  and  C_31
REMARK    8  A    between atoms: N_33  and  O_34
REMARK                            x       y       z     vdW  Elec       q    Type
REMARK                         _______ _______ _______ _____ _____    ______ ____
ROOT
ATOM      1  C   UNL     1      -0.904  13.738  22.292  0.00  0.00    +0.000 C 
ATOM      2  C   UNL     1       0.020  13.119  21.281  0.00  0.00    +0.000 C 
ATOM      3  C   UNL     1      -0.011  11.813  20.946  0.00  0.00    +0.000 C 
ATOM      4  C   UNL     1      -0.873  10.766  21.560  0.00  0.00    +0.000 C 
ATOM      5  C   UNL     1      -0.141   9.505  21.197  0.00  0.00    +0.000 C 
ATOM      6  O   UNL     1      -0.387   8.446  21.761  0.00  0.00    +0.000 OA
ATOM      7  N   UNL     1       0.779   9.771  20.207  0.00  0.00    +0.000 N 
ATOM      8  C   UNL     1       0.877  11.121  19.965  0.00  0.00    +0.000 C 
ATOM      9  O   UNL     1       1.479  11.707  19.081  0.00  0.00    +0.000 OA
ENDROOT
BRANCH   7  10
ATOM     10  C   UNL     1       1.538   8.774  19.524  0.00  0.00    +0.000 A 
ATOM     11  C   UNL     1       2.011   7.633  20.175  0.00  0.00    +0.000 A 
ATOM     12  C   UNL     1       2.791   6.675  19.505  0.00  0.00    +0.000 A 
ATOM     13  C   UNL     1       3.106   6.782  18.138  0.00  0.00    +0.000 A 
ATOM     14  C   UNL     1       2.551   7.882  17.482  0.00  0.00    +0.000 A 
ATOM     15  C   UNL     1       1.829   8.878  18.161  0.00  0.00    +0.000 A 
BRANCH  13  16
ATOM     16  C   UNL     1       3.936   5.741  17.459  0.00  0.00    +0.000 A 
ATOM     17  C   UNL     1       5.136   6.173  16.835  0.00  0.00    +0.000 A 
ATOM     18  C   UNL     1       5.956   5.322  16.090  0.00  0.00    +0.000 A 
ATOM     19  C   UNL     1       5.625   3.983  15.970  0.00  0.00    +0.000 A 
ATOM     20  C   UNL     1       4.481   3.502  16.594  0.00  0.00    +0.000 A 
ATOM     21  C   UNL     1       3.633   4.362  17.329  0.00  0.00    +0.000 A 
BRANCH  21  22
ATOM     22  S   UNL     1       2.162   3.627  18.006  0.00  0.00    +0.000 S 
ATOM     23  O   UNL     1       2.295   3.504  19.439  0.00  0.00    +0.000 OA
ATOM     24  O   UNL     1       1.000   4.203  17.360  0.00  0.00    +0.000 OA
BRANCH  22  25
ATOM     25  N   UNL     1       2.180   2.023  17.497  0.00  0.00    +0.000 NA
ATOM     26  H   UNL     1       1.269   1.817  17.079  0.00  0.00    +0.000 HD
ATOM     27  H   UNL     1       2.959   1.884  16.851  0.00  0.00    +0.000 HD
ENDBRANCH  22  25
ENDBRANCH  21  22
ENDBRANCH  13  16
ENDBRANCH   7  10
BRANCH   2  28
ATOM     28  C   UNL     1       1.026  14.042  20.722  0.00  0.00    +0.000 A 
ATOM     29  C   UNL     1       0.713  14.901  19.664  0.00  0.00    +0.000 A 
ATOM     30  C   UNL     1       1.706  15.699  19.090  0.00  0.00    +0.000 A 
ATOM     31  C   UNL     1       3.015  15.652  19.578  0.00  0.00    +0.000 A 
ATOM     32  C   UNL     1       3.330  14.822  20.660  0.00  0.00    +0.000 A 
ATOM     33  C   UNL     1       2.331  14.021  21.232  0.00  0.00    +0.000 A 
BRANCH  32  34
ATOM     34  C   UNL     1       4.711  14.818  21.229  0.00  0.00    +0.000 C 
ATOM     35  N   UNL     1       4.972  14.375  22.429  0.00  0.00    +0.000 NA
ATOM     36  N   UNL     1       5.759  15.323  20.481  0.00  0.00    +0.000 N 
ATOM     37  H   UNL     1       4.139  13.974  22.868  0.00  0.00    +0.000 HD
ATOM     38  H   UNL     1       5.538  15.962  19.724  0.00  0.00    +0.000 HD
BRANCH  36  39
ATOM     39  O   UNL     1       6.816  15.769  21.290  0.00  0.00    +0.000 OA
ATOM     40  H   UNL     1       7.069  14.942  21.766  0.00  0.00    +0.000 HD
ENDBRANCH  36  39
ENDBRANCH  32  34
ENDBRANCH   2  28
TORSDOF 7
ENDMDL
MODEL 6
REMARK VINA RESULT:      -8.1      3.340      5.204
REMARK  Name = 
REMARK  8 active torsions:
REMARK  status: ('A' for Active; 'I' for Inactive)
REMARK    1  A    between atoms: C_1  and  C_2
REMARK    2  A    between atoms: C_2  and  C_26
REMARK    3  A    between atoms: N_7  and  C_8
REMARK    4  A    between atoms: C_11  and  C_12
REMARK    5  A    between atoms: C_17  and  S_18
REMARK    6  A    between atoms: S_18  and  N_19
REMARK    7  A    between atoms: C_30  and  C_31
REMARK    8  A    between atoms: N_33  and  O_34
REMARK                            x       y       z     vdW  Elec       q    Type
REMARK                         _______ _______ _______ _____ _____    ______ ____
ROOT
ATOM      1  C   UNL     1      -0.447  15.135  19.114  0.00  0.00    +0.000 C 
ATOM      2  C   UNL     1       0.646  14.117  18.942  0.00  0.00    +0.000 C 
ATOM      3  C   UNL     1       0.416  12.799  18.773  0.00  0.00    +0.000 C 
ATOM      4  C   UNL     1      -0.910  12.124  18.816  0.00  0.00    +0.000 C 
ATOM      5  C   UNL     1      -0.527  10.697  19.090  0.00  0.00    +0.000 C 
ATOM      6  O   UNL     1      -1.356   9.881  19.474  0.00  0.00    +0.000 OA
ATOM      7  N   UNL     1       0.820  10.525  18.856  0.00  0.00    +0.000 N 
ATOM      8  C   UNL     1       1.441  11.727  18.609  0.00  0.00    +0.000 C 
ATOM      9  O   UNL     1       2.581  11.946  18.235  0.00  0.00    +0.000 OA
ENDROOT
BRANCH   7  10
ATOM     10  C   UNL     1       1.486   9.263  18.873  0.00  0.00    +0.000 A 
ATOM     11  C   UNL     1       1.517   8.462  20.017  0.00  0.00    +0.000 A 
ATOM     12  C   UNL     1       2.209   7.239  20.037  0.00  0.00    +0.000 A 
ATOM     13  C   UNL     1       2.870   6.727  18.905  0.00  0.00    +0.000 A 
ATOM     14  C   UNL     1       2.753   7.498  17.747  0.00  0.00    +0.000 A 
ATOM     15  C   UNL     1       2.123   8.753  17.739  0.00  0.00    +0.000 A 
BRANCH  13  16
ATOM     16  C   UNL     1       3.592   5.421  18.965  0.00  0.00    +0.000 A 
ATOM     17  C   UNL     1       5.002   5.466  19.128  0.00  0.00    +0.000 A 
ATOM     18  C   UNL     1       5.807   4.324  19.109  0.00  0.00    +0.000 A 
ATOM     19  C   UNL     1       5.225   3.076  18.961  0.00  0.00    +0.000 A 
ATOM     20  C   UNL     1       3.845   2.975  18.837  0.00  0.00    +0.000 A 
ATOM     21  C   UNL     1       3.026   4.127  18.831  0.00  0.00    +0.000 A 
BRANCH  21  22
ATOM     22  S   UNL     1       1.286   3.855  18.583  0.00  0.00    +0.000 S 
ATOM     23  O   UNL     1       0.577   4.085  19.820  0.00  0.00    +0.000 OA
ATOM     24  O   UNL     1       0.888   4.436  17.317  0.00  0.00    +0.000 OA
BRANCH  22  25
ATOM     25  N   UNL     1       1.113   2.196  18.364  0.00  0.00    +0.000 NA
ATOM     26  H   UNL     1       2.050   1.794  18.268  0.00  0.00    +0.000 HD
ATOM     27  H   UNL     1       0.586   1.806  19.146  0.00  0.00    +0.000 HD
ENDBRANCH  22  25
ENDBRANCH  21  22
ENDBRANCH  13  16
ENDBRANCH   7  10
BRANCH   2  28
ATOM     28  C   UNL     1       2.013  14.662  19.042  0.00  0.00    +0.000 A 
ATOM     29  C   UNL     1       2.643  15.247  17.938  0.00  0.00    +0.000 A 
ATOM     30  C   UNL     1       3.970  15.671  18.031  0.00  0.00    +0.000 A 
ATOM     31  C   UNL     1       4.673  15.525  19.230  0.00  0.00    +0.000 A 
ATOM     32  C   UNL     1       4.041  14.973  20.349  0.00  0.00    +0.000 A 
ATOM     33  C   UNL     1       2.709  14.547  20.253  0.00  0.00    +0.000 A 
BRANCH  32  34
ATOM     34  C   UNL     1       4.765  14.877  21.653  0.00  0.00    +0.000 C 
ATOM     35  N   UNL     1       6.030  14.564  21.728  0.00  0.00    +0.000 NA
ATOM     36  N   UNL     1       4.080  15.099  22.833  0.00  0.00    +0.000 N 
ATOM     37  H   UNL     1       6.449  14.479  20.799  0.00  0.00    +0.000 HD
ATOM     38  H   UNL     1       3.068  15.003  22.820  0.00  0.00    +0.000 HD
BRANCH  36  39
ATOM     39  O   UNL     1       4.683  14.450  23.922  0.00  0.00    +0.000 OA
ATOM     40  H   UNL     1       5.476  14.043  23.500  0.00  0.00    +0.000 HD
ENDBRANCH  36  39
ENDBRANCH  32  34
ENDBRANCH   2  28
TORSDOF 7
ENDMDL
MODEL 7
REMARK VINA RESULT:      -8.1      3.036      4.963
REMARK  Name = 
REMARK  8 active torsions:
REMARK  status: ('A' for Active; 'I' for Inactive)
REMARK    1  A    between atoms: C_1  and  C_2
REMARK    2  A    between atoms: C_2  and  C_26
REMARK    3  A    between atoms: N_7  and  C_8
REMARK    4  A    between atoms: C_11  and  C_12
REMARK    5  A    between atoms: C_17  and  S_18
REMARK    6  A    between atoms: S_18  and  N_19
REMARK    7  A    between atoms: C_30  and  C_31
REMARK    8  A    between atoms: N_33  and  O_34
REMARK                            x       y       z     vdW  Elec       q    Type
REMARK                         _______ _______ _______ _____ _____    ______ ____
ROOT
ATOM      1  C   UNL     1      -0.030  15.320  18.834  0.00  0.00    +0.000 C 
ATOM      2  C   UNL     1       0.977  14.208  18.743  0.00  0.00    +0.000 C 
ATOM      3  C   UNL     1       0.642  12.909  18.603  0.00  0.00    +0.000 C 
ATOM      4  C   UNL     1      -0.738  12.350  18.604  0.00  0.00    +0.000 C 
ATOM      5  C   UNL     1      -0.491  10.906  18.938  0.00  0.00    +0.000 C 
ATOM      6  O   UNL     1      -1.404  10.177  19.307  0.00  0.00    +0.000 OA
ATOM      7  N   UNL     1       0.844  10.613  18.773  0.00  0.00    +0.000 N 
ATOM      8  C   UNL     1       1.578  11.749  18.520  0.00  0.00    +0.000 C 
ATOM      9  O   UNL     1       2.747  11.857  18.193  0.00  0.00    +0.000 OA
ENDROOT
BRANCH   7  10
ATOM     10  C   UNL     1       1.398   9.300  18.858  0.00  0.00    +0.000 A 
ATOM     11  C   UNL     1       1.527   8.634  20.079  0.00  0.00    +0.000 A 
ATOM     12  C   UNL     1       2.109   7.357  20.160  0.00  0.00    +0.000 A 
ATOM     13  C   UNL     1       2.554   6.658  19.023  0.00  0.00    +0.000 A 
ATOM     14  C   UNL     1       2.337   7.302  17.804  0.00  0.00    +0.000 A 
ATOM     15  C   UNL     1       1.820   8.605  17.722  0.00  0.00    +0.000 A 
BRANCH  13  16
ATOM     16  C   UNL     1       3.166   5.301  19.149  0.00  0.00    +0.000 A 
ATOM     17  C   UNL     1       2.522   4.378  20.015  0.00  0.00    +0.000 A 
ATOM     18  C   UNL     1       3.038   3.109  20.294  0.00  0.00    +0.000 A 
ATOM     19  C   UNL     1       4.209   2.695  19.683  0.00  0.00    +0.000 A 
ATOM     20  C   UNL     1       4.857   3.547  18.797  0.00  0.00    +0.000 A 
ATOM     21  C   UNL     1       4.356   4.841  18.529  0.00  0.00    +0.000 A 
BRANCH  21  22
ATOM     22  S   UNL     1       5.329   5.853  17.438  0.00  0.00    +0.000 S 
ATOM     23  O   UNL     1       4.753   5.835  16.114  0.00  0.00    +0.000 OA
ATOM     24  O   UNL     1       5.707   7.070  18.126  0.00  0.00    +0.000 OA
BRANCH  22  25
ATOM     25  N   UNL     1       6.776   5.021  17.219  0.00  0.00    +0.000 NA
ATOM     26  H   UNL     1       6.687   4.111  17.680  0.00  0.00    +0.000 HD
ATOM     27  H   UNL     1       6.975   4.948  16.220  0.00  0.00    +0.000 HD
ENDBRANCH  22  25
ENDBRANCH  21  22
ENDBRANCH  13  16
ENDBRANCH   7  10
BRANCH   2  28
ATOM     28  C   UNL     1       2.381  14.637  18.891  0.00  0.00    +0.000 A 
ATOM     29  C   UNL     1       3.111  15.115  17.798  0.00  0.00    +0.000 A 
ATOM     30  C   UNL     1       4.465  15.429  17.941  0.00  0.00    +0.000 A 
ATOM     31  C   UNL     1       5.094  15.278  19.180  0.00  0.00    +0.000 A 
ATOM     32  C   UNL     1       4.363  14.834  20.288  0.00  0.00    +0.000 A 
ATOM     33  C   UNL     1       3.005  14.519  20.140  0.00  0.00    +0.000 A 
BRANCH  32  34
ATOM     34  C   UNL     1       5.013  14.736  21.630  0.00  0.00    +0.000 C 
ATOM     35  N   UNL     1       6.290  14.503  21.773  0.00  0.00    +0.000 NA
ATOM     36  N   UNL     1       4.245  14.869  22.771  0.00  0.00    +0.000 N 
ATOM     37  H   UNL     1       6.768  14.480  20.869  0.00  0.00    +0.000 HD
ATOM     38  H   UNL     1       3.245  14.708  22.693  0.00  0.00    +0.000 HD
BRANCH  36  39
ATOM     39  O   UNL     1       4.824  14.221  23.874  0.00  0.00    +0.000 OA
ATOM     40  H   UNL     1       5.775  14.465  23.775  0.00  0.00    +0.000 HD
ENDBRANCH  36  39
ENDBRANCH  32  34
ENDBRANCH   2  28
TORSDOF 7
ENDMDL
MODEL 8
REMARK VINA RESULT:      -8.1      0.749      1.221
REMARK  Name = 
REMARK  8 active torsions:
REMARK  status: ('A' for Active; 'I' for Inactive)
REMARK    1  A    between atoms: C_1  and  C_2
REMARK    2  A    between atoms: C_2  and  C_26
REMARK    3  A    between atoms: N_7  and  C_8
REMARK    4  A    between atoms: C_11  and  C_12
REMARK    5  A    between atoms: C_17  and  S_18
REMARK    6  A    between atoms: S_18  and  N_19
REMARK    7  A    between atoms: C_30  and  C_31
REMARK    8  A    between atoms: N_33  and  O_34
REMARK                            x       y       z     vdW  Elec       q    Type
REMARK                         _______ _______ _______ _____ _____    ______ ____
ROOT
ATOM      1  C   UNL     1      -0.651  15.031  19.412  0.00  0.00    +0.000 C 
ATOM      2  C   UNL     1      -0.746  13.599  19.857  0.00  0.00    +0.000 C 
ATOM      3  C   UNL     1       0.230  12.691  19.658  0.00  0.00    +0.000 C 
ATOM      4  C   UNL     1       1.497  12.909  18.908  0.00  0.00    +0.000 C 
ATOM      5  C   UNL     1       1.910  11.504  18.571  0.00  0.00    +0.000 C 
ATOM      6  O   UNL     1       2.757  11.280  17.716  0.00  0.00    +0.000 OA
ATOM      7  N   UNL     1       1.193  10.614  19.340  0.00  0.00    +0.000 N 
ATOM      8  C   UNL     1       0.206  11.252  20.056  0.00  0.00    +0.000 C 
ATOM      9  O   UNL     1      -0.522  10.813  20.929  0.00  0.00    +0.000 OA
ENDROOT
BRANCH   7  10
ATOM     10  C   UNL     1       1.438   9.208  19.385  0.00  0.00    +0.000 A 
ATOM     11  C   UNL     1       1.365   8.486  20.578  0.00  0.00    +0.000 A 
ATOM     12  C   UNL     1       1.646   7.110  20.621  0.00  0.00    +0.000 A 
ATOM     13  C   UNL     1       1.972   6.370  19.469  0.00  0.00    +0.000 A 
ATOM     14  C   UNL     1       1.953   7.091  18.273  0.00  0.00    +0.000 A 
ATOM     15  C   UNL     1       1.741   8.478  18.233  0.00  0.00    +0.000 A 
BRANCH  13  16
ATOM     16  C   UNL     1       2.261   4.907  19.554  0.00  0.00    +0.000 A 
ATOM     17  C   UNL     1       1.239   4.073  20.079  0.00  0.00    +0.000 A 
ATOM     18  C   UNL     1       1.411   2.704  20.297  0.00  0.00    +0.000 A 
ATOM     19  C   UNL     1       2.611   2.101  19.962  0.00  0.00    +0.000 A 
ATOM     20  C   UNL     1       3.630   2.866  19.409  0.00  0.00    +0.000 A 
ATOM     21  C   UNL     1       3.473   4.257  19.208  0.00  0.00    +0.000 A 
BRANCH  21  22
ATOM     22  S   UNL     1       4.887   5.125  18.569  0.00  0.00    +0.000 S 
ATOM     23  O   UNL     1       4.612   5.580  17.226  0.00  0.00    +0.000 OA
ATOM     24  O   UNL     1       5.431   5.979  19.604  0.00  0.00    +0.000 OA
BRANCH  22  25
ATOM     25  N   UNL     1       6.067   3.950  18.323  0.00  0.00    +0.000 NA
ATOM     26  H   UNL     1       6.226   3.475  19.215  0.00  0.00    +0.000 HD
ATOM     27  H   UNL     1       5.764   3.319  17.579  0.00  0.00    +0.000 HD
ENDBRANCH  22  25
ENDBRANCH  21  22
ENDBRANCH  13  16
ENDBRANCH   7  10
BRANCH   2  28
ATOM     28  C   UNL     1      -2.035  13.233  20.475  0.00  0.00    +0.000 A 
ATOM     29  C   UNL     1      -3.071  12.678  19.716  0.00  0.00    +0.000 A 
ATOM     30  C   UNL     1      -4.314  12.426  20.303  0.00  0.00    +0.000 A 
ATOM     31  C   UNL     1      -4.525  12.715  21.654  0.00  0.00    +0.000 A 
ATOM     32  C   UNL     1      -3.484  13.237  22.429  0.00  0.00    +0.000 A 
ATOM     33  C   UNL     1      -2.239  13.490  21.837  0.00  0.00    +0.000 A 
BRANCH  32  34
ATOM     34  C   UNL     1      -3.683  13.485  23.890  0.00  0.00    +0.000 C 
ATOM     35  N   UNL     1      -4.707  13.010  24.546  0.00  0.00    +0.000 NA
ATOM     36  N   UNL     1      -2.774  14.265  24.579  0.00  0.00    +0.000 N 
ATOM     37  H   UNL     1      -5.281  12.404  23.955  0.00  0.00    +0.000 HD
ATOM     38  H   UNL     1      -2.191  14.902  24.045  0.00  0.00    +0.000 HD
BRANCH  36  39
ATOM     39  O   UNL     1      -3.345  14.860  25.715  0.00  0.00    +0.000 OA
ATOM     40  H   UNL     1      -3.955  15.522  25.311  0.00  0.00    +0.000 HD
ENDBRANCH  36  39
ENDBRANCH  32  34
ENDBRANCH   2  28
TORSDOF 7
ENDMDL
MODEL 9
REMARK VINA RESULT:      -8.0      1.794      2.388
REMARK  Name = 
REMARK  8 active torsions:
REMARK  status: ('A' for Active; 'I' for Inactive)
REMARK    1  A    between atoms: C_1  and  C_2
REMARK    2  A    between atoms: C_2  and  C_26
REMARK    3  A    between atoms: N_7  and  C_8
REMARK    4  A    between atoms: C_11  and  C_12
REMARK    5  A    between atoms: C_17  and  S_18
REMARK    6  A    between atoms: S_18  and  N_19
REMARK    7  A    between atoms: C_30  and  C_31
REMARK    8  A    between atoms: N_33  and  O_34
REMARK                            x       y       z     vdW  Elec       q    Type
REMARK                         _______ _______ _______ _____ _____    ______ ____
ROOT
ATOM      1  C   UNL     1      -0.554  15.105  19.560  0.00  0.00    +0.000 C 
ATOM      2  C   UNL     1      -0.669  13.644  19.897  0.00  0.00    +0.000 C 
ATOM      3  C   UNL     1       0.313  12.749  19.668  0.00  0.00    +0.000 C 
ATOM      4  C   UNL     1       1.607  13.016  18.982  0.00  0.00    +0.000 C 
ATOM      5  C   UNL     1       2.029  11.637  18.560  0.00  0.00    +0.000 C 
ATOM      6  O   UNL     1       2.907  11.472  17.722  0.00  0.00    +0.000 OA
ATOM      7  N   UNL     1       1.284  10.696  19.236  0.00  0.00    +0.000 N 
ATOM      8  C   UNL     1       0.273  11.285  19.960  0.00  0.00    +0.000 C 
ATOM      9  O   UNL     1      -0.488  10.788  20.772  0.00  0.00    +0.000 OA
ENDROOT
BRANCH   7  10
ATOM     10  C   UNL     1       1.525   9.290  19.189  0.00  0.00    +0.000 A 
ATOM     11  C   UNL     1       1.736   8.620  17.982  0.00  0.00    +0.000 A 
ATOM     12  C   UNL     1       1.933   7.229  17.940  0.00  0.00    +0.000 A 
ATOM     13  C   UNL     1       1.976   6.438  19.102  0.00  0.00    +0.000 A 
ATOM     14  C   UNL     1       1.852   7.137  20.304  0.00  0.00    +0.000 A 
ATOM     15  C   UNL     1       1.585   8.515  20.349  0.00  0.00    +0.000 A 
BRANCH  13  16
ATOM     16  C   UNL     1       2.192   4.962  19.017  0.00  0.00    +0.000 A 
ATOM     17  C   UNL     1       1.070   4.127  19.265  0.00  0.00    +0.000 A 
ATOM     18  C   UNL     1       1.154   2.733  19.307  0.00  0.00    +0.000 A 
ATOM     19  C   UNL     1       2.367   2.111  19.064  0.00  0.00    +0.000 A 
ATOM     20  C   UNL     1       3.487   2.882  18.778  0.00  0.00    +0.000 A 
ATOM     21  C   UNL     1       3.416   4.294  18.758  0.00  0.00    +0.000 A 
BRANCH  21  22
ATOM     22  S   UNL     1       4.943   5.155  18.460  0.00  0.00    +0.000 S 
ATOM     23  O   UNL     1       4.881   5.825  17.182  0.00  0.00    +0.000 OA
ATOM     24  O   UNL     1       5.370   5.806  19.681  0.00  0.00    +0.000 OA
BRANCH  22  25
ATOM     25  N   UNL     1       6.094   3.957  18.190  0.00  0.00    +0.000 NA
ATOM     26  H   UNL     1       6.826   4.355  17.597  0.00  0.00    +0.000 HD
ATOM     27  H   UNL     1       6.443   3.617  19.087  0.00  0.00    +0.000 HD
ENDBRANCH  22  25
ENDBRANCH  21  22
ENDBRANCH  13  16
ENDBRANCH   7  10
BRANCH   2  28
ATOM     28  C   UNL     1      -1.979  13.240  20.440  0.00  0.00    +0.000 A 
ATOM     29  C   UNL     1      -2.212  13.203  21.819  0.00  0.00    +0.000 A 
ATOM     30  C   UNL     1      -3.429  12.729  22.313  0.00  0.00    +0.000 A 
ATOM     31  C   UNL     1      -4.426  12.300  21.433  0.00  0.00    +0.000 A 
ATOM     32  C   UNL     1      -4.216  12.367  20.051  0.00  0.00    +0.000 A 
ATOM     33  C   UNL     1      -2.993  12.842  19.558  0.00  0.00    +0.000 A 
BRANCH  32  34
ATOM     34  C   UNL     1      -5.303  11.974  19.104  0.00  0.00    +0.000 C 
ATOM     35  N   UNL     1      -6.163  11.031  19.378  0.00  0.00    +0.000 NA
ATOM     36  N   UNL     1      -5.400  12.605  17.877  0.00  0.00    +0.000 N 
ATOM     37  H   UNL     1      -6.036  10.676  20.329  0.00  0.00    +0.000 HD
ATOM     38  H   UNL     1      -4.573  13.071  17.515  0.00  0.00    +0.000 HD
BRANCH  36  39
ATOM     39  O   UNL     1      -6.044  11.802  16.922  0.00  0.00    +0.000 OA
ATOM     40  H   UNL     1      -5.423  11.861  16.157  0.00  0.00    +0.000 HD
ENDBRANCH  36  39
ENDBRANCH  32  34
ENDBRANCH   2  28
TORSDOF 7
ENDMDL
