MODEL 1
REMARK VINA RESULT:      -8.6      0.000      0.000
REMARK  Name = 
REMARK  4 active torsions:
REMARK  status: ('A' for Active; 'I' for Inactive)
REMARK    1  A    between atoms: N_1  and  C_2
REMARK    2  A    between atoms: C_6  and  C_7
REMARK    3  A    between atoms: N_9  and  C_10
REMARK    4  A    between atoms: N_17  and  C_18
REMARK                            x       y       z     vdW  Elec       q    Type
REMARK                         _______ _______ _______ _____ _____    ______ ____
ROOT
ATOM      1  C   UNL     1       1.801   8.222  19.566  0.00  0.00    +0.000 A 
ATOM      2  C   UNL     1       2.153   8.786  18.333  0.00  0.00    +0.000 A 
ATOM      3  C   UNL     1       1.636  10.007  17.898  0.00  0.00    +0.000 A 
ATOM      4  C   UNL     1       0.749  10.648  18.753  0.00  0.00    +0.000 A 
ATOM      5  N   UNL     1       0.130  11.857  18.647  0.00  0.00    +0.000 N 
ATOM      6  N   UNL     1      -0.630  12.174  19.696  0.00  0.00    +0.000 NA
ATOM      7  C   UNL     1      -0.514  11.132  20.525  0.00  0.00    +0.000 A 
ATOM      8  N   UNL     1      -1.099  11.049  21.749  0.00  0.00    +0.000 N 
ATOM      9  C   UNL     1       0.329  10.117  19.969  0.00  0.00    +0.000 A 
ATOM     10  C   UNL     1       0.839   8.857  20.369  0.00  0.00    +0.000 A 
ATOM     11  H   UNL     1       0.208  12.530  17.893  0.00  0.00    +0.000 HD
ATOM     12  H   UNL     1      -1.201  10.145  22.192  0.00  0.00    +0.000 HD
ENDROOT
BRANCH   8  13
ATOM     13  C   UNL     1      -1.498  12.128  22.568  0.00  0.00    +0.000 A 
ATOM     14  C   UNL     1      -2.785  12.148  23.122  0.00  0.00    +0.000 A 
ATOM     15  C   UNL     1      -3.240  13.263  23.836  0.00  0.00    +0.000 A 
ATOM     16  C   UNL     1      -2.404  14.369  24.005  0.00  0.00    +0.000 A 
ATOM     17 BR   UNL     1      -3.030  15.893  24.930  0.00  0.00    +0.000 Br
ATOM     18  C   UNL     1      -1.119  14.362  23.481  0.00  0.00    +0.000 A 
ATOM     19  C   UNL     1      -0.678  13.251  22.760  0.00  0.00    +0.000 A 
ENDBRANCH   8  13
BRANCH   1  22
ATOM     20  C   UNL     1       2.594   5.879  19.308  0.00  0.00    +0.000 C 
ATOM     21  O   UNL     1       2.237   5.745  18.139  0.00  0.00    +0.000 OA
ATOM     22  N   UNL     1       2.411   7.035  20.057  0.00  0.00    +0.000 N 
ATOM     23  H   UNL     1       2.888   7.108  20.943  0.00  0.00    +0.000 HD
BRANCH  20  28
ATOM     24  C   UNL     1       2.387   2.755  18.659  0.00  0.00    +0.000 C 
ATOM     25  C   UNL     1       1.472   2.319  19.809  0.00  0.00    +0.000 C 
ATOM     26  C   UNL     1       1.104   3.490  20.714  0.00  0.00    +0.000 C 
ATOM     27  C   UNL     1       2.347   4.238  21.207  0.00  0.00    +0.000 C 
ATOM     28  C   UNL     1       3.255   4.707  20.051  0.00  0.00    +0.000 C 
ATOM     29  C   UNL     1       3.623   3.506  19.170  0.00  0.00    +0.000 C 
BRANCH  24  30
ATOM     30  N   UNL     1       2.825   1.586  17.895  0.00  0.00    +0.000 NA
ATOM     31  H   UNL     1       3.691   1.809  17.403  0.00  0.00    +0.000 HD
ATOM     32  H   UNL     1       2.145   1.379  17.162  0.00  0.00    +0.000 HD
ENDBRANCH  24  30
ENDBRANCH  20  28
ENDBRANCH   1  22
TORSDOF 4
ENDMDL
MODEL 2
REMARK VINA RESULT:      -8.1      0.931      1.075
REMARK  Name = 
REMARK  4 active torsions:
REMARK  status: ('A' for Active; 'I' for Inactive)
REMARK    1  A    between atoms: N_1  and  C_2
REMARK    2  A    between atoms: C_6  and  C_7
REMARK    3  A    between atoms: N_9  and  C_10
REMARK    4  A    between atoms: N_17  and  C_18
REMARK                            x       y       z     vdW  Elec       q    Type
REMARK                         _______ _______ _______ _____ _____    ______ ____
ROOT
ATOM      1  C   UNL     1       1.898   7.768  19.639  0.00  0.00    +0.000 A 
ATOM      2  C   UNL     1       2.321   8.089  18.344  0.00  0.00    +0.000 A 
ATOM      3  C   UNL     1       2.050   9.326  17.757  0.00  0.00    +0.000 A 
ATOM      4  C   UNL     1       1.337  10.237  18.525  0.00  0.00    +0.000 A 
ATOM      5  N   UNL     1       0.973  11.525  18.267  0.00  0.00    +0.000 N 
ATOM      6  N   UNL     1       0.325  12.119  19.268  0.00  0.00    +0.000 NA
ATOM      7  C   UNL     1       0.251  11.187  20.224  0.00  0.00    +0.000 A 
ATOM      8  N   UNL     1      -0.303  11.380  21.450  0.00  0.00    +0.000 N 
ATOM      9  C   UNL     1       0.854   9.960  19.800  0.00  0.00    +0.000 A 
ATOM     10  C   UNL     1       1.108   8.682  20.357  0.00  0.00    +0.000 A 
ATOM     11  H   UNL     1       1.165  12.067  17.432  0.00  0.00    +0.000 HD
ATOM     12  H   UNL     1      -0.573  10.579  22.005  0.00  0.00    +0.000 HD
ENDROOT
BRANCH   8  13
ATOM     13  C   UNL     1      -0.451  12.611  22.125  0.00  0.00    +0.000 A 
ATOM     14  C   UNL     1      -1.487  12.781  23.052  0.00  0.00    +0.000 A 
ATOM     15  C   UNL     1      -1.724  14.030  23.642  0.00  0.00    +0.000 A 
ATOM     16  C   UNL     1      -0.917  15.120  23.307  0.00  0.00    +0.000 A 
ATOM     17 BR   UNL     1      -1.260  16.816  24.066  0.00  0.00    +0.000 Br
ATOM     18  C   UNL     1       0.126  14.968  22.405  0.00  0.00    +0.000 A 
ATOM     19  C   UNL     1       0.347  13.724  21.813  0.00  0.00    +0.000 A 
ENDBRANCH   8  13
BRANCH   1  22
ATOM     20  C   UNL     1       2.955   5.517  19.654  0.00  0.00    +0.000 C 
ATOM     21  O   UNL     1       3.309   5.528  18.477  0.00  0.00    +0.000 OA
ATOM     22  N   UNL     1       2.269   6.552  20.277  0.00  0.00    +0.000 N 
ATOM     23  H   UNL     1       2.175   6.524  21.281  0.00  0.00    +0.000 HD
BRANCH  20  28
ATOM     24  C   UNL     1       2.968   2.439  18.789  0.00  0.00    +0.000 C 
ATOM     25  C   UNL     1       1.654   1.990  19.436  0.00  0.00    +0.000 C 
ATOM     26  C   UNL     1       0.971   3.131  20.181  0.00  0.00    +0.000 C 
ATOM     27  C   UNL     1       1.917   3.801  21.183  0.00  0.00    +0.000 C 
ATOM     28  C   UNL     1       3.229   4.284  20.529  0.00  0.00    +0.000 C 
ATOM     29  C   UNL     1       3.901   3.111  19.803  0.00  0.00    +0.000 C 
BRANCH  24  30
ATOM     30  N   UNL     1       3.657   1.289  18.200  0.00  0.00    +0.000 NA
ATOM     31  H   UNL     1       3.312   0.431  18.632  0.00  0.00    +0.000 HD
ATOM     32  H   UNL     1       4.650   1.327  18.432  0.00  0.00    +0.000 HD
ENDBRANCH  24  30
ENDBRANCH  20  28
ENDBRANCH   1  22
TORSDOF 4
ENDMDL
MODEL 3
REMARK VINA RESULT:      -8.1      0.681      1.055
REMARK  Name = 
REMARK  4 active torsions:
REMARK  status: ('A' for Active; 'I' for Inactive)
REMARK    1  A    between atoms: N_1  and  C_2
REMARK    2  A    between atoms: C_6  and  C_7
REMARK    3  A    between atoms: N_9  and  C_10
REMARK    4  A    between atoms: N_17  and  C_18
REMARK                            x       y       z     vdW  Elec       q    Type
REMARK                         _______ _______ _______ _____ _____    ______ ____
ROOT
ATOM      1  C   UNL     1       1.928   7.913  19.504  0.00  0.00    +0.000 A 
ATOM      2  C   UNL     1       2.469   8.385  18.302  0.00  0.00    +0.000 A 
ATOM      3  C   UNL     1       2.073   9.595  17.732  0.00  0.00    +0.000 A 
ATOM      4  C   UNL     1       1.110  10.322  18.419  0.00  0.00    +0.000 A 
ATOM      5  N   UNL     1       0.567  11.545  18.161  0.00  0.00    +0.000 N 
ATOM      6  N   UNL     1      -0.311  11.956  19.076  0.00  0.00    +0.000 NA
ATOM      7  C   UNL     1      -0.357  10.964  19.971  0.00  0.00    +0.000 A 
ATOM      8  N   UNL     1      -1.104  10.980  21.106  0.00  0.00    +0.000 N 
ATOM      9  C   UNL     1       0.506   9.885  19.594  0.00  0.00    +0.000 A 
ATOM     10  C   UNL     1       0.897   8.633  20.131  0.00  0.00    +0.000 A 
ATOM     11  H   UNL     1       0.778  12.166  17.387  0.00  0.00    +0.000 HD
ATOM     12  H   UNL     1      -1.307  10.111  21.581  0.00  0.00    +0.000 HD
ENDROOT
BRANCH   8  13
ATOM     13  C   UNL     1      -1.559  12.123  21.800  0.00  0.00    +0.000 A 
ATOM     14  C   UNL     1      -0.726  12.753  22.734  0.00  0.00    +0.000 A 
ATOM     15  C   UNL     1      -1.202  13.812  23.518  0.00  0.00    +0.000 A 
ATOM     16  C   UNL     1      -2.518  14.252  23.367  0.00  0.00    +0.000 A 
ATOM     17 BR   UNL     1      -3.177  15.650  24.453  0.00  0.00    +0.000 Br
ATOM     18  C   UNL     1      -3.354  13.654  22.434  0.00  0.00    +0.000 A 
ATOM     19  C   UNL     1      -2.876  12.591  21.666  0.00  0.00    +0.000 A 
ENDBRANCH   8  13
BRANCH   1  22
ATOM     20  C   UNL     1       3.071   5.704  19.485  0.00  0.00    +0.000 C 
ATOM     21  O   UNL     1       3.303   5.684  18.279  0.00  0.00    +0.000 OA
ATOM     22  N   UNL     1       2.410   6.736  20.141  0.00  0.00    +0.000 N 
ATOM     23  H   UNL     1       2.420   6.742  21.150  0.00  0.00    +0.000 HD
BRANCH  20  28
ATOM     24  C   UNL     1       2.875   2.583  18.822  0.00  0.00    +0.000 C 
ATOM     25  C   UNL     1       1.695   2.207  19.726  0.00  0.00    +0.000 C 
ATOM     26  C   UNL     1       1.181   3.407  20.513  0.00  0.00    +0.000 C 
ATOM     27  C   UNL     1       2.307   4.107  21.281  0.00  0.00    +0.000 C 
ATOM     28  C   UNL     1       3.483   4.516  20.369  0.00  0.00    +0.000 C 
ATOM     29  C   UNL     1       3.990   3.286  19.605  0.00  0.00    +0.000 C 
BRANCH  24  30
ATOM     30  N   UNL     1       3.424   1.383  18.187  0.00  0.00    +0.000 NA
ATOM     31  H   UNL     1       4.135   0.975  18.795  0.00  0.00    +0.000 HD
ATOM     32  H   UNL     1       3.918   1.641  17.332  0.00  0.00    +0.000 HD
ENDBRANCH  24  30
ENDBRANCH  20  28
ENDBRANCH   1  22
TORSDOF 4
ENDMDL
MODEL 4
REMARK VINA RESULT:      -8.0      4.039      9.418
REMARK  Name = 
REMARK  4 active torsions:
REMARK  status: ('A' for Active; 'I' for Inactive)
REMARK    1  A    between atoms: N_1  and  C_2
REMARK    2  A    between atoms: C_6  and  C_7
REMARK    3  A    between atoms: N_9  and  C_10
REMARK    4  A    between atoms: N_17  and  C_18
REMARK                            x       y       z     vdW  Elec       q    Type
REMARK                         _______ _______ _______ _____ _____    ______ ____
ROOT
ATOM      1  C   UNL     1      -0.374  11.019  20.705  0.00  0.00    +0.000 A 
ATOM      2  C   UNL     1      -0.454  11.662  19.463  0.00  0.00    +0.000 A 
ATOM      3  C   UNL     1       0.209  11.182  18.332  0.00  0.00    +0.000 A 
ATOM      4  C   UNL     1       0.956  10.023  18.493  0.00  0.00    +0.000 A 
ATOM      5  N   UNL     1       1.656   9.284  17.586  0.00  0.00    +0.000 N 
ATOM      6  N   UNL     1       2.222   8.190  18.096  0.00  0.00    +0.000 NA
ATOM      7  C   UNL     1       1.890   8.209  19.391  0.00  0.00    +0.000 A 
ATOM      8  N   UNL     1       2.228   7.247  20.290  0.00  0.00    +0.000 N 
ATOM      9  C   UNL     1       1.107   9.365  19.709  0.00  0.00    +0.000 A 
ATOM     10  C   UNL     1       0.457   9.895  20.851  0.00  0.00    +0.000 A 
ATOM     11  H   UNL     1       1.761   9.459  16.593  0.00  0.00    +0.000 HD
ATOM     12  H   UNL     1       2.191   7.455  21.279  0.00  0.00    +0.000 HD
ENDROOT
BRANCH   8  13
ATOM     13  C   UNL     1       2.530   5.897  20.007  0.00  0.00    +0.000 A 
ATOM     14  C   UNL     1       3.793   5.552  19.507  0.00  0.00    +0.000 A 
ATOM     15  C   UNL     1       4.071   4.238  19.109  0.00  0.00    +0.000 A 
ATOM     16  C   UNL     1       3.084   3.257  19.213  0.00  0.00    +0.000 A 
ATOM     17 BR   UNL     1       3.440   1.494  18.635  0.00  0.00    +0.000 Br
ATOM     18  C   UNL     1       1.832   3.573  19.723  0.00  0.00    +0.000 A 
ATOM     19  C   UNL     1       1.560   4.887  20.107  0.00  0.00    +0.000 A 
ENDBRANCH   8  13
BRANCH   1  22
ATOM     20  C   UNL     1      -0.894  12.610  22.543  0.00  0.00    +0.000 C 
ATOM     21  O   UNL     1       0.014  13.401  22.297  0.00  0.00    +0.000 OA
ATOM     22  N   UNL     1      -1.136  11.444  21.827  0.00  0.00    +0.000 N 
ATOM     23  H   UNL     1      -2.001  10.954  21.995  0.00  0.00    +0.000 HD
BRANCH  20  28
ATOM     24  C   UNL     1      -4.071  12.974  22.528  0.00  0.00    +0.000 C 
ATOM     25  C   UNL     1      -4.153  14.482  22.787  0.00  0.00    +0.000 C 
ATOM     26  C   UNL     1      -2.771  15.104  22.950  0.00  0.00    +0.000 C 
ATOM     27  C   UNL     1      -1.942  14.374  24.011  0.00  0.00    +0.000 C 
ATOM     28  C   UNL     1      -1.829  12.859  23.737  0.00  0.00    +0.000 C 
ATOM     29  C   UNL     1      -3.234  12.259  23.596  0.00  0.00    +0.000 C 
BRANCH  24  30
ATOM     30  N   UNL     1      -5.415  12.393  22.511  0.00  0.00    +0.000 NA
ATOM     31  H   UNL     1      -5.767  12.384  21.553  0.00  0.00    +0.000 HD
ATOM     32  H   UNL     1      -6.057  12.995  23.028  0.00  0.00    +0.000 HD
ENDBRANCH  24  30
ENDBRANCH  20  28
ENDBRANCH   1  22
TORSDOF 4
ENDMDL
MODEL 5
REMARK VINA RESULT:      -7.7      4.843      9.138
REMARK  Name = 
REMARK  4 active torsions:
REMARK  status: ('A' for Active; 'I' for Inactive)
REMARK    1  A    between atoms: N_1  and  C_2
REMARK    2  A    between atoms: C_6  and  C_7
REMARK    3  A    between atoms: N_9  and  C_10
REMARK    4  A    between atoms: N_17  and  C_18
REMARK                            x       y       z     vdW  Elec       q    Type
REMARK                         _______ _______ _______ _____ _____    ______ ____
ROOT
ATOM      1  C   UNL     1      -2.826  13.504  20.575  0.00  0.00    +0.000 A 
ATOM      2  C   UNL     1      -2.133  14.686  20.868  0.00  0.00    +0.000 A 
ATOM      3  C   UNL     1      -0.752  14.710  21.066  0.00  0.00    +0.000 A 
ATOM      4  C   UNL     1      -0.086  13.496  20.955  0.00  0.00    +0.000 A 
ATOM      5  N   UNL     1       1.243  13.202  21.031  0.00  0.00    +0.000 N 
ATOM      6  N   UNL     1       1.528  11.915  20.827  0.00  0.00    +0.000 NA
ATOM      7  C   UNL     1       0.343  11.335  20.613  0.00  0.00    +0.000 A 
ATOM      8  N   UNL     1       0.167  10.020  20.321  0.00  0.00    +0.000 N 
ATOM      9  C   UNL     1      -0.725  12.285  20.708  0.00  0.00    +0.000 A 
ATOM     10  C   UNL     1      -2.133  12.282  20.551  0.00  0.00    +0.000 A 
ATOM     11  H   UNL     1       2.011  13.843  21.192  0.00  0.00    +0.000 HD
ATOM     12  H   UNL     1      -0.744   9.599  20.447  0.00  0.00    +0.000 HD
ENDROOT
BRANCH   8  13
ATOM     13  C   UNL     1       1.113   9.154  19.728  0.00  0.00    +0.000 A 
ATOM     14  C   UNL     1       1.491   9.340  18.392  0.00  0.00    +0.000 A 
ATOM     15  C   UNL     1       2.334   8.423  17.752  0.00  0.00    +0.000 A 
ATOM     16  C   UNL     1       2.809   7.311  18.450  0.00  0.00    +0.000 A 
ATOM     17 BR   UNL     1       3.910   6.047  17.578  0.00  0.00    +0.000 Br
ATOM     18  C   UNL     1       2.461   7.118  19.780  0.00  0.00    +0.000 A 
ATOM     19  C   UNL     1       1.611   8.031  20.406  0.00  0.00    +0.000 A 
ENDBRANCH   8  13
BRANCH   1  22
ATOM     20  C   UNL     1      -5.198  12.954  21.080  0.00  0.00    +0.000 C 
ATOM     21  O   UNL     1      -4.981  12.404  22.157  0.00  0.00    +0.000 OA
ATOM     22  N   UNL     1      -4.213  13.498  20.264  0.00  0.00    +0.000 N 
ATOM     23  H   UNL     1      -4.504  14.076  19.490  0.00  0.00    +0.000 HD
BRANCH  20  28
ATOM     24  C   UNL     1      -7.006  10.595  19.900  0.00  0.00    +0.000 C 
ATOM     25  C   UNL     1      -6.947  10.953  18.411  0.00  0.00    +0.000 C 
ATOM     26  C   UNL     1      -6.122  12.211  18.164  0.00  0.00    +0.000 C 
ATOM     27  C   UNL     1      -6.601  13.382  19.028  0.00  0.00    +0.000 C 
ATOM     28  C   UNL     1      -6.631  13.037  20.532  0.00  0.00    +0.000 C 
ATOM     29  C   UNL     1      -7.483  11.779  20.750  0.00  0.00    +0.000 C 
BRANCH  24  30
ATOM     30  N   UNL     1      -7.913   9.465  20.109  0.00  0.00    +0.000 NA
ATOM     31  H   UNL     1      -7.392   8.593  20.018  0.00  0.00    +0.000 HD
ATOM     32  H   UNL     1      -8.611   9.441  19.365  0.00  0.00    +0.000 HD
ENDBRANCH  24  30
ENDBRANCH  20  28
ENDBRANCH   1  22
TORSDOF 4
ENDMDL
MODEL 6
REMARK VINA RESULT:      -7.7      4.633      9.578
REMARK  Name = 
REMARK  4 active torsions:
REMARK  status: ('A' for Active; 'I' for Inactive)
REMARK    1  A    between atoms: N_1  and  C_2
REMARK    2  A    between atoms: C_6  and  C_7
REMARK    3  A    between atoms: N_9  and  C_10
REMARK    4  A    between atoms: N_17  and  C_18
REMARK                            x       y       z     vdW  Elec       q    Type
REMARK                         _______ _______ _______ _____ _____    ______ ____
ROOT
ATOM      1  C   UNL     1      -4.309  12.483  19.608  0.00  0.00    +0.000 A 
ATOM      2  C   UNL     1      -5.153  12.147  18.543  0.00  0.00    +0.000 A 
ATOM      3  C   UNL     1      -4.725  11.359  17.474  0.00  0.00    +0.000 A 
ATOM      4  C   UNL     1      -3.411  10.912  17.516  0.00  0.00    +0.000 A 
ATOM      5  N   UNL     1      -2.724  10.092  16.672  0.00  0.00    +0.000 N 
ATOM      6  N   UNL     1      -1.472   9.840  17.056  0.00  0.00    +0.000 NA
ATOM      7  C   UNL     1      -1.324  10.524  18.195  0.00  0.00    +0.000 A 
ATOM      8  N   UNL     1      -0.199  10.520  18.958  0.00  0.00    +0.000 N 
ATOM      9  C   UNL     1      -2.514  11.248  18.525  0.00  0.00    +0.000 A 
ATOM     10  C   UNL     1      -2.962  12.083  19.578  0.00  0.00    +0.000 A 
ATOM     11  H   UNL     1      -3.064   9.647  15.827  0.00  0.00    +0.000 HD
ATOM     12  H   UNL     1      -0.054  11.257  19.635  0.00  0.00    +0.000 HD
ENDROOT
BRANCH   8  13
ATOM     13  C   UNL     1       0.784   9.507  19.007  0.00  0.00    +0.000 A 
ATOM     14  C   UNL     1       1.494   9.165  17.848  0.00  0.00    +0.000 A 
ATOM     15  C   UNL     1       2.385   8.084  17.848  0.00  0.00    +0.000 A 
ATOM     16  C   UNL     1       2.575   7.339  19.014  0.00  0.00    +0.000 A 
ATOM     17 BR   UNL     1       3.743   5.854  19.006  0.00  0.00    +0.000 Br
ATOM     18  C   UNL     1       1.895   7.673  20.177  0.00  0.00    +0.000 A 
ATOM     19  C   UNL     1       1.000   8.744  20.165  0.00  0.00    +0.000 A 
ENDBRANCH   8  13
BRANCH   1  22
ATOM     20  C   UNL     1      -5.720  12.704  21.644  0.00  0.00    +0.000 C 
ATOM     21  O   UNL     1      -6.269  11.609  21.546  0.00  0.00    +0.000 OA
ATOM     22  N   UNL     1      -4.776  13.192  20.749  0.00  0.00    +0.000 N 
ATOM     23  H   UNL     1      -4.260  14.020  21.006  0.00  0.00    +0.000 HD
BRANCH  20  28
ATOM     24  C   UNL     1      -3.796  14.598  23.356  0.00  0.00    +0.000 C 
ATOM     25  C   UNL     1      -3.777  13.814  24.673  0.00  0.00    +0.000 C 
ATOM     26  C   UNL     1      -4.648  12.565  24.600  0.00  0.00    +0.000 C 
ATOM     27  C   UNL     1      -6.070  12.892  24.135  0.00  0.00    +0.000 C 
ATOM     28  C   UNL     1      -6.096  13.653  22.793  0.00  0.00    +0.000 C 
ATOM     29  C   UNL     1      -5.226  14.913  22.903  0.00  0.00    +0.000 C 
BRANCH  24  30
ATOM     30  N   UNL     1      -3.059  15.854  23.509  0.00  0.00    +0.000 NA
ATOM     31  H   UNL     1      -3.554  16.598  23.017  0.00  0.00    +0.000 HD
ATOM     32  H   UNL     1      -2.153  15.781  23.044  0.00  0.00    +0.000 HD
ENDBRANCH  24  30
ENDBRANCH  20  28
ENDBRANCH   1  22
TORSDOF 4
ENDMDL
MODEL 7
REMARK VINA RESULT:      -7.6      4.116      9.611
REMARK  Name = 
REMARK  4 active torsions:
REMARK  status: ('A' for Active; 'I' for Inactive)
REMARK    1  A    between atoms: N_1  and  C_2
REMARK    2  A    between atoms: C_6  and  C_7
REMARK    3  A    between atoms: N_9  and  C_10
REMARK    4  A    between atoms: N_17  and  C_18
REMARK                            x       y       z     vdW  Elec       q    Type
REMARK                         _______ _______ _______ _____ _____    ______ ____
ROOT
ATOM      1  C   UNL     1      -1.264  11.961  21.177  0.00  0.00    +0.000 A 
ATOM      2  C   UNL     1      -1.697  12.528  19.972  0.00  0.00    +0.000 A 
ATOM      3  C   UNL     1      -1.251  12.071  18.732  0.00  0.00    +0.000 A 
ATOM      4  C   UNL     1      -0.352  11.012  18.744  0.00  0.00    +0.000 A 
ATOM      5  N   UNL     1       0.211  10.312  17.719  0.00  0.00    +0.000 N 
ATOM      6  N   UNL     1       1.005   9.316  18.111  0.00  0.00    +0.000 NA
ATOM      7  C   UNL     1       0.972   9.362  19.447  0.00  0.00    +0.000 A 
ATOM      8  N   UNL     1       1.616   8.490  20.266  0.00  0.00    +0.000 N 
ATOM      9  C   UNL     1       0.146  10.436  19.908  0.00  0.00    +0.000 A 
ATOM     10  C   UNL     1      -0.292  10.946  21.156  0.00  0.00    +0.000 A 
ATOM     11  H   UNL     1       0.069  10.449  16.724  0.00  0.00    +0.000 HD
ATOM     12  H   UNL     1       1.776   8.742  21.233  0.00  0.00    +0.000 HD
ENDROOT
BRANCH   8  13
ATOM     13  C   UNL     1       2.009   7.170  19.953  0.00  0.00    +0.000 A 
ATOM     14  C   UNL     1       1.578   6.104  20.753  0.00  0.00    +0.000 A 
ATOM     15  C   UNL     1       2.053   4.805  20.530  0.00  0.00    +0.000 A 
ATOM     16  C   UNL     1       2.963   4.565  19.499  0.00  0.00    +0.000 A 
ATOM     17 BR   UNL     1       3.640   2.822  19.223  0.00  0.00    +0.000 Br
ATOM     18  C   UNL     1       3.388   5.604  18.683  0.00  0.00    +0.000 A 
ATOM     19  C   UNL     1       2.919   6.897  18.920  0.00  0.00    +0.000 A 
ENDBRANCH   8  13
BRANCH   1  22
ATOM     20  C   UNL     1      -3.159  12.438  22.715  0.00  0.00    +0.000 C 
ATOM     21  O   UNL     1      -4.052  12.196  21.905  0.00  0.00    +0.000 OA
ATOM     22  N   UNL     1      -1.801  12.353  22.434  0.00  0.00    +0.000 N 
ATOM     23  H   UNL     1      -1.152  12.403  23.205  0.00  0.00    +0.000 HD
BRANCH  20  28
ATOM     24  C   UNL     1      -6.015  13.310  23.857  0.00  0.00    +0.000 C 
ATOM     25  C   UNL     1      -5.800  14.825  23.944  0.00  0.00    +0.000 C 
ATOM     26  C   UNL     1      -4.398  15.223  23.497  0.00  0.00    +0.000 C 
ATOM     27  C   UNL     1      -3.319  14.435  24.246  0.00  0.00    +0.000 C 
ATOM     28  C   UNL     1      -3.513  12.908  24.134  0.00  0.00    +0.000 C 
ATOM     29  C   UNL     1      -4.925  12.537  24.607  0.00  0.00    +0.000 C 
BRANCH  24  30
ATOM     30  N   UNL     1      -7.320  12.955  24.418  0.00  0.00    +0.000 NA
ATOM     31  H   UNL     1      -8.052  13.456  23.914  0.00  0.00    +0.000 HD
ATOM     32  H   UNL     1      -7.382  13.285  25.382  0.00  0.00    +0.000 HD
ENDBRANCH  24  30
ENDBRANCH  20  28
ENDBRANCH   1  22
TORSDOF 4
ENDMDL
MODEL 8
REMARK VINA RESULT:      -7.5      1.047      1.669
REMARK  Name = 
REMARK  4 active torsions:
REMARK  status: ('A' for Active; 'I' for Inactive)
REMARK    1  A    between atoms: N_1  and  C_2
REMARK    2  A    between atoms: C_6  and  C_7
REMARK    3  A    between atoms: N_9  and  C_10
REMARK    4  A    between atoms: N_17  and  C_18
REMARK                            x       y       z     vdW  Elec       q    Type
REMARK                         _______ _______ _______ _____ _____    ______ ____
ROOT
ATOM      1  C   UNL     1       1.664   8.455  19.505  0.00  0.00    +0.000 A 
ATOM      2  C   UNL     1       1.980   8.995  18.252  0.00  0.00    +0.000 A 
ATOM      3  C   UNL     1       1.417  10.185  17.791  0.00  0.00    +0.000 A 
ATOM      4  C   UNL     1       0.523  10.822  18.641  0.00  0.00    +0.000 A 
ATOM      5  N   UNL     1      -0.136  12.008  18.512  0.00  0.00    +0.000 N 
ATOM      6  N   UNL     1      -0.890  12.331  19.563  0.00  0.00    +0.000 NA
ATOM      7  C   UNL     1      -0.728  11.316  20.419  0.00  0.00    +0.000 A 
ATOM      8  N   UNL     1      -1.292  11.250  21.654  0.00  0.00    +0.000 N 
ATOM      9  C   UNL     1       0.139  10.313  19.878  0.00  0.00    +0.000 A 
ATOM     10  C   UNL     1       0.694   9.082  20.305  0.00  0.00    +0.000 A 
ATOM     11  H   UNL     1      -0.091  12.661  17.737  0.00  0.00    +0.000 HD
ATOM     12  H   UNL     1      -1.358  10.357  22.123  0.00  0.00    +0.000 HD
ENDROOT
BRANCH   8  13
ATOM     13  C   UNL     1      -1.714  12.339  22.449  0.00  0.00    +0.000 A 
ATOM     14  C   UNL     1      -0.798  13.334  22.816  0.00  0.00    +0.000 A 
ATOM     15  C   UNL     1      -1.167  14.355  23.700  0.00  0.00    +0.000 A 
ATOM     16  C   UNL     1      -2.462  14.389  24.221  0.00  0.00    +0.000 A 
ATOM     17 BR   UNL     1      -2.950  15.740  25.449  0.00  0.00    +0.000 Br
ATOM     18  C   UNL     1      -3.390  13.424  23.856  0.00  0.00    +0.000 A 
ATOM     19  C   UNL     1      -3.010  12.403  22.983  0.00  0.00    +0.000 A 
ENDBRANCH   8  13
BRANCH   1  22
ATOM     20  C   UNL     1       2.542   6.138  19.296  0.00  0.00    +0.000 C 
ATOM     21  O   UNL     1       2.187   5.965  18.132  0.00  0.00    +0.000 OA
ATOM     22  N   UNL     1       2.320   7.303  20.019  0.00  0.00    +0.000 N 
ATOM     23  H   UNL     1       2.797   7.413  20.902  0.00  0.00    +0.000 HD
BRANCH  20  28
ATOM     24  C   UNL     1       4.909   4.240  18.286  0.00  0.00    +0.000 C 
ATOM     25  C   UNL     1       4.122   2.940  18.087  0.00  0.00    +0.000 C 
ATOM     26  C   UNL     1       2.652   3.106  18.456  0.00  0.00    +0.000 C 
ATOM     27  C   UNL     1       2.484   3.682  19.866  0.00  0.00    +0.000 C 
ATOM     28  C   UNL     1       3.249   5.008  20.061  0.00  0.00    +0.000 C 
ATOM     29  C   UNL     1       4.726   4.804  19.700  0.00  0.00    +0.000 C 
BRANCH  24  30
ATOM     30  N   UNL     1       6.335   4.005  18.050  0.00  0.00    +0.000 NA
ATOM     31  H   UNL     1       6.474   3.717  17.081  0.00  0.00    +0.000 HD
ATOM     32  H   UNL     1       6.652   3.215  18.613  0.00  0.00    +0.000 HD
ENDBRANCH  24  30
ENDBRANCH  20  28
ENDBRANCH   1  22
TORSDOF 4
ENDMDL
MODEL 9
REMARK VINA RESULT:      -7.4      4.260      9.613
REMARK  Name = 
REMARK  4 active torsions:
REMARK  status: ('A' for Active; 'I' for Inactive)
REMARK    1  A    between atoms: N_1  and  C_2
REMARK    2  A    between atoms: C_6  and  C_7
REMARK    3  A    between atoms: N_9  and  C_10
REMARK    4  A    between atoms: N_17  and  C_18
REMARK                            x       y       z     vdW  Elec       q    Type
REMARK                         _______ _______ _______ _____ _____    ______ ____
ROOT
ATOM      1  C   UNL     1      -2.253  12.024  21.028  0.00  0.00    +0.000 A 
ATOM      2  C   UNL     1      -2.832  12.450  19.826  0.00  0.00    +0.000 A 
ATOM      3  C   UNL     1      -2.357  12.034  18.582  0.00  0.00    +0.000 A 
ATOM      4  C   UNL     1      -1.274  11.164  18.588  0.00  0.00    +0.000 A 
ATOM      5  N   UNL     1      -0.629  10.541  17.562  0.00  0.00    +0.000 N 
ATOM      6  N   UNL     1       0.354   9.728  17.949  0.00  0.00    +0.000 NA
ATOM      7  C   UNL     1       0.364   9.821  19.283  0.00  0.00    +0.000 A 
ATOM      8  N   UNL     1       1.193   9.120  20.100  0.00  0.00    +0.000 N 
ATOM      9  C   UNL     1      -0.631  10.740  19.747  0.00  0.00    +0.000 A 
ATOM     10  C   UNL     1      -1.108  11.209  20.996  0.00  0.00    +0.000 A 
ATOM     11  H   UNL     1      -0.832  10.608  16.571  0.00  0.00    +0.000 HD
ATOM     12  H   UNL     1       1.341   9.437  21.050  0.00  0.00    +0.000 HD
ENDROOT
BRANCH   8  13
ATOM     13  C   UNL     1       1.816   7.885  19.813  0.00  0.00    +0.000 A 
ATOM     14  C   UNL     1       2.542   7.727  18.625  0.00  0.00    +0.000 A 
ATOM     15  C   UNL     1       3.064   6.478  18.266  0.00  0.00    +0.000 A 
ATOM     16  C   UNL     1       2.866   5.376  19.100  0.00  0.00    +0.000 A 
ATOM     17 BR   UNL     1       3.530   3.680  18.598  0.00  0.00    +0.000 Br
ATOM     18  C   UNL     1       2.166   5.516  20.291  0.00  0.00    +0.000 A 
ATOM     19  C   UNL     1       1.638   6.761  20.634  0.00  0.00    +0.000 A 
ENDBRANCH   8  13
BRANCH   1  22
ATOM     20  C   UNL     1      -2.730  13.620  22.875  0.00  0.00    +0.000 C 
ATOM     21  O   UNL     1      -2.166  14.585  22.365  0.00  0.00    +0.000 OA
ATOM     22  N   UNL     1      -2.805  12.359  22.295  0.00  0.00    +0.000 N 
ATOM     23  H   UNL     1      -3.432  11.683  22.706  0.00  0.00    +0.000 HD
BRANCH  20  28
ATOM     24  C   UNL     1      -5.743  12.969  23.724  0.00  0.00    +0.000 C 
ATOM     25  C   UNL     1      -6.271  14.398  23.893  0.00  0.00    +0.000 C 
ATOM     26  C   UNL     1      -5.189  15.437  23.621  0.00  0.00    +0.000 C 
ATOM     27  C   UNL     1      -3.930  15.176  24.455  0.00  0.00    +0.000 C 
ATOM     28  C   UNL     1      -3.376  13.749  24.263  0.00  0.00    +0.000 C 
ATOM     29  C   UNL     1      -4.481  12.727  24.561  0.00  0.00    +0.000 C 
BRANCH  24  30
ATOM     30  N   UNL     1      -6.769  12.004  24.122  0.00  0.00    +0.000 NA
ATOM     31  H   UNL     1      -6.549  11.092  23.721  0.00  0.00    +0.000 HD
ATOM     32  H   UNL     1      -7.667  12.268  23.714  0.00  0.00    +0.000 HD
ENDBRANCH  24  30
ENDBRANCH  20  28
ENDBRANCH   1  22
TORSDOF 4
ENDMDL
