MODEL 1
REMARK VINA RESULT:      -7.3      0.000      0.000
REMARK  Name = 
REMARK  3 active torsions:
REMARK  status: ('A' for Active; 'I' for Inactive)
REMARK    1  A    between atoms: N_7  and  C_8
REMARK    2  A    between atoms: C_8  and  C_9
REMARK    3  A    between atoms: C_9  and  N_10
REMARK                            x       y       z     vdW  Elec       q    Type
REMARK                         _______ _______ _______ _____ _____    ______ ____
ROOT
ATOM      1  C   UNL     1       5.238   5.512  18.187  0.00  0.00    +0.000 C 
ENDROOT
BRANCH   1   8
ATOM      2  O   UNL     1       1.336   2.601  21.298  0.00  0.00    +0.000 OA
ATOM      3  N   UNL     1       1.559   3.655  20.684  0.00  0.00    +0.000 N 
ATOM      4  O   UNL     1       0.767   4.605  20.587  0.00  0.00    +0.000 OA
ATOM      5  C   UNL     1       2.853   3.780  20.023  0.00  0.00    +0.000 A 
ATOM      6  N   UNL     1       3.799   2.781  20.031  0.00  0.00    +0.000 NA
ATOM      7  C   UNL     1       4.782   3.311  19.338  0.00  0.00    +0.000 A 
ATOM      8  N   UNL     1       4.436   4.563  18.931  0.00  0.00    +0.000 N 
ATOM      9  N   UNL     1       3.199   4.894  19.348  0.00  0.00    +0.000 NA
ENDBRANCH   1   8
BRANCH   1  10
ATOM     10  C   UNL     1       6.561   4.912  17.729  0.00  0.00    +0.000 C 
BRANCH  10  11
ATOM     11  N   UNL     1       6.580   4.665  16.301  0.00  0.00    +0.000 N 
ATOM     12  C   UNL     1       5.796   3.807  15.593  0.00  0.00    +0.000 A 
ATOM     13  N   UNL     1       6.121   3.853  14.321  0.00  0.00    +0.000 NA
ATOM     14  C   UNL     1       7.143   4.773  14.305  0.00  0.00    +0.000 A 
ATOM     15  N   UNL     1       7.834   5.170  13.084  0.00  0.00    +0.000 N 
ATOM     16  O   UNL     1       7.468   4.633  12.027  0.00  0.00    +0.000 OA
ATOM     17  O   UNL     1       8.735   6.019  13.177  0.00  0.00    +0.000 OA
ATOM     18  N   UNL     1       7.459   5.303  15.504  0.00  0.00    +0.000 NA
ENDBRANCH  10  11
ENDBRANCH   1  10
TORSDOF 3
ENDMDL
MODEL 2
REMARK VINA RESULT:      -7.1      1.455      2.211
REMARK  Name = 
REMARK  3 active torsions:
REMARK  status: ('A' for Active; 'I' for Inactive)
REMARK    1  A    between atoms: N_7  and  C_8
REMARK    2  A    between atoms: C_8  and  C_9
REMARK    3  A    between atoms: C_9  and  N_10
REMARK                            x       y       z     vdW  Elec       q    Type
REMARK                         _______ _______ _______ _____ _____    ______ ____
ROOT
ATOM      1  C   UNL     1       3.741   3.611  17.084  0.00  0.00    +0.000 C 
ENDROOT
BRANCH   1   8
ATOM      2  O   UNL     1       1.118   2.652  22.142  0.00  0.00    +0.000 OA
ATOM      3  N   UNL     1       2.194   2.577  21.528  0.00  0.00    +0.000 N 
ATOM      4  O   UNL     1       3.253   2.133  21.998  0.00  0.00    +0.000 OA
ATOM      5  C   UNL     1       2.209   3.053  20.150  0.00  0.00    +0.000 A 
ATOM      6  N   UNL     1       1.107   3.598  19.532  0.00  0.00    +0.000 NA
ATOM      7  C   UNL     1       1.561   3.877  18.330  0.00  0.00    +0.000 A 
ATOM      8  N   UNL     1       2.872   3.522  18.238  0.00  0.00    +0.000 N 
ATOM      9  N   UNL     1       3.323   2.995  19.393  0.00  0.00    +0.000 NA
ENDBRANCH   1   8
BRANCH   1  10
ATOM     10  C   UNL     1       5.152   4.044  17.458  0.00  0.00    +0.000 C 
BRANCH  10  11
ATOM     11  N   UNL     1       5.936   4.409  16.295  0.00  0.00    +0.000 N 
ATOM     12  C   UNL     1       6.941   5.323  16.222  0.00  0.00    +0.000 A 
ATOM     13  N   UNL     1       7.401   5.383  14.992  0.00  0.00    +0.000 NA
ATOM     14  C   UNL     1       6.614   4.467  14.333  0.00  0.00    +0.000 A 
ATOM     15  N   UNL     1       6.761   4.173  12.913  0.00  0.00    +0.000 N 
ATOM     16  O   UNL     1       7.637   4.796  12.294  0.00  0.00    +0.000 OA
ATOM     17  O   UNL     1       6.009   3.318  12.417  0.00  0.00    +0.000 OA
ATOM     18  N   UNL     1       5.698   3.838  15.098  0.00  0.00    +0.000 NA
ENDBRANCH  10  11
ENDBRANCH   1  10
TORSDOF 3
ENDMDL
MODEL 3
REMARK VINA RESULT:      -7.1      1.434      7.602
REMARK  Name = 
REMARK  3 active torsions:
REMARK  status: ('A' for Active; 'I' for Inactive)
REMARK    1  A    between atoms: N_7  and  C_8
REMARK    2  A    between atoms: C_8  and  C_9
REMARK    3  A    between atoms: C_9  and  N_10
REMARK                            x       y       z     vdW  Elec       q    Type
REMARK                         _______ _______ _______ _____ _____    ______ ____
ROOT
ATOM      1  C   UNL     1       5.099   4.065  17.484  0.00  0.00    +0.000 C 
ENDROOT
BRANCH   1   8
ATOM      2  O   UNL     1       7.786   4.964  12.449  0.00  0.00    +0.000 OA
ATOM      3  N   UNL     1       6.868   4.347  13.011  0.00  0.00    +0.000 N 
ATOM      4  O   UNL     1       6.110   3.536  12.457  0.00  0.00    +0.000 OA
ATOM      5  C   UNL     1       6.665   4.604  14.432  0.00  0.00    +0.000 A 
ATOM      6  N   UNL     1       7.419   5.507  15.146  0.00  0.00    +0.000 NA
ATOM      7  C   UNL     1       6.909   5.415  16.354  0.00  0.00    +0.000 A 
ATOM      8  N   UNL     1       5.896   4.506  16.358  0.00  0.00    +0.000 N 
ATOM      9  N   UNL     1       5.708   3.970  15.137  0.00  0.00    +0.000 NA
ENDBRANCH   1   8
BRANCH   1  10
ATOM     10  C   UNL     1       3.670   3.729  17.079  0.00  0.00    +0.000 C 
BRANCH  10  11
ATOM     11  N   UNL     1       2.805   3.553  18.229  0.00  0.00    +0.000 N 
ATOM     12  C   UNL     1       1.484   3.861  18.332  0.00  0.00    +0.000 A 
ATOM     13  N   UNL     1       1.050   3.568  19.538  0.00  0.00    +0.000 NA
ATOM     14  C   UNL     1       2.180   3.079  20.151  0.00  0.00    +0.000 A 
ATOM     15  N   UNL     1       2.191   2.607  21.531  0.00  0.00    +0.000 N 
ATOM     16  O   UNL     1       1.122   2.669  22.158  0.00  0.00    +0.000 OA
ATOM     17  O   UNL     1       3.262   2.172  21.986  0.00  0.00    +0.000 OA
ATOM     18  N   UNL     1       3.286   3.047  19.381  0.00  0.00    +0.000 NA
ENDBRANCH  10  11
ENDBRANCH   1  10
TORSDOF 3
ENDMDL
MODEL 4
REMARK VINA RESULT:      -6.9      0.918      1.295
REMARK  Name = 
REMARK  3 active torsions:
REMARK  status: ('A' for Active; 'I' for Inactive)
REMARK    1  A    between atoms: N_7  and  C_8
REMARK    2  A    between atoms: C_8  and  C_9
REMARK    3  A    between atoms: C_9  and  N_10
REMARK                            x       y       z     vdW  Elec       q    Type
REMARK                         _______ _______ _______ _____ _____    ______ ____
ROOT
ATOM      1  C   UNL     1       5.764   4.116  18.276  0.00  0.00    +0.000 C 
ENDROOT
BRANCH   1   8
ATOM      2  O   UNL     1       0.805   2.891  20.977  0.00  0.00    +0.000 OA
ATOM      3  N   UNL     1       2.042   2.893  21.081  0.00  0.00    +0.000 N 
ATOM      4  O   UNL     1       2.674   2.503  22.075  0.00  0.00    +0.000 OA
ATOM      5  C   UNL     1       2.805   3.399  19.946  0.00  0.00    +0.000 A 
ATOM      6  N   UNL     1       2.214   3.892  18.805  0.00  0.00    +0.000 NA
ATOM      7  C   UNL     1       3.249   4.224  18.066  0.00  0.00    +0.000 A 
ATOM      8  N   UNL     1       4.402   3.950  18.738  0.00  0.00    +0.000 N 
ATOM      9  N   UNL     1       4.152   3.425  19.953  0.00  0.00    +0.000 NA
ENDBRANCH   1   8
BRANCH   1  10
ATOM     10  C   UNL     1       5.933   5.365  17.422  0.00  0.00    +0.000 C 
BRANCH  10  11
ATOM     11  N   UNL     1       6.138   5.045  16.024  0.00  0.00    +0.000 N 
ATOM     12  C   UNL     1       5.373   4.246  15.232  0.00  0.00    +0.000 A 
ATOM     13  N   UNL     1       5.889   4.190  14.024  0.00  0.00    +0.000 NA
ATOM     14  C   UNL     1       7.004   4.987  14.138  0.00  0.00    +0.000 A 
ATOM     15  N   UNL     1       7.912   5.241  13.026  0.00  0.00    +0.000 N 
ATOM     16  O   UNL     1       7.648   4.696  11.944  0.00  0.00    +0.000 OA
ATOM     17  O   UNL     1       8.884   5.988  13.230  0.00  0.00    +0.000 OA
ATOM     18  N   UNL     1       7.196   5.539  15.353  0.00  0.00    +0.000 NA
ENDBRANCH  10  11
ENDBRANCH   1  10
TORSDOF 3
ENDMDL
MODEL 5
REMARK VINA RESULT:      -6.9      1.048      7.259
REMARK  Name = 
REMARK  3 active torsions:
REMARK  status: ('A' for Active; 'I' for Inactive)
REMARK    1  A    between atoms: N_7  and  C_8
REMARK    2  A    between atoms: C_8  and  C_9
REMARK    3  A    between atoms: C_9  and  N_10
REMARK                            x       y       z     vdW  Elec       q    Type
REMARK                         _______ _______ _______ _____ _____    ______ ____
ROOT
ATOM      1  C   UNL     1       6.178   5.843  17.577  0.00  0.00    +0.000 C 
ENDROOT
BRANCH   1   8
ATOM      2  O   UNL     1       7.408   4.436  12.110  0.00  0.00    +0.000 OA
ATOM      3  N   UNL     1       7.757   5.124  13.082  0.00  0.00    +0.000 N 
ATOM      4  O   UNL     1       8.721   5.904  13.093  0.00  0.00    +0.000 OA
ATOM      5  C   UNL     1       6.971   4.997  14.304  0.00  0.00    +0.000 A 
ATOM      6  N   UNL     1       5.902   4.139  14.423  0.00  0.00    +0.000 NA
ATOM      7  C   UNL     1       5.501   4.350  15.657  0.00  0.00    +0.000 A 
ATOM      8  N   UNL     1       6.296   5.284  16.247  0.00  0.00    +0.000 N 
ATOM      9  N   UNL     1       7.257   5.716  15.407  0.00  0.00    +0.000 NA
ENDBRANCH   1   8
BRANCH   1  10
ATOM     10  C   UNL     1       6.003   4.766  18.640  0.00  0.00    +0.000 C 
BRANCH  10  11
ATOM     11  N   UNL     1       4.625   4.643  19.068  0.00  0.00    +0.000 N 
ATOM     12  C   UNL     1       3.832   5.606  19.611  0.00  0.00    +0.000 A 
ATOM     13  N   UNL     1       2.646   5.108  19.882  0.00  0.00    +0.000 NA
ATOM     14  C   UNL     1       2.774   3.798  19.481  0.00  0.00    +0.000 A 
ATOM     15  N   UNL     1       1.687   2.831  19.581  0.00  0.00    +0.000 N 
ATOM     16  O   UNL     1       0.615   3.231  20.058  0.00  0.00    +0.000 OA
ATOM     17  O   UNL     1       1.902   1.675  19.179  0.00  0.00    +0.000 OA
ATOM     18  N   UNL     1       3.976   3.467  18.969  0.00  0.00    +0.000 NA
ENDBRANCH  10  11
ENDBRANCH   1  10
TORSDOF 3
ENDMDL
MODEL 6
REMARK VINA RESULT:      -6.8      0.935      7.517
REMARK  Name = 
REMARK  3 active torsions:
REMARK  status: ('A' for Active; 'I' for Inactive)
REMARK    1  A    between atoms: N_7  and  C_8
REMARK    2  A    between atoms: C_8  and  C_9
REMARK    3  A    between atoms: C_9  and  N_10
REMARK                            x       y       z     vdW  Elec       q    Type
REMARK                         _______ _______ _______ _____ _____    ______ ____
ROOT
ATOM      1  C   UNL     1       5.576   5.787  17.318  0.00  0.00    +0.000 C 
ENDROOT
BRANCH   1   8
ATOM      2  O   UNL     1       7.560   4.484  12.051  0.00  0.00    +0.000 OA
ATOM      3  N   UNL     1       7.771   5.149  13.076  0.00  0.00    +0.000 N 
ATOM      4  O   UNL     1       8.727   5.924  13.240  0.00  0.00    +0.000 OA
ATOM      5  C   UNL     1       6.820   5.003  14.172  0.00  0.00    +0.000 A 
ATOM      6  N   UNL     1       5.742   4.149  14.121  0.00  0.00    +0.000 NA
ATOM      7  C   UNL     1       5.171   4.337  15.290  0.00  0.00    +0.000 A 
ATOM      8  N   UNL     1       5.879   5.255  16.006  0.00  0.00    +0.000 N 
ATOM      9  N   UNL     1       6.950   5.697  15.319  0.00  0.00    +0.000 NA
ENDBRANCH   1   8
BRANCH   1  10
ATOM     10  C   UNL     1       5.643   4.719  18.401  0.00  0.00    +0.000 C 
BRANCH  10  11
ATOM     11  N   UNL     1       4.335   4.404  18.938  0.00  0.00    +0.000 N 
ATOM     12  C   UNL     1       3.124   4.819  18.476  0.00  0.00    +0.000 A 
ATOM     13  N   UNL     1       2.167   4.335  19.236  0.00  0.00    +0.000 NA
ATOM     14  C   UNL     1       2.867   3.620  20.180  0.00  0.00    +0.000 A 
ATOM     15  N   UNL     1       2.217   2.882  21.256  0.00  0.00    +0.000 N 
ATOM     16  O   UNL     1       0.979   2.924  21.304  0.00  0.00    +0.000 OA
ATOM     17  O   UNL     1       2.941   2.257  22.049  0.00  0.00    +0.000 OA
ATOM     18  N   UNL     1       4.207   3.631  20.033  0.00  0.00    +0.000 NA
ENDBRANCH  10  11
ENDBRANCH   1  10
TORSDOF 3
ENDMDL
MODEL 7
REMARK VINA RESULT:      -6.7      3.003      7.019
REMARK  Name = 
REMARK  3 active torsions:
REMARK  status: ('A' for Active; 'I' for Inactive)
REMARK    1  A    between atoms: N_7  and  C_8
REMARK    2  A    between atoms: C_8  and  C_9
REMARK    3  A    between atoms: C_9  and  N_10
REMARK                            x       y       z     vdW  Elec       q    Type
REMARK                         _______ _______ _______ _____ _____    ______ ____
ROOT
ATOM      1  C   UNL     1       4.495   3.225  17.105  0.00  0.00    +0.000 C 
ENDROOT
BRANCH   1   8
ATOM      2  O   UNL     1       8.317   7.239  18.737  0.00  0.00    +0.000 OA
ATOM      3  N   UNL     1       7.881   6.101  18.970  0.00  0.00    +0.000 N 
ATOM      4  O   UNL     1       8.273   5.362  19.886  0.00  0.00    +0.000 OA
ATOM      5  C   UNL     1       6.829   5.598  18.094  0.00  0.00    +0.000 A 
ATOM      6  N   UNL     1       6.338   6.311  17.025  0.00  0.00    +0.000 NA
ATOM      7  C   UNL     1       5.428   5.501  16.533  0.00  0.00    +0.000 A 
ATOM      8  N   UNL     1       5.383   4.356  17.270  0.00  0.00    +0.000 N 
ATOM      9  N   UNL     1       6.276   4.383  18.278  0.00  0.00    +0.000 NA
ENDBRANCH   1   8
BRANCH   1  10
ATOM     10  C   UNL     1       3.034   3.647  17.027  0.00  0.00    +0.000 C 
BRANCH  10  11
ATOM     11  N   UNL     1       2.332   3.411  18.271  0.00  0.00    +0.000 N 
ATOM     12  C   UNL     1       1.006   3.586  18.526  0.00  0.00    +0.000 A 
ATOM     13  N   UNL     1       0.748   3.278  19.777  0.00  0.00    +0.000 NA
ATOM     14  C   UNL     1       1.985   2.919  20.259  0.00  0.00    +0.000 A 
ATOM     15  N   UNL     1       2.204   2.483  21.633  0.00  0.00    +0.000 N 
ATOM     16  O   UNL     1       1.215   2.450  22.380  0.00  0.00    +0.000 OA
ATOM     17  O   UNL     1       3.359   2.168  21.964  0.00  0.00    +0.000 OA
ATOM     18  N   UNL     1       2.992   2.982  19.365  0.00  0.00    +0.000 NA
ENDBRANCH  10  11
ENDBRANCH   1  10
TORSDOF 3
ENDMDL
MODEL 8
REMARK VINA RESULT:      -6.7      0.600      7.634
REMARK  Name = 
REMARK  3 active torsions:
REMARK  status: ('A' for Active; 'I' for Inactive)
REMARK    1  A    between atoms: N_7  and  C_8
REMARK    2  A    between atoms: C_8  and  C_9
REMARK    3  A    between atoms: C_9  and  N_10
REMARK                            x       y       z     vdW  Elec       q    Type
REMARK                         _______ _______ _______ _____ _____    ______ ____
ROOT
ATOM      1  C   UNL     1       5.869   5.272  17.271  0.00  0.00    +0.000 C 
ENDROOT
BRANCH   1   8
ATOM      2  O   UNL     1       7.657   4.605  11.818  0.00  0.00    +0.000 OA
ATOM      3  N   UNL     1       7.878   5.184  12.893  0.00  0.00    +0.000 N 
ATOM      4  O   UNL     1       8.791   6.001  13.088  0.00  0.00    +0.000 OA
ATOM      5  C   UNL     1       6.995   4.872  14.012  0.00  0.00    +0.000 A 
ATOM      6  N   UNL     1       5.971   3.957  13.927  0.00  0.00    +0.000 NA
ATOM      7  C   UNL     1       5.451   3.996  15.133  0.00  0.00    +0.000 A 
ATOM      8  N   UNL     1       6.136   4.887  15.902  0.00  0.00    +0.000 N 
ATOM      9  N   UNL     1       7.141   5.462  15.214  0.00  0.00    +0.000 NA
ENDBRANCH   1   8
BRANCH   1  10
ATOM     10  C   UNL     1       4.378   5.301  17.580  0.00  0.00    +0.000 C 
BRANCH  10  11
ATOM     11  N   UNL     1       4.031   4.421  18.677  0.00  0.00    +0.000 N 
ATOM     12  C   UNL     1       4.816   3.480  19.270  0.00  0.00    +0.000 A 
ATOM     13  N   UNL     1       4.143   2.875  20.223  0.00  0.00    +0.000 NA
ATOM     14  C   UNL     1       2.916   3.493  20.163  0.00  0.00    +0.000 A 
ATOM     15  N   UNL     1       1.814   3.154  21.055  0.00  0.00    +0.000 N 
ATOM     16  O   UNL     1       2.017   2.259  21.890  0.00  0.00    +0.000 OA
ATOM     17  O   UNL     1       0.750   3.783  20.927  0.00  0.00    +0.000 OA
ATOM     18  N   UNL     1       2.802   4.457  19.227  0.00  0.00    +0.000 NA
ENDBRANCH  10  11
ENDBRANCH   1  10
TORSDOF 3
ENDMDL
MODEL 9
REMARK VINA RESULT:      -6.7      1.042      1.397
REMARK  Name = 
REMARK  3 active torsions:
REMARK  status: ('A' for Active; 'I' for Inactive)
REMARK    1  A    between atoms: N_7  and  C_8
REMARK    2  A    between atoms: C_8  and  C_9
REMARK    3  A    between atoms: C_9  and  N_10
REMARK                            x       y       z     vdW  Elec       q    Type
REMARK                         _______ _______ _______ _____ _____    ______ ____
ROOT
ATOM      1  C   UNL     1       4.694   5.927  17.685  0.00  0.00    +0.000 C 
ENDROOT
BRANCH   1   8
ATOM      2  O   UNL     1       1.063   2.731  20.844  0.00  0.00    +0.000 OA
ATOM      3  N   UNL     1       1.813   2.733  19.855  0.00  0.00    +0.000 N 
ATOM      4  O   UNL     1       1.989   1.771  19.092  0.00  0.00    +0.000 OA
ATOM      5  C   UNL     1       2.546   3.963  19.578  0.00  0.00    +0.000 A 
ATOM      6  N   UNL     1       2.460   5.083  20.373  0.00  0.00    +0.000 NA
ATOM      7  C   UNL     1       3.260   5.929  19.764  0.00  0.00    +0.000 A 
ATOM      8  N   UNL     1       3.802   5.340  18.662  0.00  0.00    +0.000 N 
ATOM      9  N   UNL     1       3.369   4.072  18.517  0.00  0.00    +0.000 NA
ENDBRANCH   1   8
BRANCH   1  10
ATOM     10  C   UNL     1       5.934   5.073  17.452  0.00  0.00    +0.000 C 
BRANCH  10  11
ATOM     11  N   UNL     1       6.150   4.800  16.046  0.00  0.00    +0.000 N 
ATOM     12  C   UNL     1       5.447   3.952  15.245  0.00  0.00    +0.000 A 
ATOM     13  N   UNL     1       5.952   3.965  14.031  0.00  0.00    +0.000 NA
ATOM     14  C   UNL     1       6.996   4.854  14.150  0.00  0.00    +0.000 A 
ATOM     15  N   UNL     1       7.866   5.207  13.035  0.00  0.00    +0.000 N 
ATOM     16  O   UNL     1       7.638   4.662  11.945  0.00  0.00    +0.000 OA
ATOM     17  O   UNL     1       8.772   6.031  13.245  0.00  0.00    +0.000 OA
ATOM     18  N   UNL     1       7.153   5.397  15.374  0.00  0.00    +0.000 NA
ENDBRANCH  10  11
ENDBRANCH   1  10
TORSDOF 3
ENDMDL
