MODEL 1
REMARK VINA RESULT:      -8.6      0.000      0.000
REMARK  Name = 
REMARK  4 active torsions:
REMARK  status: ('A' for Active; 'I' for Inactive)
REMARK    1  A    between atoms: C_5  and  C_6
REMARK    2  A    between atoms: C_9  and  O_10
REMARK    3  A    between atoms: C_13  and  C_14
REMARK    4  A    between atoms: C_17  and  O_18
REMARK                            x       y       z     vdW  Elec       q    Type
REMARK                         _______ _______ _______ _____ _____    ______ ____
ROOT
ATOM      1  O   UNL     1       1.227   3.004  19.630  0.00  0.00    +0.000 OA
ATOM      2  C   UNL     1       1.942   3.831  19.079  0.00  0.00    +0.000 C 
ATOM      3  O   UNL     1       1.828   5.186  19.238  0.00  0.00    +0.000 OA
ATOM      4  C   UNL     1       2.750   5.736  18.350  0.00  0.00    +0.000 C 
ATOM      5  C   UNL     1       2.811   7.050  18.097  0.00  0.00    +0.000 C 
ATOM      6  C   UNL     1       3.542   4.696  17.753  0.00  0.00    +0.000 C 
ATOM      7  C   UNL     1       3.054   3.531  18.169  0.00  0.00    +0.000 C 
ATOM      8 CL   UNL     1       3.554   1.952  17.822  0.00  0.00    +0.000 Cl
ENDROOT
BRANCH   6   9
ATOM      9  C   UNL     1       4.718   4.834  16.882  0.00  0.00    +0.000 A 
ATOM     10  C   UNL     1       5.852   5.528  17.323  0.00  0.00    +0.000 A 
ATOM     11  C   UNL     1       6.965   5.680  16.486  0.00  0.00    +0.000 A 
ATOM     12  C   UNL     1       6.951   5.130  15.206  0.00  0.00    +0.000 A 
ATOM     13  C   UNL     1       5.829   4.426  14.759  0.00  0.00    +0.000 A 
ATOM     14 CL   UNL     1       5.777   3.725  13.182  0.00  0.00    +0.000 Cl
ATOM     15  C   UNL     1       4.715   4.281  15.594  0.00  0.00    +0.000 A 
BRANCH  12  16
ATOM     16  O   UNL     1       8.038   5.279  14.389  0.00  0.00    +0.000 OA
ATOM     17  H   UNL     1       8.111   6.206  14.110  0.00  0.00    +0.000 HD
ENDBRANCH  12  16
ENDBRANCH   6   9
BRANCH   5  18
ATOM     18  C   UNL     1       1.997   8.053  18.792  0.00  0.00    +0.000 A 
ATOM     19  C   UNL     1       1.388   9.084  18.064  0.00  0.00    +0.000 A 
ATOM     20  C   UNL     1       0.596  10.038  18.708  0.00  0.00    +0.000 A 
ATOM     21  C   UNL     1       0.418   9.959  20.085  0.00  0.00    +0.000 A 
ATOM     22  C   UNL     1       1.008   8.938  20.821  0.00  0.00    +0.000 A 
ATOM     23  C   UNL     1       1.800   7.983  20.176  0.00  0.00    +0.000 A 
BRANCH  21  24
ATOM     24  O   UNL     1      -0.339  10.874  20.757  0.00  0.00    +0.000 OA
ATOM     25  H   UNL     1       0.254  11.526  21.164  0.00  0.00    +0.000 HD
ENDBRANCH  21  24
ENDBRANCH   5  18
TORSDOF 4
ENDMDL
MODEL 2
REMARK VINA RESULT:      -8.5      0.160      1.020
REMARK  Name = 
REMARK  4 active torsions:
REMARK  status: ('A' for Active; 'I' for Inactive)
REMARK    1  A    between atoms: C_5  and  C_6
REMARK    2  A    between atoms: C_9  and  O_10
REMARK    3  A    between atoms: C_13  and  C_14
REMARK    4  A    between atoms: C_17  and  O_18
REMARK                            x       y       z     vdW  Elec       q    Type
REMARK                         _______ _______ _______ _____ _____    ______ ____
ROOT
ATOM      1  O   UNL     1       1.333   2.954  19.870  0.00  0.00    +0.000 OA
ATOM      2  C   UNL     1       2.020   3.781  19.286  0.00  0.00    +0.000 C 
ATOM      3  O   UNL     1       1.879   5.137  19.413  0.00  0.00    +0.000 OA
ATOM      4  C   UNL     1       2.774   5.684  18.496  0.00  0.00    +0.000 C 
ATOM      5  C   UNL     1       2.802   6.992  18.209  0.00  0.00    +0.000 C 
ATOM      6  C   UNL     1       3.577   4.646  17.910  0.00  0.00    +0.000 C 
ATOM      7  C   UNL     1       3.122   3.482  18.364  0.00  0.00    +0.000 C 
ATOM      8 CL   UNL     1       3.649   1.906  18.047  0.00  0.00    +0.000 Cl
ENDROOT
BRANCH   6   9
ATOM      9  C   UNL     1       4.735   4.787  17.015  0.00  0.00    +0.000 A 
ATOM     10  C   UNL     1       5.896   5.439  17.451  0.00  0.00    +0.000 A 
ATOM     11  C   UNL     1       6.991   5.594  16.592  0.00  0.00    +0.000 A 
ATOM     12  C   UNL     1       6.933   5.089  15.295  0.00  0.00    +0.000 A 
ATOM     13  C   UNL     1       5.784   4.427  14.853  0.00  0.00    +0.000 A 
ATOM     14 CL   UNL     1       5.677   3.782  13.254  0.00  0.00    +0.000 Cl
ATOM     15  C   UNL     1       4.687   4.278  15.710  0.00  0.00    +0.000 A 
BRANCH  12  16
ATOM     16  O   UNL     1       8.003   5.241  14.456  0.00  0.00    +0.000 OA
ATOM     17  H   UNL     1       8.160   4.415  13.973  0.00  0.00    +0.000 HD
ENDBRANCH  12  16
ENDBRANCH   6   9
BRANCH   5  18
ATOM     18  C   UNL     1       1.979   7.995  18.894  0.00  0.00    +0.000 A 
ATOM     19  C   UNL     1       1.788   7.910  20.279  0.00  0.00    +0.000 A 
ATOM     20  C   UNL     1       1.020   8.867  20.951  0.00  0.00    +0.000 A 
ATOM     21  C   UNL     1       0.442   9.906  20.230  0.00  0.00    +0.000 A 
ATOM     22  C   UNL     1       0.629  10.008  18.856  0.00  0.00    +0.000 A 
ATOM     23  C   UNL     1       1.398   9.052  18.185  0.00  0.00    +0.000 A 
BRANCH  21  24
ATOM     24  O   UNL     1      -0.322  10.856  20.841  0.00  0.00    +0.000 OA
ATOM     25  H   UNL     1       0.180  11.223  21.588  0.00  0.00    +0.000 HD
ENDBRANCH  21  24
ENDBRANCH   5  18
TORSDOF 4
ENDMDL
MODEL 3
REMARK VINA RESULT:      -8.5      1.008      1.020
REMARK  Name = 
REMARK  4 active torsions:
REMARK  status: ('A' for Active; 'I' for Inactive)
REMARK    1  A    between atoms: C_5  and  C_6
REMARK    2  A    between atoms: C_9  and  O_10
REMARK    3  A    between atoms: C_13  and  C_14
REMARK    4  A    between atoms: C_17  and  O_18
REMARK                            x       y       z     vdW  Elec       q    Type
REMARK                         _______ _______ _______ _____ _____    ______ ____
ROOT
ATOM      1  O   UNL     1       2.022   3.773  21.278  0.00  0.00    +0.000 OA
ATOM      2  C   UNL     1       2.517   4.499  20.426  0.00  0.00    +0.000 C 
ATOM      3  O   UNL     1       2.153   5.800  20.207  0.00  0.00    +0.000 OA
ATOM      4  C   UNL     1       2.880   6.199  19.087  0.00  0.00    +0.000 C 
ATOM      5  C   UNL     1       2.663   7.365  18.464  0.00  0.00    +0.000 C 
ATOM      6  C   UNL     1       3.812   5.171  18.712  0.00  0.00    +0.000 C 
ATOM      7  C   UNL     1       3.594   4.124  19.503  0.00  0.00    +0.000 C 
ATOM      8 CL   UNL     1       4.364   2.618  19.556  0.00  0.00    +0.000 Cl
ENDROOT
BRANCH   6   9
ATOM      9  C   UNL     1       4.869   5.228  17.692  0.00  0.00    +0.000 A 
ATOM     10  C   UNL     1       6.083   5.875  17.961  0.00  0.00    +0.000 A 
ATOM     11  C   UNL     1       7.082   5.950  16.983  0.00  0.00    +0.000 A 
ATOM     12  C   UNL     1       6.875   5.372  15.732  0.00  0.00    +0.000 A 
ATOM     13  C   UNL     1       5.672   4.717  15.456  0.00  0.00    +0.000 A 
ATOM     14 CL   UNL     1       5.380   3.983  13.920  0.00  0.00    +0.000 Cl
ATOM     15  C   UNL     1       4.671   4.647  16.432  0.00  0.00    +0.000 A 
BRANCH  12  16
ATOM     16  O   UNL     1       7.850   5.448  14.777  0.00  0.00    +0.000 OA
ATOM     17  H   UNL     1       7.854   4.634  14.249  0.00  0.00    +0.000 HD
ENDBRANCH  12  16
ENDBRANCH   6   9
BRANCH   5  18
ATOM     18  C   UNL     1       1.724   8.384  18.946  0.00  0.00    +0.000 A 
ATOM     19  C   UNL     1       1.091   9.236  18.031  0.00  0.00    +0.000 A 
ATOM     20  C   UNL     1       0.181  10.202  18.472  0.00  0.00    +0.000 A 
ATOM     21  C   UNL     1      -0.090  10.313  19.831  0.00  0.00    +0.000 A 
ATOM     22  C   UNL     1       0.523   9.470  20.750  0.00  0.00    +0.000 A 
ATOM     23  C   UNL     1       1.433   8.504  20.309  0.00  0.00    +0.000 A 
BRANCH  21  24
ATOM     24  O   UNL     1      -0.964  11.247  20.306  0.00  0.00    +0.000 OA
ATOM     25  H   UNL     1      -0.919  12.032  19.735  0.00  0.00    +0.000 HD
ENDBRANCH  21  24
ENDBRANCH   5  18
TORSDOF 4
ENDMDL
MODEL 4
REMARK VINA RESULT:      -8.4      2.043      2.513
REMARK  Name = 
REMARK  4 active torsions:
REMARK  status: ('A' for Active; 'I' for Inactive)
REMARK    1  A    between atoms: C_5  and  C_6
REMARK    2  A    between atoms: C_9  and  O_10
REMARK    3  A    between atoms: C_13  and  C_14
REMARK    4  A    between atoms: C_17  and  O_18
REMARK                            x       y       z     vdW  Elec       q    Type
REMARK                         _______ _______ _______ _____ _____    ______ ____
ROOT
ATOM      1  O   UNL     1       0.737   3.388  20.857  0.00  0.00    +0.000 OA
ATOM      2  C   UNL     1       1.433   4.299  20.431  0.00  0.00    +0.000 C 
ATOM      3  O   UNL     1       1.248   5.623  20.728  0.00  0.00    +0.000 OA
ATOM      4  C   UNL     1       2.179   6.306  19.949  0.00  0.00    +0.000 C 
ATOM      5  C   UNL     1       2.188   7.641  19.840  0.00  0.00    +0.000 C 
ATOM      6  C   UNL     1       3.043   5.372  19.280  0.00  0.00    +0.000 C 
ATOM      7  C   UNL     1       2.595   4.148  19.547  0.00  0.00    +0.000 C 
ATOM      8 CL   UNL     1       3.183   2.640  19.056  0.00  0.00    +0.000 Cl
ENDROOT
BRANCH   6   9
ATOM      9  C   UNL     1       4.247   5.654  18.484  0.00  0.00    +0.000 A 
ATOM     10  C   UNL     1       4.141   5.989  17.128  0.00  0.00    +0.000 A 
ATOM     11  C   UNL     1       5.287   6.235  16.363  0.00  0.00    +0.000 A 
ATOM     12  C   UNL     1       6.547   6.156  16.955  0.00  0.00    +0.000 A 
ATOM     13  C   UNL     1       6.664   5.833  18.309  0.00  0.00    +0.000 A 
ATOM     14 CL   UNL     1       8.207   5.731  19.078  0.00  0.00    +0.000 Cl
ATOM     15  C   UNL     1       5.517   5.580  19.071  0.00  0.00    +0.000 A 
BRANCH  12  16
ATOM     16  O   UNL     1       7.666   6.396  16.206  0.00  0.00    +0.000 OA
ATOM     17  H   UNL     1       8.290   5.659  16.307  0.00  0.00    +0.000 HD
ENDBRANCH  12  16
ENDBRANCH   6   9
BRANCH   5  18
ATOM     18  C   UNL     1       1.299   8.526  20.601  0.00  0.00    +0.000 A 
ATOM     19  C   UNL     1       0.420   9.382  19.922  0.00  0.00    +0.000 A 
ATOM     20  C   UNL     1      -0.446  10.220  20.631  0.00  0.00    +0.000 A 
ATOM     21  C   UNL     1      -0.426  10.201  22.021  0.00  0.00    +0.000 A 
ATOM     22  C   UNL     1       0.434   9.353  22.709  0.00  0.00    +0.000 A 
ATOM     23  C   UNL     1       1.299   8.514  22.000  0.00  0.00    +0.000 A 
BRANCH  21  24
ATOM     24  O   UNL     1      -1.246  11.008  22.754  0.00  0.00    +0.000 OA
ATOM     25  H   UNL     1      -0.707  11.705  23.165  0.00  0.00    +0.000 HD
ENDBRANCH  21  24
ENDBRANCH   5  18
TORSDOF 4
ENDMDL
MODEL 5
REMARK VINA RESULT:      -8.3      1.689      2.057
REMARK  Name = 
REMARK  4 active torsions:
REMARK  status: ('A' for Active; 'I' for Inactive)
REMARK    1  A    between atoms: C_5  and  C_6
REMARK    2  A    between atoms: C_9  and  O_10
REMARK    3  A    between atoms: C_13  and  C_14
REMARK    4  A    between atoms: C_17  and  O_18
REMARK                            x       y       z     vdW  Elec       q    Type
REMARK                         _______ _______ _______ _____ _____    ______ ____
ROOT
ATOM      1  O   UNL     1       1.575   3.344  21.456  0.00  0.00    +0.000 OA
ATOM      2  C   UNL     1       2.101   4.163  20.714  0.00  0.00    +0.000 C 
ATOM      3  O   UNL     1       1.826   5.504  20.716  0.00  0.00    +0.000 OA
ATOM      4  C   UNL     1       2.553   6.027  19.650  0.00  0.00    +0.000 C 
ATOM      5  C   UNL     1       2.406   7.291  19.228  0.00  0.00    +0.000 C 
ATOM      6  C   UNL     1       3.400   5.013  19.084  0.00  0.00    +0.000 C 
ATOM      7  C   UNL     1       3.127   3.870  19.706  0.00  0.00    +0.000 C 
ATOM      8 CL   UNL     1       3.789   2.327  19.493  0.00  0.00    +0.000 Cl
ENDROOT
BRANCH   6   9
ATOM      9  C   UNL     1       4.435   5.164  18.051  0.00  0.00    +0.000 A 
ATOM     10  C   UNL     1       4.381   4.406  16.874  0.00  0.00    +0.000 A 
ATOM     11  C   UNL     1       5.378   4.531  15.899  0.00  0.00    +0.000 A 
ATOM     12  C   UNL     1       6.431   5.423  16.094  0.00  0.00    +0.000 A 
ATOM     13  C   UNL     1       6.491   6.191  17.259  0.00  0.00    +0.000 A 
ATOM     14 CL   UNL     1       7.777   7.310  17.534  0.00  0.00    +0.000 Cl
ATOM     15  C   UNL     1       5.496   6.060  18.236  0.00  0.00    +0.000 A 
BRANCH  12  16
ATOM     16  O   UNL     1       7.406   5.543  15.142  0.00  0.00    +0.000 OA
ATOM     17  H   UNL     1       7.677   4.663  14.838  0.00  0.00    +0.000 HD
ENDBRANCH  12  16
ENDBRANCH   6   9
BRANCH   5  18
ATOM     18  C   UNL     1       1.554   8.280  19.898  0.00  0.00    +0.000 A 
ATOM     19  C   UNL     1       0.935   9.288  19.147  0.00  0.00    +0.000 A 
ATOM     20  C   UNL     1       0.107  10.229  19.766  0.00  0.00    +0.000 A 
ATOM     21  C   UNL     1      -0.098  10.157  21.139  0.00  0.00    +0.000 A 
ATOM     22  C   UNL     1       0.502   9.158  21.897  0.00  0.00    +0.000 A 
ATOM     23  C   UNL     1       1.330   8.217  21.277  0.00  0.00    +0.000 A 
BRANCH  21  24
ATOM     24  O   UNL     1      -0.891  11.059  21.787  0.00  0.00    +0.000 OA
ATOM     25  H   UNL     1      -0.695  11.946  21.442  0.00  0.00    +0.000 HD
ENDBRANCH  21  24
ENDBRANCH   5  18
TORSDOF 4
ENDMDL
MODEL 6
REMARK VINA RESULT:      -8.3      1.648      2.270
REMARK  Name = 
REMARK  4 active torsions:
REMARK  status: ('A' for Active; 'I' for Inactive)
REMARK    1  A    between atoms: C_5  and  C_6
REMARK    2  A    between atoms: C_9  and  O_10
REMARK    3  A    between atoms: C_13  and  C_14
REMARK    4  A    between atoms: C_17  and  O_18
REMARK                            x       y       z     vdW  Elec       q    Type
REMARK                         _______ _______ _______ _____ _____    ______ ____
ROOT
ATOM      1  O   UNL     1       1.306   3.277  21.190  0.00  0.00    +0.000 OA
ATOM      2  C   UNL     1       1.896   4.110  20.516  0.00  0.00    +0.000 C 
ATOM      3  O   UNL     1       1.693   5.461  20.598  0.00  0.00    +0.000 OA
ATOM      4  C   UNL     1       2.478   6.010  19.586  0.00  0.00    +0.000 C 
ATOM      5  C   UNL     1       2.411   7.303  19.243  0.00  0.00    +0.000 C 
ATOM      6  C   UNL     1       3.285   4.988  18.978  0.00  0.00    +0.000 C 
ATOM      7  C   UNL     1       2.933   3.825  19.517  0.00  0.00    +0.000 C 
ATOM      8 CL   UNL     1       3.517   2.265  19.222  0.00  0.00    +0.000 Cl
ENDROOT
BRANCH   6   9
ATOM      9  C   UNL     1       4.356   5.146  17.982  0.00  0.00    +0.000 A 
ATOM     10  C   UNL     1       4.313   4.439  16.774  0.00  0.00    +0.000 A 
ATOM     11  C   UNL     1       5.343   4.571  15.835  0.00  0.00    +0.000 A 
ATOM     12  C   UNL     1       6.418   5.418  16.097  0.00  0.00    +0.000 A 
ATOM     13  C   UNL     1       6.467   6.136  17.295  0.00  0.00    +0.000 A 
ATOM     14 CL   UNL     1       7.779   7.199  17.654  0.00  0.00    +0.000 Cl
ATOM     15  C   UNL     1       5.439   5.998  18.236  0.00  0.00    +0.000 A 
BRANCH  12  16
ATOM     16  O   UNL     1       7.425   5.545  15.180  0.00  0.00    +0.000 OA
ATOM     17  H   UNL     1       7.047   5.705  14.301  0.00  0.00    +0.000 HD
ENDBRANCH  12  16
ENDBRANCH   6   9
BRANCH   5  18
ATOM     18  C   UNL     1       1.594   8.294  19.953  0.00  0.00    +0.000 A 
ATOM     19  C   UNL     1       1.423   8.190  21.340  0.00  0.00    +0.000 A 
ATOM     20  C   UNL     1       0.661   9.134  22.035  0.00  0.00    +0.000 A 
ATOM     21  C   UNL     1       0.069  10.180  21.336  0.00  0.00    +0.000 A 
ATOM     22  C   UNL     1       0.236  10.302  19.962  0.00  0.00    +0.000 A 
ATOM     23  C   UNL     1       0.998   9.358  19.267  0.00  0.00    +0.000 A 
BRANCH  21  24
ATOM     24  O   UNL     1      -0.690  11.119  21.972  0.00  0.00    +0.000 OA
ATOM     25  H   UNL     1      -1.138  11.660  21.300  0.00  0.00    +0.000 HD
ENDBRANCH  21  24
ENDBRANCH   5  18
TORSDOF 4
ENDMDL
MODEL 7
REMARK VINA RESULT:      -8.2      1.276      1.861
REMARK  Name = 
REMARK  4 active torsions:
REMARK  status: ('A' for Active; 'I' for Inactive)
REMARK    1  A    between atoms: C_5  and  C_6
REMARK    2  A    between atoms: C_9  and  O_10
REMARK    3  A    between atoms: C_13  and  C_14
REMARK    4  A    between atoms: C_17  and  O_18
REMARK                            x       y       z     vdW  Elec       q    Type
REMARK                         _______ _______ _______ _____ _____    ______ ____
ROOT
ATOM      1  O   UNL     1       0.976   3.192  21.169  0.00  0.00    +0.000 OA
ATOM      2  C   UNL     1       1.643   4.044  20.597  0.00  0.00    +0.000 C 
ATOM      3  O   UNL     1       1.453   5.393  20.725  0.00  0.00    +0.000 OA
ATOM      4  C   UNL     1       2.343   5.974  19.823  0.00  0.00    +0.000 C 
ATOM      5  C   UNL     1       2.331   7.283  19.539  0.00  0.00    +0.000 C 
ATOM      6  C   UNL     1       3.191   4.966  19.248  0.00  0.00    +0.000 C 
ATOM      7  C   UNL     1       2.769   3.785  19.692  0.00  0.00    +0.000 C 
ATOM      8 CL   UNL     1       3.356   2.229  19.380  0.00  0.00    +0.000 Cl
ENDROOT
BRANCH   6   9
ATOM      9  C   UNL     1       4.357   5.148  18.372  0.00  0.00    +0.000 A 
ATOM     10  C   UNL     1       5.537   5.719  18.867  0.00  0.00    +0.000 A 
ATOM     11  C   UNL     1       6.641   5.914  18.028  0.00  0.00    +0.000 A 
ATOM     12  C   UNL     1       6.572   5.533  16.690  0.00  0.00    +0.000 A 
ATOM     13  C   UNL     1       5.404   4.954  16.187  0.00  0.00    +0.000 A 
ATOM     14 CL   UNL     1       5.283   4.463  14.536  0.00  0.00    +0.000 Cl
ATOM     15  C   UNL     1       4.299   4.764  17.025  0.00  0.00    +0.000 A 
BRANCH  12  16
ATOM     16  O   UNL     1       7.650   5.726  15.871  0.00  0.00    +0.000 OA
ATOM     17  H   UNL     1       7.608   5.108  15.124  0.00  0.00    +0.000 HD
ENDBRANCH  12  16
ENDBRANCH   6   9
BRANCH   5  18
ATOM     18  C   UNL     1       1.462   8.255  20.213  0.00  0.00    +0.000 A 
ATOM     19  C   UNL     1       1.270   8.174  21.599  0.00  0.00    +0.000 A 
ATOM     20  C   UNL     1       0.460   9.102  22.260  0.00  0.00    +0.000 A 
ATOM     21  C   UNL     1      -0.160  10.109  21.528  0.00  0.00    +0.000 A 
ATOM     22  C   UNL     1       0.027  10.207  20.154  0.00  0.00    +0.000 A 
ATOM     23  C   UNL     1       0.838   9.279  19.493  0.00  0.00    +0.000 A 
BRANCH  21  24
ATOM     24  O   UNL     1      -0.967  11.030  22.129  0.00  0.00    +0.000 OA
ATOM     25  H   UNL     1      -1.244  11.680  21.462  0.00  0.00    +0.000 HD
ENDBRANCH  21  24
ENDBRANCH   5  18
TORSDOF 4
ENDMDL
MODEL 8
REMARK VINA RESULT:      -7.9      1.733      2.062
REMARK  Name = 
REMARK  4 active torsions:
REMARK  status: ('A' for Active; 'I' for Inactive)
REMARK    1  A    between atoms: C_5  and  C_6
REMARK    2  A    between atoms: C_9  and  O_10
REMARK    3  A    between atoms: C_13  and  C_14
REMARK    4  A    between atoms: C_17  and  O_18
REMARK                            x       y       z     vdW  Elec       q    Type
REMARK                         _______ _______ _______ _____ _____    ______ ____
ROOT
ATOM      1  O   UNL     1       0.794   3.342  20.964  0.00  0.00    +0.000 OA
ATOM      2  C   UNL     1       1.488   4.249  20.525  0.00  0.00    +0.000 C 
ATOM      3  O   UNL     1       1.295   5.577  20.796  0.00  0.00    +0.000 OA
ATOM      4  C   UNL     1       2.228   6.249  20.009  0.00  0.00    +0.000 C 
ATOM      5  C   UNL     1       2.231   7.582  19.875  0.00  0.00    +0.000 C 
ATOM      6  C   UNL     1       3.101   5.307  19.364  0.00  0.00    +0.000 C 
ATOM      7  C   UNL     1       2.656   4.086  19.651  0.00  0.00    +0.000 C 
ATOM      8 CL   UNL     1       3.254   2.572  19.192  0.00  0.00    +0.000 Cl
ENDROOT
BRANCH   6   9
ATOM      9  C   UNL     1       4.308   5.579  18.570  0.00  0.00    +0.000 A 
ATOM     10  C   UNL     1       5.580   5.438  19.139  0.00  0.00    +0.000 A 
ATOM     11  C   UNL     1       6.730   5.719  18.391  0.00  0.00    +0.000 A 
ATOM     12  C   UNL     1       6.612   6.136  17.066  0.00  0.00    +0.000 A 
ATOM     13  C   UNL     1       5.349   6.270  16.485  0.00  0.00    +0.000 A 
ATOM     14 CL   UNL     1       5.163   6.778  14.845  0.00  0.00    +0.000 Cl
ATOM     15  C   UNL     1       4.199   5.995  17.236  0.00  0.00    +0.000 A 
BRANCH  12  16
ATOM     16  O   UNL     1       7.736   6.411  16.337  0.00  0.00    +0.000 OA
ATOM     17  H   UNL     1       8.116   5.586  15.998  0.00  0.00    +0.000 HD
ENDBRANCH  12  16
ENDBRANCH   6   9
BRANCH   5  18
ATOM     18  C   UNL     1       1.333   8.478  20.613  0.00  0.00    +0.000 A 
ATOM     19  C   UNL     1       0.452   9.312  19.913  0.00  0.00    +0.000 A 
ATOM     20  C   UNL     1      -0.422  10.160  20.601  0.00  0.00    +0.000 A 
ATOM     21  C   UNL     1      -0.407  10.171  21.991  0.00  0.00    +0.000 A 
ATOM     22  C   UNL     1       0.455   9.342  22.700  0.00  0.00    +0.000 A 
ATOM     23  C   UNL     1       1.328   8.494  22.012  0.00  0.00    +0.000 A 
BRANCH  21  24
ATOM     24  O   UNL     1      -1.236  10.988  22.703  0.00  0.00    +0.000 OA
ATOM     25  H   UNL     1      -1.014  10.906  23.646  0.00  0.00    +0.000 HD
ENDBRANCH  21  24
ENDBRANCH   5  18
TORSDOF 4
ENDMDL
MODEL 9
REMARK VINA RESULT:      -7.7      1.485      1.725
REMARK  Name = 
REMARK  4 active torsions:
REMARK  status: ('A' for Active; 'I' for Inactive)
REMARK    1  A    between atoms: C_5  and  C_6
REMARK    2  A    between atoms: C_9  and  O_10
REMARK    3  A    between atoms: C_13  and  C_14
REMARK    4  A    between atoms: C_17  and  O_18
REMARK                            x       y       z     vdW  Elec       q    Type
REMARK                         _______ _______ _______ _____ _____    ______ ____
ROOT
ATOM      1  O   UNL     1       1.630   4.824  21.044  0.00  0.00    +0.000 OA
ATOM      2  C   UNL     1       2.191   5.413  20.130  0.00  0.00    +0.000 C 
ATOM      3  O   UNL     1       1.871   6.676  19.708  0.00  0.00    +0.000 OA
ATOM      4  C   UNL     1       2.671   6.900  18.590  0.00  0.00    +0.000 C 
ATOM      5  C   UNL     1       2.519   7.969  17.797  0.00  0.00    +0.000 C 
ATOM      6  C   UNL     1       3.598   5.815  18.420  0.00  0.00    +0.000 C 
ATOM      7  C   UNL     1       3.310   4.894  19.336  0.00  0.00    +0.000 C 
ATOM      8 CL   UNL     1       4.040   3.400  19.647  0.00  0.00    +0.000 Cl
ENDROOT
BRANCH   6   9
ATOM      9  C   UNL     1       4.714   5.711  17.469  0.00  0.00    +0.000 A 
ATOM     10  C   UNL     1       5.936   6.344  17.733  0.00  0.00    +0.000 A 
ATOM     11  C   UNL     1       6.992   6.266  16.817  0.00  0.00    +0.000 A 
ATOM     12  C   UNL     1       6.834   5.545  15.634  0.00  0.00    +0.000 A 
ATOM     13  C   UNL     1       5.623   4.901  15.365  0.00  0.00    +0.000 A 
ATOM     14 CL   UNL     1       5.391   3.995  13.914  0.00  0.00    +0.000 Cl
ATOM     15  C   UNL     1       4.565   4.986  16.278  0.00  0.00    +0.000 A 
BRANCH  12  16
ATOM     16  O   UNL     1       7.865   5.470  14.740  0.00  0.00    +0.000 OA
ATOM     17  H   UNL     1       8.697   5.706  15.180  0.00  0.00    +0.000 HD
ENDBRANCH  12  16
ENDBRANCH   6   9
BRANCH   5  18
ATOM     18  C   UNL     1       1.578   9.061  18.073  0.00  0.00    +0.000 A 
ATOM     19  C   UNL     1       2.006  10.185  18.792  0.00  0.00    +0.000 A 
ATOM     20  C   UNL     1       1.127  11.241  19.049  0.00  0.00    +0.000 A 
ATOM     21  C   UNL     1      -0.182  11.167  18.586  0.00  0.00    +0.000 A 
ATOM     22  C   UNL     1      -0.619  10.063  17.864  0.00  0.00    +0.000 A 
ATOM     23  C   UNL     1       0.260   9.007  17.606  0.00  0.00    +0.000 A 
BRANCH  21  24
ATOM     24  O   UNL     1      -1.076  12.170  18.822  0.00  0.00    +0.000 OA
ATOM     25  H   UNL     1      -0.711  12.999  18.470  0.00  0.00    +0.000 HD
ENDBRANCH  21  24
ENDBRANCH   5  18
TORSDOF 4
ENDMDL
