MODEL 1
REMARK VINA RESULT:      -8.0      0.000      0.000
REMARK  Name = 
REMARK  5 active torsions:
REMARK  status: ('A' for Active; 'I' for Inactive)
REMARK    1  A    between atoms: C_2  and  C_3
REMARK    2  A    between atoms: C_4  and  C_5
REMARK    3  A    between atoms: C_9  and  N_10
REMARK    4  A    between atoms: N_14  and  C_15
REMARK    5  A    between atoms: C_18  and  N_19
REMARK                            x       y       z     vdW  Elec       q    Type
REMARK                         _______ _______ _______ _____ _____    ______ ____
ROOT
ATOM      1  O   UNL     1       8.012   6.619  18.505  0.00  0.00    +0.000 OA
ATOM      2  C   UNL     1       7.523   7.531  17.853  0.00  0.00    +0.000 C 
ATOM      3  N   UNL     1       6.358   7.487  17.111  0.00  0.00    +0.000 N 
ATOM      4  H   UNL     1       6.155   8.269  16.501  0.00  0.00    +0.000 HD
ENDROOT
BRANCH   3   5
ATOM      5  C   UNL     1       5.405   6.445  17.113  0.00  0.00    +0.000 A 
ATOM      6  C   UNL     1       5.634   5.203  16.512  0.00  0.00    +0.000 A 
ATOM      7  C   UNL     1       4.681   4.183  16.591  0.00  0.00    +0.000 A 
ATOM      8  C   UNL     1       3.482   4.408  17.271  0.00  0.00    +0.000 A 
ATOM      9  C   UNL     1       3.232   5.650  17.869  0.00  0.00    +0.000 A 
ATOM     10  C   UNL     1       4.199   6.659  17.796  0.00  0.00    +0.000 A 
BRANCH   8  11
ATOM     11  N   UNL     1       2.491   3.331  17.373  0.00  0.00    +0.000 N 
ATOM     12  O   UNL     1       1.293   3.637  17.289  0.00  0.00    +0.000 OA
ATOM     13  O   UNL     1       2.912   2.175  17.529  0.00  0.00    +0.000 OA
ENDBRANCH   8  11
ENDBRANCH   3   5
BRANCH   2  14
ATOM     14  C   UNL     1       8.175   8.866  17.794  0.00  0.00    +0.000 C 
ATOM     15  C   UNL     1       8.883   9.317  18.843  0.00  0.00    +0.000 C 
BRANCH  15  16
ATOM     16  C   UNL     1       9.481  10.660  18.902  0.00  0.00    +0.000 A 
ATOM     17  C   UNL     1      10.137  11.179  17.777  0.00  0.00    +0.000 A 
ATOM     18  C   UNL     1      10.729  12.446  17.814  0.00  0.00    +0.000 A 
ATOM     19  C   UNL     1      10.681  13.211  18.979  0.00  0.00    +0.000 A 
ATOM     20  C   UNL     1      10.046  12.689  20.112  0.00  0.00    +0.000 A 
ATOM     21  C   UNL     1       9.463  11.416  20.081  0.00  0.00    +0.000 A 
BRANCH  20  22
ATOM     22  N   UNL     1       9.986  13.477  21.349  0.00  0.00    +0.000 N 
ATOM     23  O   UNL     1       9.417  12.973  22.326  0.00  0.00    +0.000 OA
ATOM     24  O   UNL     1      10.518  14.596  21.343  0.00  0.00    +0.000 OA
ENDBRANCH  20  22
ENDBRANCH  15  16
ENDBRANCH   2  14
TORSDOF 5
ENDMDL
MODEL 2
REMARK VINA RESULT:      -8.0      1.790      1.957
REMARK  Name = 
REMARK  5 active torsions:
REMARK  status: ('A' for Active; 'I' for Inactive)
REMARK    1  A    between atoms: C_2  and  C_3
REMARK    2  A    between atoms: C_4  and  C_5
REMARK    3  A    between atoms: C_9  and  N_10
REMARK    4  A    between atoms: N_14  and  C_15
REMARK    5  A    between atoms: C_18  and  N_19
REMARK                            x       y       z     vdW  Elec       q    Type
REMARK                         _______ _______ _______ _____ _____    ______ ____
ROOT
ATOM      1  O   UNL     1       8.179   6.960  18.673  0.00  0.00    +0.000 OA
ATOM      2  C   UNL     1       7.709   7.750  17.866  0.00  0.00    +0.000 C 
ATOM      3  N   UNL     1       6.647   7.529  17.010  0.00  0.00    +0.000 N 
ATOM      4  H   UNL     1       6.465   8.219  16.292  0.00  0.00    +0.000 HD
ENDROOT
BRANCH   3   5
ATOM      5  C   UNL     1       5.776   6.418  17.031  0.00  0.00    +0.000 A 
ATOM      6  C   UNL     1       6.056   5.218  16.369  0.00  0.00    +0.000 A 
ATOM      7  C   UNL     1       5.188   4.126  16.467  0.00  0.00    +0.000 A 
ATOM      8  C   UNL     1       4.022   4.237  17.228  0.00  0.00    +0.000 A 
ATOM      9  C   UNL     1       3.721   5.434  17.889  0.00  0.00    +0.000 A 
ATOM     10  C   UNL     1       4.604   6.516  17.795  0.00  0.00    +0.000 A 
BRANCH   8  11
ATOM     11  N   UNL     1       3.122   3.084  17.348  0.00  0.00    +0.000 N 
ATOM     12  O   UNL     1       1.939   3.237  17.013  0.00  0.00    +0.000 OA
ATOM     13  O   UNL     1       3.600   2.023  17.773  0.00  0.00    +0.000 OA
ENDBRANCH   8  11
ENDBRANCH   3   5
BRANCH   2  14
ATOM     14  C   UNL     1       8.269   9.121  17.722  0.00  0.00    +0.000 C 
ATOM     15  C   UNL     1       8.988   9.664  18.719  0.00  0.00    +0.000 C 
BRANCH  15  16
ATOM     16  C   UNL     1       9.497  11.043  18.693  0.00  0.00    +0.000 A 
ATOM     17  C   UNL     1      10.799  11.312  19.139  0.00  0.00    +0.000 A 
ATOM     18  C   UNL     1      11.301  12.618  19.142  0.00  0.00    +0.000 A 
ATOM     19  C   UNL     1      10.504  13.678  18.708  0.00  0.00    +0.000 A 
ATOM     20  C   UNL     1       9.196  13.418  18.283  0.00  0.00    +0.000 A 
ATOM     21  C   UNL     1       8.688  12.113  18.289  0.00  0.00    +0.000 A 
BRANCH  20  22
ATOM     22  N   UNL     1       8.341  14.519  17.823  0.00  0.00    +0.000 N 
ATOM     23  O   UNL     1       8.846  15.647  17.744  0.00  0.00    +0.000 OA
ATOM     24  O   UNL     1       7.167  14.251  17.530  0.00  0.00    +0.000 OA
ENDBRANCH  20  22
ENDBRANCH  15  16
ENDBRANCH   2  14
TORSDOF 5
ENDMDL
MODEL 3
REMARK VINA RESULT:      -8.0      1.861      2.353
REMARK  Name = 
REMARK  5 active torsions:
REMARK  status: ('A' for Active; 'I' for Inactive)
REMARK    1  A    between atoms: C_2  and  C_3
REMARK    2  A    between atoms: C_4  and  C_5
REMARK    3  A    between atoms: C_9  and  N_10
REMARK    4  A    between atoms: N_14  and  C_15
REMARK    5  A    between atoms: C_18  and  N_19
REMARK                            x       y       z     vdW  Elec       q    Type
REMARK                         _______ _______ _______ _____ _____    ______ ____
ROOT
ATOM      1  O   UNL     1       7.895   6.761  16.405  0.00  0.00    +0.000 OA
ATOM      2  C   UNL     1       7.311   7.492  17.193  0.00  0.00    +0.000 C 
ATOM      3  N   UNL     1       6.133   7.218  17.863  0.00  0.00    +0.000 N 
ATOM      4  H   UNL     1       5.687   7.975  18.365  0.00  0.00    +0.000 HD
ENDROOT
BRANCH   3   5
ATOM      5  C   UNL     1       5.476   5.970  17.917  0.00  0.00    +0.000 A 
ATOM      6  C   UNL     1       5.536   5.125  19.029  0.00  0.00    +0.000 A 
ATOM      7  C   UNL     1       4.821   3.924  19.057  0.00  0.00    +0.000 A 
ATOM      8  C   UNL     1       4.042   3.558  17.956  0.00  0.00    +0.000 A 
ATOM      9  C   UNL     1       3.979   4.387  16.829  0.00  0.00    +0.000 A 
ATOM     10  C   UNL     1       4.688   5.594  16.819  0.00  0.00    +0.000 A 
BRANCH   8  11
ATOM     11  N   UNL     1       3.274   2.309  17.994  0.00  0.00    +0.000 N 
ATOM     12  O   UNL     1       3.763   1.347  18.605  0.00  0.00    +0.000 OA
ATOM     13  O   UNL     1       2.177   2.290  17.417  0.00  0.00    +0.000 OA
ENDBRANCH   8  11
ENDBRANCH   3   5
BRANCH   2  14
ATOM     14  C   UNL     1       7.850   8.835  17.534  0.00  0.00    +0.000 C 
ATOM     15  C   UNL     1       8.685   8.982  18.576  0.00  0.00    +0.000 C 
BRANCH  15  16
ATOM     16  C   UNL     1       9.188  10.286  19.035  0.00  0.00    +0.000 A 
ATOM     17  C   UNL     1       9.451  10.490  20.398  0.00  0.00    +0.000 A 
ATOM     18  C   UNL     1       9.913  11.726  20.862  0.00  0.00    +0.000 A 
ATOM     19  C   UNL     1      10.111  12.782  19.971  0.00  0.00    +0.000 A 
ATOM     20  C   UNL     1       9.829  12.591  18.614  0.00  0.00    +0.000 A 
ATOM     21  C   UNL     1       9.356  11.357  18.148  0.00  0.00    +0.000 A 
BRANCH  20  22
ATOM     22  N   UNL     1      10.030  13.689  17.661  0.00  0.00    +0.000 N 
ATOM     23  O   UNL     1       9.301  14.684  17.766  0.00  0.00    +0.000 OA
ATOM     24  O   UNL     1      10.925  13.558  16.814  0.00  0.00    +0.000 OA
ENDBRANCH  20  22
ENDBRANCH  15  16
ENDBRANCH   2  14
TORSDOF 5
ENDMDL
MODEL 4
REMARK VINA RESULT:      -7.9      1.768      2.236
REMARK  Name = 
REMARK  5 active torsions:
REMARK  status: ('A' for Active; 'I' for Inactive)
REMARK    1  A    between atoms: C_2  and  C_3
REMARK    2  A    between atoms: C_4  and  C_5
REMARK    3  A    between atoms: C_9  and  N_10
REMARK    4  A    between atoms: N_14  and  C_15
REMARK    5  A    between atoms: C_18  and  N_19
REMARK                            x       y       z     vdW  Elec       q    Type
REMARK                         _______ _______ _______ _____ _____    ______ ____
ROOT
ATOM      1  O   UNL     1       8.185   6.740  18.414  0.00  0.00    +0.000 OA
ATOM      2  C   UNL     1       7.627   7.705  17.911  0.00  0.00    +0.000 C 
ATOM      3  N   UNL     1       6.415   7.710  17.247  0.00  0.00    +0.000 N 
ATOM      4  H   UNL     1       6.149   8.551  16.751  0.00  0.00    +0.000 HD
ENDROOT
BRANCH   3   5
ATOM      5  C   UNL     1       5.493   6.642  17.186  0.00  0.00    +0.000 A 
ATOM      6  C   UNL     1       5.745   5.458  16.487  0.00  0.00    +0.000 A 
ATOM      7  C   UNL     1       4.824   4.406  16.504  0.00  0.00    +0.000 A 
ATOM      8  C   UNL     1       3.632   4.542  17.219  0.00  0.00    +0.000 A 
ATOM      9  C   UNL     1       3.358   5.726  17.915  0.00  0.00    +0.000 A 
ATOM     10  C   UNL     1       4.294   6.767  17.903  0.00  0.00    +0.000 A 
BRANCH   8  11
ATOM     11  N   UNL     1       2.675   3.431  17.254  0.00  0.00    +0.000 N 
ATOM     12  O   UNL     1       3.125   2.284  17.395  0.00  0.00    +0.000 OA
ATOM     13  O   UNL     1       1.471   3.704  17.147  0.00  0.00    +0.000 OA
ENDBRANCH   8  11
ENDBRANCH   3   5
BRANCH   2  14
ATOM     14  C   UNL     1       8.238   9.060  17.972  0.00  0.00    +0.000 C 
ATOM     15  C   UNL     1       9.035   9.394  19.001  0.00  0.00    +0.000 C 
BRANCH  15  16
ATOM     16  C   UNL     1       9.603  10.739  19.184  0.00  0.00    +0.000 A 
ATOM     17  C   UNL     1       9.692  11.285  20.472  0.00  0.00    +0.000 A 
ATOM     18  C   UNL     1      10.211  12.569  20.671  0.00  0.00    +0.000 A 
ATOM     19  C   UNL     1      10.641  13.330  19.583  0.00  0.00    +0.000 A 
ATOM     20  C   UNL     1      10.533  12.798  18.294  0.00  0.00    +0.000 A 
ATOM     21  C   UNL     1      10.003  11.517  18.091  0.00  0.00    +0.000 A 
BRANCH  20  22
ATOM     22  N   UNL     1      10.978  13.583  17.136  0.00  0.00    +0.000 N 
ATOM     23  O   UNL     1      10.609  14.761  17.062  0.00  0.00    +0.000 OA
ATOM     24  O   UNL     1      11.706  13.020  16.306  0.00  0.00    +0.000 OA
ENDBRANCH  20  22
ENDBRANCH  15  16
ENDBRANCH   2  14
TORSDOF 5
ENDMDL
MODEL 5
REMARK VINA RESULT:      -7.9      1.898      2.274
REMARK  Name = 
REMARK  5 active torsions:
REMARK  status: ('A' for Active; 'I' for Inactive)
REMARK    1  A    between atoms: C_2  and  C_3
REMARK    2  A    between atoms: C_4  and  C_5
REMARK    3  A    between atoms: C_9  and  N_10
REMARK    4  A    between atoms: N_14  and  C_15
REMARK    5  A    between atoms: C_18  and  N_19
REMARK                            x       y       z     vdW  Elec       q    Type
REMARK                         _______ _______ _______ _____ _____    ______ ____
ROOT
ATOM      1  O   UNL     1       8.157   7.122  18.679  0.00  0.00    +0.000 OA
ATOM      2  C   UNL     1       7.680   7.813  17.790  0.00  0.00    +0.000 C 
ATOM      3  N   UNL     1       6.607   7.496  16.978  0.00  0.00    +0.000 N 
ATOM      4  H   UNL     1       6.419   8.097  16.186  0.00  0.00    +0.000 HD
ENDROOT
BRANCH   3   5
ATOM      5  C   UNL     1       5.732   6.400  17.142  0.00  0.00    +0.000 A 
ATOM      6  C   UNL     1       4.486   6.508  17.767  0.00  0.00    +0.000 A 
ATOM      7  C   UNL     1       3.631   5.405  17.854  0.00  0.00    +0.000 A 
ATOM      8  C   UNL     1       4.029   4.178  17.319  0.00  0.00    +0.000 A 
ATOM      9  C   UNL     1       5.278   4.050  16.699  0.00  0.00    +0.000 A 
ATOM     10  C   UNL     1       6.120   5.164  16.605  0.00  0.00    +0.000 A 
BRANCH   8  11
ATOM     11  N   UNL     1       3.122   3.026  17.391  0.00  0.00    +0.000 N 
ATOM     12  O   UNL     1       1.942   3.197  17.053  0.00  0.00    +0.000 OA
ATOM     13  O   UNL     1       3.592   1.948  17.781  0.00  0.00    +0.000 OA
ENDBRANCH   8  11
ENDBRANCH   3   5
BRANCH   2  14
ATOM     14  C   UNL     1       8.243   9.153  17.477  0.00  0.00    +0.000 C 
ATOM     15  C   UNL     1       8.884   9.854  18.427  0.00  0.00    +0.000 C 
BRANCH  15  16
ATOM     16  C   UNL     1       9.388  11.221  18.227  0.00  0.00    +0.000 A 
ATOM     17  C   UNL     1      10.770  11.460  18.227  0.00  0.00    +0.000 A 
ATOM     18  C   UNL     1      11.273  12.754  18.056  0.00  0.00    +0.000 A 
ATOM     19  C   UNL     1      10.403  13.831  17.891  0.00  0.00    +0.000 A 
ATOM     20  C   UNL     1       9.022  13.602  17.913  0.00  0.00    +0.000 A 
ATOM     21  C   UNL     1       8.515  12.309  18.095  0.00  0.00    +0.000 A 
BRANCH  20  22
ATOM     22  N   UNL     1       8.089  14.722  17.743  0.00  0.00    +0.000 N 
ATOM     23  O   UNL     1       8.553  15.869  17.777  0.00  0.00    +0.000 OA
ATOM     24  O   UNL     1       6.893  14.451  17.564  0.00  0.00    +0.000 OA
ENDBRANCH  20  22
ENDBRANCH  15  16
ENDBRANCH   2  14
TORSDOF 5
ENDMDL
MODEL 6
REMARK VINA RESULT:      -7.7      0.191      1.373
REMARK  Name = 
REMARK  5 active torsions:
REMARK  status: ('A' for Active; 'I' for Inactive)
REMARK    1  A    between atoms: C_2  and  C_3
REMARK    2  A    between atoms: C_4  and  C_5
REMARK    3  A    between atoms: C_9  and  N_10
REMARK    4  A    between atoms: N_14  and  C_15
REMARK    5  A    between atoms: C_18  and  N_19
REMARK                            x       y       z     vdW  Elec       q    Type
REMARK                         _______ _______ _______ _____ _____    ______ ____
ROOT
ATOM      1  O   UNL     1       8.093   6.594  18.610  0.00  0.00    +0.000 OA
ATOM      2  C   UNL     1       7.613   7.503  17.947  0.00  0.00    +0.000 C 
ATOM      3  N   UNL     1       6.416   7.485  17.257  0.00  0.00    +0.000 N 
ATOM      4  H   UNL     1       6.219   8.254  16.629  0.00  0.00    +0.000 HD
ENDROOT
BRANCH   3   5
ATOM      5  C   UNL     1       5.422   6.485  17.336  0.00  0.00    +0.000 A 
ATOM      6  C   UNL     1       4.172   6.700  17.924  0.00  0.00    +0.000 A 
ATOM      7  C   UNL     1       3.200   5.695  17.927  0.00  0.00    +0.000 A 
ATOM      8  C   UNL     1       3.483   4.457  17.346  0.00  0.00    +0.000 A 
ATOM      9  C   UNL     1       4.735   4.221  16.763  0.00  0.00    +0.000 A 
ATOM     10  C   UNL     1       5.696   5.239  16.752  0.00  0.00    +0.000 A 
BRANCH   8  11
ATOM     11  N   UNL     1       2.456   3.409  17.330  0.00  0.00    +0.000 N 
ATOM     12  O   UNL     1       2.832   2.229  17.386  0.00  0.00    +0.000 OA
ATOM     13  O   UNL     1       1.271   3.766  17.270  0.00  0.00    +0.000 OA
ENDBRANCH   8  11
ENDBRANCH   3   5
BRANCH   2  14
ATOM     14  C   UNL     1       8.317   8.807  17.814  0.00  0.00    +0.000 C 
ATOM     15  C   UNL     1       8.841   9.403  18.898  0.00  0.00    +0.000 C 
BRANCH  15  16
ATOM     16  C   UNL     1       9.470  10.733  18.868  0.00  0.00    +0.000 A 
ATOM     17  C   UNL     1      10.105  11.175  17.699  0.00  0.00    +0.000 A 
ATOM     18  C   UNL     1      10.726  12.428  17.651  0.00  0.00    +0.000 A 
ATOM     19  C   UNL     1      10.730  13.254  18.775  0.00  0.00    +0.000 A 
ATOM     20  C   UNL     1      10.117  12.808  19.951  0.00  0.00    +0.000 A 
ATOM     21  C   UNL     1       9.504  11.550  20.005  0.00  0.00    +0.000 A 
BRANCH  20  22
ATOM     22  N   UNL     1      10.111  13.662  21.146  0.00  0.00    +0.000 N 
ATOM     23  O   UNL     1      10.744  14.724  21.098  0.00  0.00    +0.000 OA
ATOM     24  O   UNL     1       9.462  13.272  22.127  0.00  0.00    +0.000 OA
ENDBRANCH  20  22
ENDBRANCH  15  16
ENDBRANCH   2  14
TORSDOF 5
ENDMDL
MODEL 7
REMARK VINA RESULT:      -7.6      2.034      2.265
REMARK  Name = 
REMARK  5 active torsions:
REMARK  status: ('A' for Active; 'I' for Inactive)
REMARK    1  A    between atoms: C_2  and  C_3
REMARK    2  A    between atoms: C_4  and  C_5
REMARK    3  A    between atoms: C_9  and  N_10
REMARK    4  A    between atoms: N_14  and  C_15
REMARK    5  A    between atoms: C_18  and  N_19
REMARK                            x       y       z     vdW  Elec       q    Type
REMARK                         _______ _______ _______ _____ _____    ______ ____
ROOT
ATOM      1  O   UNL     1       8.160   6.762  18.750  0.00  0.00    +0.000 OA
ATOM      2  C   UNL     1       7.659   7.414  17.845  0.00  0.00    +0.000 C 
ATOM      3  N   UNL     1       6.582   7.051  17.059  0.00  0.00    +0.000 N 
ATOM      4  H   UNL     1       6.373   7.621  16.249  0.00  0.00    +0.000 HD
ENDROOT
BRANCH   3   5
ATOM      5  C   UNL     1       5.730   5.945  17.271  0.00  0.00    +0.000 A 
ATOM      6  C   UNL     1       5.214   5.170  16.227  0.00  0.00    +0.000 A 
ATOM      7  C   UNL     1       4.420   4.050  16.491  0.00  0.00    +0.000 A 
ATOM      8  C   UNL     1       4.129   3.706  17.813  0.00  0.00    +0.000 A 
ATOM      9  C   UNL     1       4.627   4.477  18.870  0.00  0.00    +0.000 A 
ATOM     10  C   UNL     1       5.434   5.588  18.594  0.00  0.00    +0.000 A 
BRANCH   8  11
ATOM     11  N   UNL     1       3.313   2.518  18.091  0.00  0.00    +0.000 N 
ATOM     12  O   UNL     1       3.625   1.816  19.064  0.00  0.00    +0.000 OA
ATOM     13  O   UNL     1       2.354   2.290  17.340  0.00  0.00    +0.000 OA
ENDBRANCH   8  11
ENDBRANCH   3   5
BRANCH   2  14
ATOM     14  C   UNL     1       8.194   8.753  17.479  0.00  0.00    +0.000 C 
ATOM     15  C   UNL     1       8.700   9.558  18.428  0.00  0.00    +0.000 C 
BRANCH  15  16
ATOM     16  C   UNL     1       9.162  10.930  18.166  0.00  0.00    +0.000 A 
ATOM     17  C   UNL     1      10.535  11.190  18.048  0.00  0.00    +0.000 A 
ATOM     18  C   UNL     1      11.002  12.488  17.817  0.00  0.00    +0.000 A 
ATOM     19  C   UNL     1      10.102  13.549  17.708  0.00  0.00    +0.000 A 
ATOM     20  C   UNL     1       8.732  13.299  17.847  0.00  0.00    +0.000 A 
ATOM     21  C   UNL     1       8.264  12.001  18.090  0.00  0.00    +0.000 A 
BRANCH  20  22
ATOM     22  N   UNL     1       7.769  14.402  17.737  0.00  0.00    +0.000 N 
ATOM     23  O   UNL     1       8.210  15.557  17.777  0.00  0.00    +0.000 OA
ATOM     24  O   UNL     1       6.573  14.108  17.600  0.00  0.00    +0.000 OA
ENDBRANCH  20  22
ENDBRANCH  15  16
ENDBRANCH   2  14
TORSDOF 5
ENDMDL
MODEL 8
REMARK VINA RESULT:      -7.6      6.202      8.966
REMARK  Name = 
REMARK  5 active torsions:
REMARK  status: ('A' for Active; 'I' for Inactive)
REMARK    1  A    between atoms: C_2  and  C_3
REMARK    2  A    between atoms: C_4  and  C_5
REMARK    3  A    between atoms: C_9  and  N_10
REMARK    4  A    between atoms: N_14  and  C_15
REMARK    5  A    between atoms: C_18  and  N_19
REMARK                            x       y       z     vdW  Elec       q    Type
REMARK                         _______ _______ _______ _____ _____    ______ ____
ROOT
ATOM      1  O   UNL     1       4.664   4.070  18.993  0.00  0.00    +0.000 OA
ATOM      2  C   UNL     1       4.273   4.512  17.922  0.00  0.00    +0.000 C 
ATOM      3  N   UNL     1       3.264   5.436  17.724  0.00  0.00    +0.000 N 
ATOM      4  H   UNL     1       2.947   5.595  16.776  0.00  0.00    +0.000 HD
ENDROOT
BRANCH   3   5
ATOM      5  C   UNL     1       2.618   6.193  18.726  0.00  0.00    +0.000 A 
ATOM      6  C   UNL     1       2.188   5.643  19.937  0.00  0.00    +0.000 A 
ATOM      7  C   UNL     1       1.604   6.446  20.921  0.00  0.00    +0.000 A 
ATOM      8  C   UNL     1       1.439   7.814  20.689  0.00  0.00    +0.000 A 
ATOM      9  C   UNL     1       1.854   8.379  19.477  0.00  0.00    +0.000 A 
ATOM     10  C   UNL     1       2.451   7.568  18.504  0.00  0.00    +0.000 A 
BRANCH   8  11
ATOM     11  N   UNL     1       0.846   8.660  21.730  0.00  0.00    +0.000 N 
ATOM     12  O   UNL     1       1.612   9.326  22.441  0.00  0.00    +0.000 OA
ATOM     13  O   UNL     1      -0.389   8.664  21.834  0.00  0.00    +0.000 OA
ENDBRANCH   8  11
ENDBRANCH   3   5
BRANCH   2  14
ATOM     14  C   UNL     1       4.890   4.073  16.642  0.00  0.00    +0.000 C 
ATOM     15  C   UNL     1       5.502   4.966  15.847  0.00  0.00    +0.000 C 
BRANCH  15  16
ATOM     16  C   UNL     1       6.055   4.632  14.525  0.00  0.00    +0.000 A 
ATOM     17  C   UNL     1       7.232   5.255  14.086  0.00  0.00    +0.000 A 
ATOM     18  C   UNL     1       7.767   4.968  12.826  0.00  0.00    +0.000 A 
ATOM     19  C   UNL     1       7.129   4.059  11.981  0.00  0.00    +0.000 A 
ATOM     20  C   UNL     1       5.943   3.451  12.406  0.00  0.00    +0.000 A 
ATOM     21  C   UNL     1       5.398   3.745  13.663  0.00  0.00    +0.000 A 
BRANCH  20  22
ATOM     22  N   UNL     1       5.255   2.493  11.532  0.00  0.00    +0.000 N 
ATOM     23  O   UNL     1       4.130   2.797  11.116  0.00  0.00    +0.000 OA
ATOM     24  O   UNL     1       5.848   1.440  11.255  0.00  0.00    +0.000 OA
ENDBRANCH  20  22
ENDBRANCH  15  16
ENDBRANCH   2  14
TORSDOF 5
ENDMDL
MODEL 9
REMARK VINA RESULT:      -7.6      1.310      1.464
REMARK  Name = 
REMARK  5 active torsions:
REMARK  status: ('A' for Active; 'I' for Inactive)
REMARK    1  A    between atoms: C_2  and  C_3
REMARK    2  A    between atoms: C_4  and  C_5
REMARK    3  A    between atoms: C_9  and  N_10
REMARK    4  A    between atoms: N_14  and  C_15
REMARK    5  A    between atoms: C_18  and  N_19
REMARK                            x       y       z     vdW  Elec       q    Type
REMARK                         _______ _______ _______ _____ _____    ______ ____
ROOT
ATOM      1  O   UNL     1       7.738   6.364  16.581  0.00  0.00    +0.000 OA
ATOM      2  C   UNL     1       7.154   7.204  17.252  0.00  0.00    +0.000 C 
ATOM      3  N   UNL     1       5.928   7.062  17.874  0.00  0.00    +0.000 N 
ATOM      4  H   UNL     1       5.498   7.890  18.268  0.00  0.00    +0.000 HD
ENDROOT
BRANCH   3   5
ATOM      5  C   UNL     1       5.199   5.862  18.018  0.00  0.00    +0.000 A 
ATOM      6  C   UNL     1       4.214   5.456  17.112  0.00  0.00    +0.000 A 
ATOM      7  C   UNL     1       3.559   4.230  17.267  0.00  0.00    +0.000 A 
ATOM      8  C   UNL     1       3.886   3.404  18.345  0.00  0.00    +0.000 A 
ATOM      9  C   UNL     1       4.861   3.800  19.268  0.00  0.00    +0.000 A 
ATOM     10  C   UNL     1       5.521   5.023  19.095  0.00  0.00    +0.000 A 
BRANCH   8  11
ATOM     11  N   UNL     1       3.214   2.108  18.495  0.00  0.00    +0.000 N 
ATOM     12  O   UNL     1       1.981   2.107  18.620  0.00  0.00    +0.000 OA
ATOM     13  O   UNL     1       3.919   1.089  18.483  0.00  0.00    +0.000 OA
ENDBRANCH   8  11
ENDBRANCH   3   5
BRANCH   2  14
ATOM     14  C   UNL     1       7.748   8.547  17.483  0.00  0.00    +0.000 C 
ATOM     15  C   UNL     1       8.569   8.751  18.526  0.00  0.00    +0.000 C 
BRANCH  15  16
ATOM     16  C   UNL     1       9.124  10.067  18.878  0.00  0.00    +0.000 A 
ATOM     17  C   UNL     1       9.883  10.776  17.936  0.00  0.00    +0.000 A 
ATOM     18  C   UNL     1      10.437  12.021  18.252  0.00  0.00    +0.000 A 
ATOM     19  C   UNL     1      10.247  12.573  19.519  0.00  0.00    +0.000 A 
ATOM     20  C   UNL     1       9.509  11.860  20.470  0.00  0.00    +0.000 A 
ATOM     21  C   UNL     1       8.963  10.608  20.160  0.00  0.00    +0.000 A 
BRANCH  20  22
ATOM     22  N   UNL     1       9.299  12.423  21.810  0.00  0.00    +0.000 N 
ATOM     23  O   UNL     1       8.646  11.753  22.621  0.00  0.00    +0.000 OA
ATOM     24  O   UNL     1       9.798  13.531  22.052  0.00  0.00    +0.000 OA
ENDBRANCH  20  22
ENDBRANCH  15  16
ENDBRANCH   2  14
TORSDOF 5
ENDMDL
