MODEL 1
REMARK VINA RESULT:      -8.2      0.000      0.000
REMARK  Name = 
REMARK  1 active torsions:
REMARK  status: ('A' for Active; 'I' for Inactive)
REMARK    1  A    between atoms: C_11  and  C_12
REMARK                            x       y       z     vdW  Elec       q    Type
REMARK                         _______ _______ _______ _____ _____    ______ ____
ROOT
ATOM      1  F   UNL     1       1.854   3.808  21.668  0.00  0.00    +0.000 F 
ATOM      2  C   UNL     1       2.323   4.605  20.698  0.00  0.00    +0.000 A 
ATOM      3  C   UNL     1       3.415   4.192  19.936  0.00  0.00    +0.000 A 
ATOM      4  C   UNL     1       3.919   5.014  18.920  0.00  0.00    +0.000 A 
ATOM      5  C   UNL     1       3.310   6.243  18.674  0.00  0.00    +0.000 A 
ATOM      6  C   UNL     1       2.223   6.643  19.459  0.00  0.00    +0.000 A 
ATOM      7  C   UNL     1       1.715   5.834  20.471  0.00  0.00    +0.000 A 
ATOM      8  C   UNL     1       1.697   7.987  19.078  0.00  0.00    +0.000 C 
ATOM      9  C   UNL     1       2.653   8.443  17.969  0.00  0.00    +0.000 C 
ATOM     10  C   UNL     1       3.615   7.297  17.694  0.00  0.00    +0.000 C 
ATOM     11  C   UNL     1       4.499   7.354  16.685  0.00  0.00    +0.000 C 
ENDROOT
BRANCH  11  12
ATOM     12  C   UNL     1       5.422   6.285  16.276  0.00  0.00    +0.000 A 
ATOM     13  C   UNL     1       5.107   5.585  15.104  0.00  0.00    +0.000 A 
ATOM     14  C   UNL     1       5.867   4.489  14.722  0.00  0.00    +0.000 A 
ATOM     15  C   UNL     1       6.894   4.040  15.554  0.00  0.00    +0.000 A 
ATOM     16  C   UNL     1       7.208   4.685  16.741  0.00  0.00    +0.000 A 
ATOM     17  N   UNL     1       8.131   4.133  17.548  0.00  0.00    +0.000 NA
ATOM     18  C   UNL     1       8.451   4.782  18.687  0.00  0.00    +0.000 A 
ATOM     19  C   UNL     1       7.959   6.025  19.024  0.00  0.00    +0.000 A 
ATOM     20  C   UNL     1       6.987   6.580  18.202  0.00  0.00    +0.000 A 
ATOM     21  C   UNL     1       6.526   5.878  17.069  0.00  0.00    +0.000 A 
ENDBRANCH  11  12
TORSDOF 1
ENDMDL
MODEL 2
REMARK VINA RESULT:      -7.7      1.854      3.660
REMARK  Name = 
REMARK  1 active torsions:
REMARK  status: ('A' for Active; 'I' for Inactive)
REMARK    1  A    between atoms: C_11  and  C_12
REMARK                            x       y       z     vdW  Elec       q    Type
REMARK                         _______ _______ _______ _____ _____    ______ ____
ROOT
ATOM      1  F   UNL     1       0.687   7.574  21.196  0.00  0.00    +0.000 F 
ATOM      2  C   UNL     1       1.336   6.590  20.559  0.00  0.00    +0.000 A 
ATOM      3  C   UNL     1       2.565   6.855  19.957  0.00  0.00    +0.000 A 
ATOM      4  C   UNL     1       3.256   5.839  19.284  0.00  0.00    +0.000 A 
ATOM      5  C   UNL     1       2.706   4.560  19.235  0.00  0.00    +0.000 A 
ATOM      6  C   UNL     1       1.466   4.320  19.836  0.00  0.00    +0.000 A 
ATOM      7  C   UNL     1       0.771   5.322  20.506  0.00  0.00    +0.000 A 
ATOM      8  C   UNL     1       1.012   2.906  19.681  0.00  0.00    +0.000 C 
ATOM      9  C   UNL     1       2.110   2.270  18.820  0.00  0.00    +0.000 C 
ATOM     10  C   UNL     1       3.192   3.319  18.612  0.00  0.00    +0.000 C 
ATOM     11  C   UNL     1       4.345   3.019  17.994  0.00  0.00    +0.000 C 
ENDROOT
BRANCH  11  12
ATOM     12  C   UNL     1       5.490   3.921  17.803  0.00  0.00    +0.000 A 
ATOM     13  C   UNL     1       5.947   4.617  18.930  0.00  0.00    +0.000 A 
ATOM     14  C   UNL     1       6.946   5.573  18.800  0.00  0.00    +0.000 A 
ATOM     15  C   UNL     1       7.431   5.892  17.531  0.00  0.00    +0.000 A 
ATOM     16  C   UNL     1       6.974   5.251  16.390  0.00  0.00    +0.000 A 
ATOM     17  N   UNL     1       7.401   5.687  15.192  0.00  0.00    +0.000 NA
ATOM     18  C   UNL     1       6.973   5.039  14.089  0.00  0.00    +0.000 A 
ATOM     19  C   UNL     1       6.201   3.897  14.122  0.00  0.00    +0.000 A 
ATOM     20  C   UNL     1       5.741   3.465  15.359  0.00  0.00    +0.000 A 
ATOM     21  C   UNL     1       6.056   4.186  16.529  0.00  0.00    +0.000 A 
ENDBRANCH  11  12
TORSDOF 1
ENDMDL
MODEL 3
REMARK VINA RESULT:      -7.7      1.788      3.737
REMARK  Name = 
REMARK  1 active torsions:
REMARK  status: ('A' for Active; 'I' for Inactive)
REMARK    1  A    between atoms: C_11  and  C_12
REMARK                            x       y       z     vdW  Elec       q    Type
REMARK                         _______ _______ _______ _____ _____    ______ ____
ROOT
ATOM      1  F   UNL     1       0.588   8.387  20.579  0.00  0.00    +0.000 F 
ATOM      2  C   UNL     1       1.386   7.337  20.338  0.00  0.00    +0.000 A 
ATOM      3  C   UNL     1       2.527   7.507  19.556  0.00  0.00    +0.000 A 
ATOM      4  C   UNL     1       3.371   6.420  19.292  0.00  0.00    +0.000 A 
ATOM      5  C   UNL     1       3.061   5.172  19.830  0.00  0.00    +0.000 A 
ATOM      6  C   UNL     1       1.904   5.023  20.602  0.00  0.00    +0.000 A 
ATOM      7  C   UNL     1       1.060   6.096  20.870  0.00  0.00    +0.000 A 
ATOM      8  C   UNL     1       1.711   3.625  21.089  0.00  0.00    +0.000 C 
ATOM      9  C   UNL     1       2.879   2.861  20.456  0.00  0.00    +0.000 C 
ATOM     10  C   UNL     1       3.746   3.874  19.724  0.00  0.00    +0.000 C 
ATOM     11  C   UNL     1       4.915   3.521  19.167  0.00  0.00    +0.000 C 
ENDROOT
BRANCH  11  12
ATOM     12  C   UNL     1       5.870   4.421  18.504  0.00  0.00    +0.000 A 
ATOM     13  C   UNL     1       6.612   5.280  19.326  0.00  0.00    +0.000 A 
ATOM     14  C   UNL     1       7.444   6.237  18.762  0.00  0.00    +0.000 A 
ATOM     15  C   UNL     1       7.475   6.390  17.375  0.00  0.00    +0.000 A 
ATOM     16  C   UNL     1       6.724   5.583  16.533  0.00  0.00    +0.000 A 
ATOM     17  N   UNL     1       6.714   5.861  15.217  0.00  0.00    +0.000 NA
ATOM     18  C   UNL     1       6.004   5.053  14.402  0.00  0.00    +0.000 A 
ATOM     19  C   UNL     1       5.368   3.905  14.825  0.00  0.00    +0.000 A 
ATOM     20  C   UNL     1       5.360   3.636  16.188  0.00  0.00    +0.000 A 
ATOM     21  C   UNL     1       5.979   4.522  17.093  0.00  0.00    +0.000 A 
ENDBRANCH  11  12
TORSDOF 1
ENDMDL
MODEL 4
REMARK VINA RESULT:      -7.6      1.704      2.885
REMARK  Name = 
REMARK  1 active torsions:
REMARK  status: ('A' for Active; 'I' for Inactive)
REMARK    1  A    between atoms: C_11  and  C_12
REMARK                            x       y       z     vdW  Elec       q    Type
REMARK                         _______ _______ _______ _____ _____    ______ ____
ROOT
ATOM      1  F   UNL     1       0.809   7.314  21.245  0.00  0.00    +0.000 F 
ATOM      2  C   UNL     1       1.419   6.366  20.520  0.00  0.00    +0.000 A 
ATOM      3  C   UNL     1       2.322   6.736  19.525  0.00  0.00    +0.000 A 
ATOM      4  C   UNL     1       2.967   5.758  18.756  0.00  0.00    +0.000 A 
ATOM      5  C   UNL     1       2.702   4.413  19.006  0.00  0.00    +0.000 A 
ATOM      6  C   UNL     1       1.783   4.065  20.001  0.00  0.00    +0.000 A 
ATOM      7  C   UNL     1       1.138   5.028  20.770  0.00  0.00    +0.000 A 
ATOM      8  C   UNL     1       1.604   2.589  20.132  0.00  0.00    +0.000 C 
ATOM      9  C   UNL     1       2.491   2.021  19.018  0.00  0.00    +0.000 C 
ATOM     10  C   UNL     1       3.218   3.190  18.371  0.00  0.00    +0.000 C 
ATOM     11  C   UNL     1       4.161   2.995  17.437  0.00  0.00    +0.000 C 
ENDROOT
BRANCH  11  12
ATOM     12  C   UNL     1       4.982   4.035  16.798  0.00  0.00    +0.000 A 
ATOM     13  C   UNL     1       4.900   4.142  15.403  0.00  0.00    +0.000 A 
ATOM     14  C   UNL     1       5.733   5.020  14.723  0.00  0.00    +0.000 A 
ATOM     15  C   UNL     1       6.704   5.733  15.429  0.00  0.00    +0.000 A 
ATOM     16  C   UNL     1       6.838   5.621  16.804  0.00  0.00    +0.000 A 
ATOM     17  N   UNL     1       7.867   6.248  17.403  0.00  0.00    +0.000 NA
ATOM     18  C   UNL     1       7.973   6.157  18.745  0.00  0.00    +0.000 A 
ATOM     19  C   UNL     1       7.036   5.542  19.548  0.00  0.00    +0.000 A 
ATOM     20  C   UNL     1       5.989   4.875  18.924  0.00  0.00    +0.000 A 
ATOM     21  C   UNL     1       5.908   4.832  17.517  0.00  0.00    +0.000 A 
ENDBRANCH  11  12
TORSDOF 1
ENDMDL
MODEL 5
REMARK VINA RESULT:      -7.6      2.219      3.523
REMARK  Name = 
REMARK  1 active torsions:
REMARK  status: ('A' for Active; 'I' for Inactive)
REMARK    1  A    between atoms: C_11  and  C_12
REMARK                            x       y       z     vdW  Elec       q    Type
REMARK                         _______ _______ _______ _____ _____    ______ ____
ROOT
ATOM      1  F   UNL     1      -0.222   9.201  23.212  0.00  0.00    +0.000 F 
ATOM      2  C   UNL     1       0.373   9.039  22.022  0.00  0.00    +0.000 A 
ATOM      3  C   UNL     1       1.108   7.881  21.773  0.00  0.00    +0.000 A 
ATOM      4  C   UNL     1       1.739   7.697  20.536  0.00  0.00    +0.000 A 
ATOM      5  C   UNL     1       1.614   8.680  19.556  0.00  0.00    +0.000 A 
ATOM      6  C   UNL     1       0.883   9.840  19.833  0.00  0.00    +0.000 A 
ATOM      7  C   UNL     1       0.253  10.032  21.058  0.00  0.00    +0.000 A 
ATOM      8  C   UNL     1       0.859  10.797  18.687  0.00  0.00    +0.000 C 
ATOM      9  C   UNL     1       1.751  10.121  17.639  0.00  0.00    +0.000 C 
ATOM     10  C   UNL     1       2.157   8.762  18.191  0.00  0.00    +0.000 C 
ATOM     11  C   UNL     1       2.845   7.883  17.446  0.00  0.00    +0.000 C 
ENDROOT
BRANCH  11  12
ATOM     12  C   UNL     1       3.226   6.518  17.841  0.00  0.00    +0.000 A 
ATOM     13  C   UNL     1       2.191   5.657  18.230  0.00  0.00    +0.000 A 
ATOM     14  C   UNL     1       2.487   4.395  18.726  0.00  0.00    +0.000 A 
ATOM     15  C   UNL     1       3.819   4.023  18.911  0.00  0.00    +0.000 A 
ATOM     16  C   UNL     1       4.868   4.866  18.573  0.00  0.00    +0.000 A 
ATOM     17  N   UNL     1       6.121   4.490  18.883  0.00  0.00    +0.000 NA
ATOM     18  C   UNL     1       7.137   5.303  18.526  0.00  0.00    +0.000 A 
ATOM     19  C   UNL     1       6.973   6.448  17.775  0.00  0.00    +0.000 A 
ATOM     20  C   UNL     1       5.676   6.846  17.479  0.00  0.00    +0.000 A 
ATOM     21  C   UNL     1       4.576   6.097  17.944  0.00  0.00    +0.000 A 
ENDBRANCH  11  12
TORSDOF 1
ENDMDL
MODEL 6
REMARK VINA RESULT:      -7.5      2.781      4.262
REMARK  Name = 
REMARK  1 active torsions:
REMARK  status: ('A' for Active; 'I' for Inactive)
REMARK    1  A    between atoms: C_11  and  C_12
REMARK                            x       y       z     vdW  Elec       q    Type
REMARK                         _______ _______ _______ _____ _____    ______ ____
ROOT
ATOM      1  F   UNL     1      -0.615   8.938  22.752  0.00  0.00    +0.000 F 
ATOM      2  C   UNL     1       0.161   8.725  21.680  0.00  0.00    +0.000 A 
ATOM      3  C   UNL     1       1.070   7.668  21.689  0.00  0.00    +0.000 A 
ATOM      4  C   UNL     1       1.890   7.432  20.578  0.00  0.00    +0.000 A 
ATOM      5  C   UNL     1       1.778   8.260  19.462  0.00  0.00    +0.000 A 
ATOM      6  C   UNL     1       0.868   9.322  19.480  0.00  0.00    +0.000 A 
ATOM      7  C   UNL     1       0.049   9.564  20.578  0.00  0.00    +0.000 A 
ATOM      8  C   UNL     1       0.882  10.117  18.217  0.00  0.00    +0.000 C 
ATOM      9  C   UNL     1       1.996   9.461  17.393  0.00  0.00    +0.000 C 
ATOM     10  C   UNL     1       2.494   8.255  18.177  0.00  0.00    +0.000 C 
ATOM     11  C   UNL     1       3.392   7.406  17.654  0.00  0.00    +0.000 C 
ENDROOT
BRANCH  11  12
ATOM     12  C   UNL     1       3.890   6.172  18.281  0.00  0.00    +0.000 A 
ATOM     13  C   UNL     1       5.202   6.192  18.773  0.00  0.00    +0.000 A 
ATOM     14  C   UNL     1       5.776   5.031  19.270  0.00  0.00    +0.000 A 
ATOM     15  C   UNL     1       5.069   3.829  19.200  0.00  0.00    +0.000 A 
ATOM     16  C   UNL     1       3.784   3.766  18.684  0.00  0.00    +0.000 A 
ATOM     17  N   UNL     1       3.207   2.559  18.542  0.00  0.00    +0.000 NA
ATOM     18  C   UNL     1       1.946   2.509  18.065  0.00  0.00    +0.000 A 
ATOM     19  C   UNL     1       1.179   3.626  17.807  0.00  0.00    +0.000 A 
ATOM     20  C   UNL     1       1.788   4.868  17.930  0.00  0.00    +0.000 A 
ATOM     21  C   UNL     1       3.144   4.965  18.300  0.00  0.00    +0.000 A 
ENDBRANCH  11  12
TORSDOF 1
ENDMDL
MODEL 7
REMARK VINA RESULT:      -7.4      2.864      5.784
REMARK  Name = 
REMARK  1 active torsions:
REMARK  status: ('A' for Active; 'I' for Inactive)
REMARK    1  A    between atoms: C_11  and  C_12
REMARK                            x       y       z     vdW  Elec       q    Type
REMARK                         _______ _______ _______ _____ _____    ______ ____
ROOT
ATOM      1  F   UNL     1       8.815   6.751  19.046  0.00  0.00    +0.000 F 
ATOM      2  C   UNL     1       7.730   6.142  18.548  0.00  0.00    +0.000 A 
ATOM      3  C   UNL     1       6.744   5.676  19.417  0.00  0.00    +0.000 A 
ATOM      4  C   UNL     1       5.605   5.034  18.913  0.00  0.00    +0.000 A 
ATOM      5  C   UNL     1       5.465   4.879  17.535  0.00  0.00    +0.000 A 
ATOM      6  C   UNL     1       6.472   5.344  16.684  0.00  0.00    +0.000 A 
ATOM      7  C   UNL     1       7.607   5.981  17.173  0.00  0.00    +0.000 A 
ATOM      8  C   UNL     1       6.176   5.087  15.243  0.00  0.00    +0.000 C 
ATOM      9  C   UNL     1       4.852   4.314  15.282  0.00  0.00    +0.000 C 
ATOM     10  C   UNL     1       4.399   4.257  16.734  0.00  0.00    +0.000 C 
ATOM     11  C   UNL     1       3.206   3.745  17.073  0.00  0.00    +0.000 C 
ENDROOT
BRANCH  11  12
ATOM     12  C   UNL     1       2.629   3.705  18.425  0.00  0.00    +0.000 A 
ATOM     13  C   UNL     1       2.265   2.447  18.924  0.00  0.00    +0.000 A 
ATOM     14  C   UNL     1       1.608   2.346  20.143  0.00  0.00    +0.000 A 
ATOM     15  C   UNL     1       1.240   3.507  20.824  0.00  0.00    +0.000 A 
ATOM     16  C   UNL     1       1.549   4.769  20.340  0.00  0.00    +0.000 A 
ATOM     17  N   UNL     1       1.066   5.843  20.988  0.00  0.00    +0.000 NA
ATOM     18  C   UNL     1       1.395   7.067  20.526  0.00  0.00    +0.000 A 
ATOM     19  C   UNL     1       2.276   7.283  19.487  0.00  0.00    +0.000 A 
ATOM     20  C   UNL     1       2.753   6.171  18.805  0.00  0.00    +0.000 A 
ATOM     21  C   UNL     1       2.334   4.876  19.170  0.00  0.00    +0.000 A 
ENDBRANCH  11  12
TORSDOF 1
ENDMDL
MODEL 8
REMARK VINA RESULT:      -7.4      2.139      3.297
REMARK  Name = 
REMARK  1 active torsions:
REMARK  status: ('A' for Active; 'I' for Inactive)
REMARK    1  A    between atoms: C_11  and  C_12
REMARK                            x       y       z     vdW  Elec       q    Type
REMARK                         _______ _______ _______ _____ _____    ______ ____
ROOT
ATOM      1  F   UNL     1       1.495  11.051  18.103  0.00  0.00    +0.000 F 
ATOM      2  C   UNL     1       1.772   9.783  18.437  0.00  0.00    +0.000 A 
ATOM      3  C   UNL     1       2.567   9.009  17.594  0.00  0.00    +0.000 A 
ATOM      4  C   UNL     1       2.864   7.680  17.926  0.00  0.00    +0.000 A 
ATOM      5  C   UNL     1       2.365   7.148  19.113  0.00  0.00    +0.000 A 
ATOM      6  C   UNL     1       1.558   7.940  19.938  0.00  0.00    +0.000 A 
ATOM      7  C   UNL     1       1.257   9.260  19.617  0.00  0.00    +0.000 A 
ATOM      8  C   UNL     1       1.094   7.218  21.159  0.00  0.00    +0.000 C 
ATOM      9  C   UNL     1       1.658   5.804  20.974  0.00  0.00    +0.000 C 
ATOM     10  C   UNL     1       2.506   5.811  19.711  0.00  0.00    +0.000 C 
ATOM     11  C   UNL     1       3.231   4.741  19.350  0.00  0.00    +0.000 C 
ENDROOT
BRANCH  11  12
ATOM     12  C   UNL     1       4.143   4.655  18.200  0.00  0.00    +0.000 A 
ATOM     13  C   UNL     1       3.603   4.189  16.993  0.00  0.00    +0.000 A 
ATOM     14  C   UNL     1       4.430   3.971  15.900  0.00  0.00    +0.000 A 
ATOM     15  C   UNL     1       5.809   4.140  16.035  0.00  0.00    +0.000 A 
ATOM     16  C   UNL     1       6.381   4.563  17.226  0.00  0.00    +0.000 A 
ATOM     17  N   UNL     1       7.722   4.594  17.319  0.00  0.00    +0.000 NA
ATOM     18  C   UNL     1       8.269   5.033  18.472  0.00  0.00    +0.000 A 
ATOM     19  C   UNL     1       7.536   5.543  19.523  0.00  0.00    +0.000 A 
ATOM     20  C   UNL     1       6.152   5.485  19.432  0.00  0.00    +0.000 A 
ATOM     21  C   UNL     1       5.534   4.914  18.301  0.00  0.00    +0.000 A 
ENDBRANCH  11  12
TORSDOF 1
ENDMDL
MODEL 9
REMARK VINA RESULT:      -7.2      1.274      1.634
REMARK  Name = 
REMARK  1 active torsions:
REMARK  status: ('A' for Active; 'I' for Inactive)
REMARK    1  A    between atoms: C_11  and  C_12
REMARK                            x       y       z     vdW  Elec       q    Type
REMARK                         _______ _______ _______ _____ _____    ______ ____
ROOT
ATOM      1  F   UNL     1       1.317   1.282  19.771  0.00  0.00    +0.000 F 
ATOM      2  C   UNL     1       1.814   2.500  19.515  0.00  0.00    +0.000 A 
ATOM      3  C   UNL     1       2.926   2.629  18.685  0.00  0.00    +0.000 A 
ATOM      4  C   UNL     1       3.460   3.895  18.410  0.00  0.00    +0.000 A 
ATOM      5  C   UNL     1       2.859   5.022  18.967  0.00  0.00    +0.000 A 
ATOM      6  C   UNL     1       1.750   4.868  19.806  0.00  0.00    +0.000 A 
ATOM      7  C   UNL     1       1.213   3.616  20.086  0.00  0.00    +0.000 A 
ATOM      8  C   UNL     1       1.236   6.168  20.329  0.00  0.00    +0.000 C 
ATOM      9  C   UNL     1       2.223   7.197  19.765  0.00  0.00    +0.000 C 
ATOM     10  C   UNL     1       3.192   6.451  18.859  0.00  0.00    +0.000 C 
ATOM     11  C   UNL     1       4.104   7.105  18.123  0.00  0.00    +0.000 C 
ENDROOT
BRANCH  11  12
ATOM     12  C   UNL     1       5.039   6.504  17.160  0.00  0.00    +0.000 A 
ATOM     13  C   UNL     1       4.626   6.450  15.822  0.00  0.00    +0.000 A 
ATOM     14  C   UNL     1       5.404   5.792  14.879  0.00  0.00    +0.000 A 
ATOM     15  C   UNL     1       6.554   5.117  15.288  0.00  0.00    +0.000 A 
ATOM     16  C   UNL     1       6.972   5.116  16.611  0.00  0.00    +0.000 A 
ATOM     17  N   UNL     1       8.023   4.351  16.953  0.00  0.00    +0.000 NA
ATOM     18  C   UNL     1       8.440   4.378  18.236  0.00  0.00    +0.000 A 
ATOM     19  C   UNL     1       7.912   5.217  19.195  0.00  0.00    +0.000 A 
ATOM     20  C   UNL     1       6.810   5.986  18.844  0.00  0.00    +0.000 A 
ATOM     21  C   UNL     1       6.258   5.894  17.550  0.00  0.00    +0.000 A 
ENDBRANCH  11  12
TORSDOF 1
ENDMDL
