MODEL 1
REMARK VINA RESULT:      -7.8      0.000      0.000
REMARK  Name = 
REMARK  4 active torsions:
REMARK  status: ('A' for Active; 'I' for Inactive)
REMARK    1  A    between atoms: O_1  and  C_2
REMARK    2  A    between atoms: C_2  and  C_3
REMARK    3  A    between atoms: N_6  and  C_7
REMARK    4  A    between atoms: C_7  and  C_8
REMARK                            x       y       z     vdW  Elec       q    Type
REMARK                         _______ _______ _______ _____ _____    ______ ____
ROOT
ATOM      1  C   UNL     1       5.137   3.845  17.193  0.00  0.00    +0.000 A 
ATOM      2  C   UNL     1       4.842   3.805  15.817  0.00  0.00    +0.000 A 
ATOM      3  C   UNL     1       5.517   4.635  14.938  0.00  0.00    +0.000 A 
ATOM      4  F   UNL     1       5.240   4.584  13.629  0.00  0.00    +0.000 F 
ATOM      5  C   UNL     1       6.476   5.523  15.398  0.00  0.00    +0.000 A 
ATOM      6  C   UNL     1       6.748   5.606  16.771  0.00  0.00    +0.000 A 
ATOM      7  C   UNL     1       7.685   6.528  17.258  0.00  0.00    +0.000 A 
ATOM      8  C   UNL     1       7.921   6.620  18.622  0.00  0.00    +0.000 A 
ATOM      9  C   UNL     1       7.220   5.773  19.453  0.00  0.00    +0.000 A 
ATOM     10  N   UNL     1       6.326   4.857  19.017  0.00  0.00    +0.000 NA
ATOM     11  C   UNL     1       6.077   4.765  17.693  0.00  0.00    +0.000 A 
ENDROOT
BRANCH   1  12
ATOM     12  C   UNL     1       4.412   2.897  18.130  0.00  0.00    +0.000 C 
BRANCH  12  16
ATOM     13  C   UNL     1       0.845   3.428  20.519  0.00  0.00    +0.000 C 
ATOM     14  C   UNL     1       0.774   2.586  19.243  0.00  0.00    +0.000 C 
ATOM     15  C   UNL     1       2.161   2.182  18.732  0.00  0.00    +0.000 C 
ATOM     16  N   UNL     1       3.043   3.341  18.515  0.00  0.00    +0.000 NA
ATOM     17  C   UNL     1       3.145   4.179  19.725  0.00  0.00    +0.000 C 
ATOM     18  C   UNL     1       1.782   4.617  20.269  0.00  0.00    +0.000 C 
BRANCH  13  19
ATOM     19  C   UNL     1       1.260   2.580  21.729  0.00  0.00    +0.000 C 
BRANCH  19  20
ATOM     20  O   UNL     1       2.338   3.205  22.413  0.00  0.00    +0.000 OA
ATOM     21  H   UNL     1       2.669   3.915  21.836  0.00  0.00    +0.000 HD
ENDBRANCH  19  20
ENDBRANCH  13  19
ENDBRANCH  12  16
ENDBRANCH   1  12
TORSDOF 4
ENDMDL
MODEL 2
REMARK VINA RESULT:      -7.3      2.158      3.153
REMARK  Name = 
REMARK  4 active torsions:
REMARK  status: ('A' for Active; 'I' for Inactive)
REMARK    1  A    between atoms: O_1  and  C_2
REMARK    2  A    between atoms: C_2  and  C_3
REMARK    3  A    between atoms: N_6  and  C_7
REMARK    4  A    between atoms: C_7  and  C_8
REMARK                            x       y       z     vdW  Elec       q    Type
REMARK                         _______ _______ _______ _____ _____    ______ ____
ROOT
ATOM      1  C   UNL     1       4.708   5.472  17.874  0.00  0.00    +0.000 A 
ATOM      2  C   UNL     1       5.413   5.604  19.085  0.00  0.00    +0.000 A 
ATOM      3  C   UNL     1       6.785   5.414  19.113  0.00  0.00    +0.000 A 
ATOM      4  F   UNL     1       7.452   5.552  20.266  0.00  0.00    +0.000 F 
ATOM      5  C   UNL     1       7.476   5.079  17.960  0.00  0.00    +0.000 A 
ATOM      6  C   UNL     1       6.780   4.900  16.757  0.00  0.00    +0.000 A 
ATOM      7  C   UNL     1       7.459   4.520  15.590  0.00  0.00    +0.000 A 
ATOM      8  C   UNL     1       6.752   4.316  14.414  0.00  0.00    +0.000 A 
ATOM      9  C   UNL     1       5.388   4.516  14.441  0.00  0.00    +0.000 A 
ATOM     10  N   UNL     1       4.705   4.904  15.542  0.00  0.00    +0.000 NA
ATOM     11  C   UNL     1       5.378   5.093  16.697  0.00  0.00    +0.000 A 
ENDROOT
BRANCH   1  12
ATOM     12  C   UNL     1       3.211   5.724  17.863  0.00  0.00    +0.000 C 
BRANCH  12  16
ATOM     13  C   UNL     1       1.767   2.387  20.206  0.00  0.00    +0.000 C 
ATOM     14  C   UNL     1       2.434   2.121  18.854  0.00  0.00    +0.000 C 
ATOM     15  C   UNL     1       3.217   3.334  18.340  0.00  0.00    +0.000 C 
ATOM     16  N   UNL     1       2.387   4.548  18.255  0.00  0.00    +0.000 NA
ATOM     17  C   UNL     1       1.727   4.845  19.542  0.00  0.00    +0.000 C 
ATOM     18  C   UNL     1       0.924   3.664  20.091  0.00  0.00    +0.000 C 
BRANCH  13  19
ATOM     19  C   UNL     1       2.799   2.449  21.340  0.00  0.00    +0.000 C 
BRANCH  19  20
ATOM     20  O   UNL     1       2.272   3.184  22.437  0.00  0.00    +0.000 OA
ATOM     21  H   UNL     1       1.583   3.773  22.081  0.00  0.00    +0.000 HD
ENDBRANCH  19  20
ENDBRANCH  13  19
ENDBRANCH  12  16
ENDBRANCH   1  12
TORSDOF 4
ENDMDL
MODEL 3
REMARK VINA RESULT:      -7.3      2.760      6.020
REMARK  Name = 
REMARK  4 active torsions:
REMARK  status: ('A' for Active; 'I' for Inactive)
REMARK    1  A    between atoms: O_1  and  C_2
REMARK    2  A    between atoms: C_2  and  C_3
REMARK    3  A    between atoms: N_6  and  C_7
REMARK    4  A    between atoms: C_7  and  C_8
REMARK                            x       y       z     vdW  Elec       q    Type
REMARK                         _______ _______ _______ _____ _____    ______ ____
ROOT
ATOM      1  C   UNL     1       3.112   5.461  17.953  0.00  0.00    +0.000 A 
ATOM      2  C   UNL     1       2.943   6.779  18.417  0.00  0.00    +0.000 A 
ATOM      3  C   UNL     1       2.300   7.014  19.621  0.00  0.00    +0.000 A 
ATOM      4  F   UNL     1       2.152   8.269  20.063  0.00  0.00    +0.000 F 
ATOM      5  C   UNL     1       1.804   5.962  20.374  0.00  0.00    +0.000 A 
ATOM      6  C   UNL     1       1.925   4.648  19.902  0.00  0.00    +0.000 A 
ATOM      7  C   UNL     1       1.392   3.576  20.632  0.00  0.00    +0.000 A 
ATOM      8  C   UNL     1       1.493   2.284  20.137  0.00  0.00    +0.000 A 
ATOM      9  C   UNL     1       2.139   2.106  18.933  0.00  0.00    +0.000 A 
ATOM     10  N   UNL     1       2.684   3.114  18.214  0.00  0.00    +0.000 NA
ATOM     11  C   UNL     1       2.583   4.378  18.677  0.00  0.00    +0.000 A 
ENDROOT
BRANCH   1  12
ATOM     12  C   UNL     1       3.854   5.229  16.650  0.00  0.00    +0.000 C 
BRANCH  12  16
ATOM     13  C   UNL     1       7.787   5.742  18.377  0.00  0.00    +0.000 C 
ATOM     14  C   UNL     1       7.121   6.922  17.664  0.00  0.00    +0.000 C 
ATOM     15  C   UNL     1       5.619   6.705  17.454  0.00  0.00    +0.000 C 
ATOM     16  N   UNL     1       5.324   5.456  16.731  0.00  0.00    +0.000 NA
ATOM     17  C   UNL     1       5.944   4.290  17.389  0.00  0.00    +0.000 C 
ATOM     18  C   UNL     1       7.449   4.456  17.612  0.00  0.00    +0.000 C 
BRANCH  13  19
ATOM     19  C   UNL     1       7.389   5.683  19.858  0.00  0.00    +0.000 C 
BRANCH  19  20
ATOM     20  O   UNL     1       8.502   5.280  20.644  0.00  0.00    +0.000 OA
ATOM     21  H   UNL     1       9.000   6.086  20.869  0.00  0.00    +0.000 HD
ENDBRANCH  19  20
ENDBRANCH  13  19
ENDBRANCH  12  16
ENDBRANCH   1  12
TORSDOF 4
ENDMDL
MODEL 4
REMARK VINA RESULT:      -7.3      1.847      2.922
REMARK  Name = 
REMARK  4 active torsions:
REMARK  status: ('A' for Active; 'I' for Inactive)
REMARK    1  A    between atoms: O_1  and  C_2
REMARK    2  A    between atoms: C_2  and  C_3
REMARK    3  A    between atoms: N_6  and  C_7
REMARK    4  A    between atoms: C_7  and  C_8
REMARK                            x       y       z     vdW  Elec       q    Type
REMARK                         _______ _______ _______ _____ _____    ______ ____
ROOT
ATOM      1  C   UNL     1       6.019   4.643  18.177  0.00  0.00    +0.000 A 
ATOM      2  C   UNL     1       6.753   5.609  18.890  0.00  0.00    +0.000 A 
ATOM      3  C   UNL     1       7.542   6.523  18.211  0.00  0.00    +0.000 A 
ATOM      4  F   UNL     1       8.229   7.446  18.894  0.00  0.00    +0.000 F 
ATOM      5  C   UNL     1       7.630   6.491  16.828  0.00  0.00    +0.000 A 
ATOM      6  C   UNL     1       6.939   5.506  16.109  0.00  0.00    +0.000 A 
ATOM      7  C   UNL     1       7.051   5.434  14.713  0.00  0.00    +0.000 A 
ATOM      8  C   UNL     1       6.386   4.435  14.016  0.00  0.00    +0.000 A 
ATOM      9  C   UNL     1       5.618   3.549  14.741  0.00  0.00    +0.000 A 
ATOM     10  N   UNL     1       5.470   3.603  16.084  0.00  0.00    +0.000 NA
ATOM     11  C   UNL     1       6.121   4.562  16.777  0.00  0.00    +0.000 A 
ENDROOT
BRANCH   1  12
ATOM     12  C   UNL     1       5.132   3.678  18.943  0.00  0.00    +0.000 C 
BRANCH  12  16
ATOM     13  C   UNL     1       0.993   3.800  20.194  0.00  0.00    +0.000 C 
ATOM     14  C   UNL     1       1.349   3.187  18.837  0.00  0.00    +0.000 C 
ATOM     15  C   UNL     1       2.843   2.874  18.711  0.00  0.00    +0.000 C 
ATOM     16  N   UNL     1       3.691   4.052  18.962  0.00  0.00    +0.000 NA
ATOM     17  C   UNL     1       3.384   4.672  20.266  0.00  0.00    +0.000 C 
ATOM     18  C   UNL     1       1.902   5.013  20.435  0.00  0.00    +0.000 C 
BRANCH  13  19
ATOM     19  C   UNL     1       1.070   2.758  21.318  0.00  0.00    +0.000 C 
BRANCH  19  20
ATOM     20  O   UNL     1       2.019   3.167  22.295  0.00  0.00    +0.000 OA
ATOM     21  H   UNL     1       2.359   2.359  22.718  0.00  0.00    +0.000 HD
ENDBRANCH  19  20
ENDBRANCH  13  19
ENDBRANCH  12  16
ENDBRANCH   1  12
TORSDOF 4
ENDMDL
MODEL 5
REMARK VINA RESULT:      -7.2      3.327      5.983
REMARK  Name = 
REMARK  4 active torsions:
REMARK  status: ('A' for Active; 'I' for Inactive)
REMARK    1  A    between atoms: O_1  and  C_2
REMARK    2  A    between atoms: C_2  and  C_3
REMARK    3  A    between atoms: N_6  and  C_7
REMARK    4  A    between atoms: C_7  and  C_8
REMARK                            x       y       z     vdW  Elec       q    Type
REMARK                         _______ _______ _______ _____ _____    ______ ____
ROOT
ATOM      1  C   UNL     1       3.011   3.985  18.634  0.00  0.00    +0.000 A 
ATOM      2  C   UNL     1       2.981   2.996  19.635  0.00  0.00    +0.000 A 
ATOM      3  C   UNL     1       2.532   3.309  20.907  0.00  0.00    +0.000 A 
ATOM      4  F   UNL     1       2.495   2.362  21.852  0.00  0.00    +0.000 F 
ATOM      5  C   UNL     1       2.122   4.597  21.216  0.00  0.00    +0.000 A 
ATOM      6  C   UNL     1       2.190   5.601  20.241  0.00  0.00    +0.000 A 
ATOM      7  C   UNL     1       1.818   6.918  20.548  0.00  0.00    +0.000 A 
ATOM      8  C   UNL     1       1.919   7.909  19.582  0.00  0.00    +0.000 A 
ATOM      9  C   UNL     1       2.375   7.544  18.334  0.00  0.00    +0.000 A 
ATOM     10  N   UNL     1       2.720   6.281  17.997  0.00  0.00    +0.000 NA
ATOM     11  C   UNL     1       2.639   5.309  18.930  0.00  0.00    +0.000 A 
ENDROOT
BRANCH   1  12
ATOM     12  C   UNL     1       3.470   3.606  17.238  0.00  0.00    +0.000 C 
BRANCH  12  16
ATOM     13  C   UNL     1       7.244   5.693  16.903  0.00  0.00    +0.000 C 
ATOM     14  C   UNL     1       6.581   5.133  15.641  0.00  0.00    +0.000 C 
ATOM     15  C   UNL     1       5.108   4.775  15.864  0.00  0.00    +0.000 C 
ATOM     16  N   UNL     1       4.918   3.837  16.984  0.00  0.00    +0.000 NA
ATOM     17  C   UNL     1       5.539   4.341  18.225  0.00  0.00    +0.000 C 
ATOM     18  C   UNL     1       7.015   4.704  18.053  0.00  0.00    +0.000 C 
BRANCH  13  19
ATOM     19  C   UNL     1       6.744   7.109  17.219  0.00  0.00    +0.000 C 
BRANCH  19  20
ATOM     20  O   UNL     1       7.831   8.024  17.197  0.00  0.00    +0.000 OA
ATOM     21  H   UNL     1       8.648   7.498  17.257  0.00  0.00    +0.000 HD
ENDBRANCH  19  20
ENDBRANCH  13  19
ENDBRANCH  12  16
ENDBRANCH   1  12
TORSDOF 4
ENDMDL
MODEL 6
REMARK VINA RESULT:      -7.2      2.568      5.619
REMARK  Name = 
REMARK  4 active torsions:
REMARK  status: ('A' for Active; 'I' for Inactive)
REMARK    1  A    between atoms: O_1  and  C_2
REMARK    2  A    between atoms: C_2  and  C_3
REMARK    3  A    between atoms: N_6  and  C_7
REMARK    4  A    between atoms: C_7  and  C_8
REMARK                            x       y       z     vdW  Elec       q    Type
REMARK                         _______ _______ _______ _____ _____    ______ ____
ROOT
ATOM      1  C   UNL     1       3.678   4.290  17.547  0.00  0.00    +0.000 A 
ATOM      2  C   UNL     1       3.823   2.891  17.517  0.00  0.00    +0.000 A 
ATOM      3  C   UNL     1       3.240   2.111  18.501  0.00  0.00    +0.000 A 
ATOM      4  F   UNL     1       3.372   0.780  18.461  0.00  0.00    +0.000 F 
ATOM      5  C   UNL     1       2.521   2.695  19.532  0.00  0.00    +0.000 A 
ATOM      6  C   UNL     1       2.407   4.090  19.599  0.00  0.00    +0.000 A 
ATOM      7  C   UNL     1       1.719   4.699  20.659  0.00  0.00    +0.000 A 
ATOM      8  C   UNL     1       1.640   6.083  20.729  0.00  0.00    +0.000 A 
ATOM      9  C   UNL     1       2.241   6.811  19.725  0.00  0.00    +0.000 A 
ATOM     10  N   UNL     1       2.893   6.257  18.678  0.00  0.00    +0.000 NA
ATOM     11  C   UNL     1       2.989   4.912  18.603  0.00  0.00    +0.000 A 
ENDROOT
BRANCH   1  12
ATOM     12  C   UNL     1       4.294   5.119  16.434  0.00  0.00    +0.000 C 
BRANCH  12  16
ATOM     13  C   UNL     1       8.037   5.893  18.459  0.00  0.00    +0.000 C 
ATOM     14  C   UNL     1       7.369   7.017  17.663  0.00  0.00    +0.000 C 
ATOM     15  C   UNL     1       5.903   6.711  17.338  0.00  0.00    +0.000 C 
ATOM     16  N   UNL     1       5.737   5.431  16.628  0.00  0.00    +0.000 NA
ATOM     17  C   UNL     1       6.364   4.317  17.365  0.00  0.00    +0.000 C 
ATOM     18  C   UNL     1       7.834   4.573  17.704  0.00  0.00    +0.000 C 
BRANCH  13  19
ATOM     19  C   UNL     1       7.523   5.845  19.904  0.00  0.00    +0.000 C 
BRANCH  19  20
ATOM     20  O   UNL     1       8.469   5.186  20.734  0.00  0.00    +0.000 OA
ATOM     21  H   UNL     1       8.091   5.156  21.631  0.00  0.00    +0.000 HD
ENDBRANCH  19  20
ENDBRANCH  13  19
ENDBRANCH  12  16
ENDBRANCH   1  12
TORSDOF 4
ENDMDL
MODEL 7
REMARK VINA RESULT:      -7.1      4.315      5.355
REMARK  Name = 
REMARK  4 active torsions:
REMARK  status: ('A' for Active; 'I' for Inactive)
REMARK    1  A    between atoms: O_1  and  C_2
REMARK    2  A    between atoms: C_2  and  C_3
REMARK    3  A    between atoms: N_6  and  C_7
REMARK    4  A    between atoms: C_7  and  C_8
REMARK                            x       y       z     vdW  Elec       q    Type
REMARK                         _______ _______ _______ _____ _____    ______ ____
ROOT
ATOM      1  C   UNL     1       3.103   6.204  17.945  0.00  0.00    +0.000 A 
ATOM      2  C   UNL     1       1.972   5.399  18.178  0.00  0.00    +0.000 A 
ATOM      3  C   UNL     1       1.987   4.061  17.823  0.00  0.00    +0.000 A 
ATOM      4  F   UNL     1       0.912   3.298  18.058  0.00  0.00    +0.000 F 
ATOM      5  C   UNL     1       3.103   3.501  17.222  0.00  0.00    +0.000 A 
ATOM      6  C   UNL     1       4.219   4.301  16.943  0.00  0.00    +0.000 A 
ATOM      7  C   UNL     1       5.341   3.760  16.298  0.00  0.00    +0.000 A 
ATOM      8  C   UNL     1       6.426   4.571  15.999  0.00  0.00    +0.000 A 
ATOM      9  C   UNL     1       6.358   5.897  16.372  0.00  0.00    +0.000 A 
ATOM     10  N   UNL     1       5.303   6.446  17.014  0.00  0.00    +0.000 NA
ATOM     11  C   UNL     1       4.234   5.672  17.300  0.00  0.00    +0.000 A 
ENDROOT
BRANCH   1  12
ATOM     12  C   UNL     1       3.075   7.658  18.379  0.00  0.00    +0.000 C 
BRANCH  12  16
ATOM     13  C   UNL     1       0.012  10.345  19.829  0.00  0.00    +0.000 C 
ATOM     14  C   UNL     1       0.341   9.082  20.629  0.00  0.00    +0.000 C 
ATOM     15  C   UNL     1       1.674   8.455  20.207  0.00  0.00    +0.000 C 
ATOM     16  N   UNL     1       1.727   8.158  18.765  0.00  0.00    +0.000 NA
ATOM     17  C   UNL     1       1.420   9.353  17.954  0.00  0.00    +0.000 C 
ATOM     18  C   UNL     1       0.091  10.011  18.334  0.00  0.00    +0.000 C 
BRANCH  13  19
ATOM     19  C   UNL     1       0.917  11.518  20.232  0.00  0.00    +0.000 C 
BRANCH  19  20
ATOM     20  O   UNL     1       0.941  11.649  21.647  0.00  0.00    +0.000 OA
ATOM     21  H   UNL     1       0.186  11.141  21.994  0.00  0.00    +0.000 HD
ENDBRANCH  19  20
ENDBRANCH  13  19
ENDBRANCH  12  16
ENDBRANCH   1  12
TORSDOF 4
ENDMDL
MODEL 8
REMARK VINA RESULT:      -7.1      2.951      6.092
REMARK  Name = 
REMARK  4 active torsions:
REMARK  status: ('A' for Active; 'I' for Inactive)
REMARK    1  A    between atoms: O_1  and  C_2
REMARK    2  A    between atoms: C_2  and  C_3
REMARK    3  A    between atoms: N_6  and  C_7
REMARK    4  A    between atoms: C_7  and  C_8
REMARK                            x       y       z     vdW  Elec       q    Type
REMARK                         _______ _______ _______ _____ _____    ______ ____
ROOT
ATOM      1  C   UNL     1       3.036   4.718  17.977  0.00  0.00    +0.000 A 
ATOM      2  C   UNL     1       2.989   6.124  17.957  0.00  0.00    +0.000 A 
ATOM      3  C   UNL     1       2.501   6.818  19.052  0.00  0.00    +0.000 A 
ATOM      4  F   UNL     1       2.470   8.156  19.031  0.00  0.00    +0.000 F 
ATOM      5  C   UNL     1       2.039   6.142  20.169  0.00  0.00    +0.000 A 
ATOM      6  C   UNL     1       2.038   4.741  20.185  0.00  0.00    +0.000 A 
ATOM      7  C   UNL     1       1.536   4.040  21.291  0.00  0.00    +0.000 A 
ATOM      8  C   UNL     1       1.512   2.653  21.280  0.00  0.00    +0.000 A 
ATOM      9  C   UNL     1       2.008   2.012  20.165  0.00  0.00    +0.000 A 
ATOM     10  N   UNL     1       2.519   2.655  19.090  0.00  0.00    +0.000 NA
ATOM     11  C   UNL     1       2.537   4.005  19.082  0.00  0.00    +0.000 A 
ENDROOT
BRANCH   1  12
ATOM     12  C   UNL     1       3.612   3.983  16.781  0.00  0.00    +0.000 C 
BRANCH  12  16
ATOM     13  C   UNL     1       7.524   5.818  16.974  0.00  0.00    +0.000 C 
ATOM     14  C   UNL     1       6.853   5.625  15.612  0.00  0.00    +0.000 C 
ATOM     15  C   UNL     1       5.355   5.328  15.736  0.00  0.00    +0.000 C 
ATOM     16  N   UNL     1       5.078   4.165  16.596  0.00  0.00    +0.000 NA
ATOM     17  C   UNL     1       5.704   4.312  17.925  0.00  0.00    +0.000 C 
ATOM     18  C   UNL     1       7.206   4.601  17.853  0.00  0.00    +0.000 C 
BRANCH  13  19
ATOM     19  C   UNL     1       7.114   7.149  17.619  0.00  0.00    +0.000 C 
BRANCH  19  20
ATOM     20  O   UNL     1       7.880   8.212  17.068  0.00  0.00    +0.000 OA
ATOM     21  H   UNL     1       7.398   9.037  17.252  0.00  0.00    +0.000 HD
ENDBRANCH  19  20
ENDBRANCH  13  19
ENDBRANCH  12  16
ENDBRANCH   1  12
TORSDOF 4
ENDMDL
MODEL 9
REMARK VINA RESULT:      -7.1      2.066      3.227
REMARK  Name = 
REMARK  4 active torsions:
REMARK  status: ('A' for Active; 'I' for Inactive)
REMARK    1  A    between atoms: O_1  and  C_2
REMARK    2  A    between atoms: C_2  and  C_3
REMARK    3  A    between atoms: N_6  and  C_7
REMARK    4  A    between atoms: C_7  and  C_8
REMARK                            x       y       z     vdW  Elec       q    Type
REMARK                         _______ _______ _______ _____ _____    ______ ____
ROOT
ATOM      1  C   UNL     1       4.936   5.534  17.304  0.00  0.00    +0.000 A 
ATOM      2  C   UNL     1       5.779   6.097  18.280  0.00  0.00    +0.000 A 
ATOM      3  C   UNL     1       7.130   6.258  18.021  0.00  0.00    +0.000 A 
ATOM      4  F   UNL     1       7.924   6.805  18.950  0.00  0.00    +0.000 F 
ATOM      5  C   UNL     1       7.671   5.858  16.810  0.00  0.00    +0.000 A 
ATOM      6  C   UNL     1       6.851   5.254  15.846  0.00  0.00    +0.000 A 
ATOM      7  C   UNL     1       7.390   4.805  14.633  0.00  0.00    +0.000 A 
ATOM      8  C   UNL     1       6.573   4.182  13.700  0.00  0.00    +0.000 A 
ATOM      9  C   UNL     1       5.237   4.044  14.010  0.00  0.00    +0.000 A 
ATOM     10  N   UNL     1       4.679   4.484  15.160  0.00  0.00    +0.000 NA
ATOM     11  C   UNL     1       5.465   5.081  16.082  0.00  0.00    +0.000 A 
ENDROOT
BRANCH   1  12
ATOM     12  C   UNL     1       3.452   5.404  17.597  0.00  0.00    +0.000 C 
BRANCH  12  16
ATOM     13  C   UNL     1       1.759   2.215  19.979  0.00  0.00    +0.000 C 
ATOM     14  C   UNL     1       3.263   2.221  19.693  0.00  0.00    +0.000 C 
ATOM     15  C   UNL     1       3.756   3.579  19.183  0.00  0.00    +0.000 C 
ATOM     16  N   UNL     1       3.021   4.034  17.990  0.00  0.00    +0.000 NA
ATOM     17  C   UNL     1       1.564   4.050  18.224  0.00  0.00    +0.000 C 
ATOM     18  C   UNL     1       1.023   2.709  18.727  0.00  0.00    +0.000 C 
BRANCH  13  19
ATOM     19  C   UNL     1       1.423   3.031  21.235  0.00  0.00    +0.000 C 
BRANCH  19  20
ATOM     20  O   UNL     1       2.385   2.777  22.251  0.00  0.00    +0.000 OA
ATOM     21  H   UNL     1       1.921   2.322  22.976  0.00  0.00    +0.000 HD
ENDBRANCH  19  20
ENDBRANCH  13  19
ENDBRANCH  12  16
ENDBRANCH   1  12
TORSDOF 4
ENDMDL
