MODEL 1
REMARK VINA RESULT:      -8.5      0.000      0.000
REMARK  Name = 
REMARK  5 active torsions:
REMARK  status: ('A' for Active; 'I' for Inactive)
REMARK    1  A    between atoms: C_2  and  C_18
REMARK    2  A    between atoms: N_3  and  C_4
REMARK    3  A    between atoms: C_7  and  N_8
REMARK    4  A    between atoms: C_13  and  N_14
REMARK    5  A    between atoms: C_27  and  O_28
REMARK                            x       y       z     vdW  Elec       q    Type
REMARK                         _______ _______ _______ _____ _____    ______ ____
ROOT
ATOM      1  O   UNL     1       1.398   9.314  17.620  0.00  0.00    +0.000 OA
ATOM      2  C   UNL     1       1.442   8.875  18.765  0.00  0.00    +0.000 C 
ATOM      3  N   UNL     1       2.176   7.773  19.164  0.00  0.00    +0.000 N 
ATOM      4  H   UNL     1       2.040   7.479  20.129  0.00  0.00    +0.000 HD
ENDROOT
BRANCH   2   5
ATOM      5  C   UNL     1       0.573   9.525  19.803  0.00  0.00    +0.000 A 
ATOM      6  C   UNL     1       0.612   8.960  21.085  0.00  0.00    +0.000 A 
ATOM      7  C   UNL     1      -0.022   9.579  22.161  0.00  0.00    +0.000 A 
ATOM      8  C   UNL     1      -0.739  10.767  21.978  0.00  0.00    +0.000 A 
ATOM      9  C   UNL     1      -1.283  11.434  23.087  0.00  0.00    +0.000 A 
ATOM     10  C   UNL     1      -2.015  12.608  22.926  0.00  0.00    +0.000 A 
ATOM     11  C   UNL     1      -2.266  13.093  21.650  0.00  0.00    +0.000 A 
ATOM     12  C   UNL     1      -1.726  12.443  20.538  0.00  0.00    +0.000 A 
ATOM     13  C   UNL     1      -0.895  11.306  20.678  0.00  0.00    +0.000 A 
ATOM     14  C   UNL     1      -0.193  10.687  19.605  0.00  0.00    +0.000 A 
BRANCH  14  15
ATOM     15  O   UNL     1      -0.198  11.274  18.356  0.00  0.00    +0.000 OA
ATOM     16  H   UNL     1       0.546  11.901  18.319  0.00  0.00    +0.000 HD
ENDBRANCH  14  15
ENDBRANCH   2   5
BRANCH   3  17
ATOM     17  C   UNL     1       3.008   6.978  18.352  0.00  0.00    +0.000 A 
ATOM     18  C   UNL     1       4.050   7.495  17.592  0.00  0.00    +0.000 A 
ATOM     19  C   UNL     1       4.848   6.656  16.804  0.00  0.00    +0.000 A 
ATOM     20  C   UNL     1       4.649   5.267  16.714  0.00  0.00    +0.000 A 
ATOM     21  C   UNL     1       3.579   4.778  17.483  0.00  0.00    +0.000 A 
ATOM     22  C   UNL     1       2.781   5.604  18.310  0.00  0.00    +0.000 A 
BRANCH  20  23
ATOM     23  N   UNL     1       5.521   4.573  15.899  0.00  0.00    +0.000 N 
ATOM     24  C   UNL     1       6.980   4.567  15.952  0.00  0.00    +0.000 C 
ATOM     25  C   UNL     1       7.402   4.762  14.502  0.00  0.00    +0.000 C 
ATOM     26  C   UNL     1       6.322   4.032  13.723  0.00  0.00    +0.000 C 
ATOM     27  C   UNL     1       5.051   4.268  14.536  0.00  0.00    +0.000 C 
ENDBRANCH  20  23
BRANCH  21  28
ATOM     28  N   UNL     1       3.263   3.368  17.541  0.00  0.00    +0.000 N 
ATOM     29  O   UNL     1       3.980   2.639  18.240  0.00  0.00    +0.000 OA
ATOM     30  O   UNL     1       2.247   2.997  16.930  0.00  0.00    +0.000 OA
ENDBRANCH  21  28
ENDBRANCH   3  17
TORSDOF 5
ENDMDL
MODEL 2
REMARK VINA RESULT:      -8.1      1.023      1.246
REMARK  Name = 
REMARK  5 active torsions:
REMARK  status: ('A' for Active; 'I' for Inactive)
REMARK    1  A    between atoms: C_2  and  C_18
REMARK    2  A    between atoms: N_3  and  C_4
REMARK    3  A    between atoms: C_7  and  N_8
REMARK    4  A    between atoms: C_13  and  N_14
REMARK    5  A    between atoms: C_27  and  O_28
REMARK                            x       y       z     vdW  Elec       q    Type
REMARK                         _______ _______ _______ _____ _____    ______ ____
ROOT
ATOM      1  O   UNL     1       1.662   6.959  21.116  0.00  0.00    +0.000 OA
ATOM      2  C   UNL     1       1.364   7.903  20.392  0.00  0.00    +0.000 C 
ATOM      3  N   UNL     1       1.833   8.095  19.105  0.00  0.00    +0.000 N 
ATOM      4  H   UNL     1       1.564   8.973  18.665  0.00  0.00    +0.000 HD
ENDROOT
BRANCH   2   5
ATOM      5  C   UNL     1       0.489   8.981  20.965  0.00  0.00    +0.000 A 
ATOM      6  C   UNL     1       0.338   8.980  22.359  0.00  0.00    +0.000 A 
ATOM      7  C   UNL     1      -0.313  10.027  23.009  0.00  0.00    +0.000 A 
ATOM      8  C   UNL     1      -0.857  11.091  22.281  0.00  0.00    +0.000 A 
ATOM      9  C   UNL     1      -1.416  12.187  22.955  0.00  0.00    +0.000 A 
ATOM     10  C   UNL     1      -1.980  13.248  22.250  0.00  0.00    +0.000 A 
ATOM     11  C   UNL     1      -2.048  13.194  20.865  0.00  0.00    +0.000 A 
ATOM     12  C   UNL     1      -1.491  12.112  20.181  0.00  0.00    +0.000 A 
ATOM     13  C   UNL     1      -0.823  11.068  20.866  0.00  0.00    +0.000 A 
ATOM     14  C   UNL     1      -0.106  10.018  20.226  0.00  0.00    +0.000 A 
BRANCH  14  15
ATOM     15  O   UNL     1       0.078  10.050  18.859  0.00  0.00    +0.000 OA
ATOM     16  H   UNL     1       0.827   9.466  18.647  0.00  0.00    +0.000 HD
ENDBRANCH  14  15
ENDBRANCH   2   5
BRANCH   3  17
ATOM     17  C   UNL     1       2.706   7.250  18.394  0.00  0.00    +0.000 A 
ATOM     18  C   UNL     1       3.803   7.716  17.679  0.00  0.00    +0.000 A 
ATOM     19  C   UNL     1       4.641   6.829  16.992  0.00  0.00    +0.000 A 
ATOM     20  C   UNL     1       4.431   5.439  16.962  0.00  0.00    +0.000 A 
ATOM     21  C   UNL     1       3.306   5.002  17.683  0.00  0.00    +0.000 A 
ATOM     22  C   UNL     1       2.465   5.878  18.410  0.00  0.00    +0.000 A 
BRANCH  20  23
ATOM     23  N   UNL     1       5.346   4.694  16.245  0.00  0.00    +0.000 N 
ATOM     24  C   UNL     1       6.792   4.635  16.433  0.00  0.00    +0.000 C 
ATOM     25  C   UNL     1       7.353   4.780  15.024  0.00  0.00    +0.000 C 
ATOM     26  C   UNL     1       6.321   4.073  14.163  0.00  0.00    +0.000 C 
ATOM     27  C   UNL     1       4.991   4.374  14.851  0.00  0.00    +0.000 C 
ENDBRANCH  20  23
BRANCH  21  28
ATOM     28  N   UNL     1       2.969   3.600  17.794  0.00  0.00    +0.000 N 
ATOM     29  O   UNL     1       2.157   3.130  16.986  0.00  0.00    +0.000 OA
ATOM     30  O   UNL     1       3.572   2.946  18.662  0.00  0.00    +0.000 OA
ENDBRANCH  21  28
ENDBRANCH   3  17
TORSDOF 5
ENDMDL
MODEL 3
REMARK VINA RESULT:      -8.1      1.428      1.940
REMARK  Name = 
REMARK  5 active torsions:
REMARK  status: ('A' for Active; 'I' for Inactive)
REMARK    1  A    between atoms: C_2  and  C_18
REMARK    2  A    between atoms: N_3  and  C_4
REMARK    3  A    between atoms: C_7  and  N_8
REMARK    4  A    between atoms: C_13  and  N_14
REMARK    5  A    between atoms: C_27  and  O_28
REMARK                            x       y       z     vdW  Elec       q    Type
REMARK                         _______ _______ _______ _____ _____    ______ ____
ROOT
ATOM      1  O   UNL     1       1.640   8.250  21.005  0.00  0.00    +0.000 OA
ATOM      2  C   UNL     1       1.182   8.870  20.050  0.00  0.00    +0.000 C 
ATOM      3  N   UNL     1       1.517   8.650  18.727  0.00  0.00    +0.000 N 
ATOM      4  H   UNL     1       1.119   9.305  18.057  0.00  0.00    +0.000 HD
ENDROOT
BRANCH   2   5
ATOM      5  C   UNL     1       0.247  10.010  20.335  0.00  0.00    +0.000 A 
ATOM      6  C   UNL     1      -0.438  10.539  19.232  0.00  0.00    +0.000 A 
ATOM      7  C   UNL     1      -1.450  11.483  19.402  0.00  0.00    +0.000 A 
ATOM      8  C   UNL     1      -1.784  11.947  20.679  0.00  0.00    +0.000 A 
ATOM      9  C   UNL     1      -2.872  12.818  20.844  0.00  0.00    +0.000 A 
ATOM     10  C   UNL     1      -3.211  13.307  22.104  0.00  0.00    +0.000 A 
ATOM     11  C   UNL     1      -2.427  12.982  23.201  0.00  0.00    +0.000 A 
ATOM     12  C   UNL     1      -1.344  12.113  23.052  0.00  0.00    +0.000 A 
ATOM     13  C   UNL     1      -1.037  11.521  21.803  0.00  0.00    +0.000 A 
ATOM     14  C   UNL     1      -0.047  10.517  21.613  0.00  0.00    +0.000 A 
BRANCH  14  15
ATOM     15  O   UNL     1       0.591   9.969  22.706  0.00  0.00    +0.000 OA
ATOM     16  H   UNL     1       1.209  10.635  23.056  0.00  0.00    +0.000 HD
ENDBRANCH  14  15
ENDBRANCH   2   5
BRANCH   3  17
ATOM     17  C   UNL     1       2.414   7.681  18.236  0.00  0.00    +0.000 A 
ATOM     18  C   UNL     1       3.624   8.000  17.633  0.00  0.00    +0.000 A 
ATOM     19  C   UNL     1       4.480   6.995  17.166  0.00  0.00    +0.000 A 
ATOM     20  C   UNL     1       4.178   5.624  17.256  0.00  0.00    +0.000 A 
ATOM     21  C   UNL     1       2.941   5.336  17.859  0.00  0.00    +0.000 A 
ATOM     22  C   UNL     1       2.076   6.335  18.365  0.00  0.00    +0.000 A 
BRANCH  20  23
ATOM     23  N   UNL     1       5.124   4.752  16.755  0.00  0.00    +0.000 N 
ATOM     24  C   UNL     1       6.423   4.416  17.331  0.00  0.00    +0.000 C 
ATOM     25  C   UNL     1       7.384   4.513  16.154  0.00  0.00    +0.000 C 
ATOM     26  C   UNL     1       6.543   4.047  14.978  0.00  0.00    +0.000 C 
ATOM     27  C   UNL     1       5.141   4.563  15.294  0.00  0.00    +0.000 C 
ENDBRANCH  20  23
BRANCH  21  28
ATOM     28  N   UNL     1       2.495   3.978  18.072  0.00  0.00    +0.000 N 
ATOM     29  O   UNL     1       2.938   3.365  19.053  0.00  0.00    +0.000 OA
ATOM     30  O   UNL     1       1.640   3.539  17.283  0.00  0.00    +0.000 OA
ENDBRANCH  21  28
ENDBRANCH   3  17
TORSDOF 5
ENDMDL
MODEL 4
REMARK VINA RESULT:      -7.9      1.116      1.827
REMARK  Name = 
REMARK  5 active torsions:
REMARK  status: ('A' for Active; 'I' for Inactive)
REMARK    1  A    between atoms: C_2  and  C_18
REMARK    2  A    between atoms: N_3  and  C_4
REMARK    3  A    between atoms: C_7  and  N_8
REMARK    4  A    between atoms: C_13  and  N_14
REMARK    5  A    between atoms: C_27  and  O_28
REMARK                            x       y       z     vdW  Elec       q    Type
REMARK                         _______ _______ _______ _____ _____    ______ ____
ROOT
ATOM      1  O   UNL     1       1.950  10.241  17.541  0.00  0.00    +0.000 OA
ATOM      2  C   UNL     1       1.473   9.741  18.556  0.00  0.00    +0.000 C 
ATOM      3  N   UNL     1       1.724   8.455  19.000  0.00  0.00    +0.000 N 
ATOM      4  H   UNL     1       1.184   8.156  19.809  0.00  0.00    +0.000 HD
ENDROOT
BRANCH   2   5
ATOM      5  C   UNL     1       0.478  10.549  19.338  0.00  0.00    +0.000 A 
ATOM      6  C   UNL     1      -0.367  11.382  18.591  0.00  0.00    +0.000 A 
ATOM      7  C   UNL     1      -1.432  12.047  19.195  0.00  0.00    +0.000 A 
ATOM      8  C   UNL     1      -1.665  11.922  20.569  0.00  0.00    +0.000 A 
ATOM      9  C   UNL     1      -2.802  12.512  21.144  0.00  0.00    +0.000 A 
ATOM     10  C   UNL     1      -3.043  12.415  22.512  0.00  0.00    +0.000 A 
ATOM     11  C   UNL     1      -2.118  11.781  23.330  0.00  0.00    +0.000 A 
ATOM     12  C   UNL     1      -0.986  11.184  22.772  0.00  0.00    +0.000 A 
ATOM     13  C   UNL     1      -0.766  11.180  21.373  0.00  0.00    +0.000 A 
ATOM     14  C   UNL     1       0.282  10.466  20.728  0.00  0.00    +0.000 A 
BRANCH  14  15
ATOM     15  O   UNL     1       1.081   9.612  21.461  0.00  0.00    +0.000 OA
ATOM     16  H   UNL     1       2.003   9.757  21.185  0.00  0.00    +0.000 HD
ENDBRANCH  14  15
ENDBRANCH   2   5
BRANCH   3  17
ATOM     17  C   UNL     1       2.569   7.506  18.394  0.00  0.00    +0.000 A 
ATOM     18  C   UNL     1       3.722   7.848  17.696  0.00  0.00    +0.000 A 
ATOM     19  C   UNL     1       4.529   6.862  17.116  0.00  0.00    +0.000 A 
ATOM     20  C   UNL     1       4.232   5.489  17.181  0.00  0.00    +0.000 A 
ATOM     21  C   UNL     1       3.053   5.177  17.881  0.00  0.00    +0.000 A 
ATOM     22  C   UNL     1       2.241   6.156  18.501  0.00  0.00    +0.000 A 
BRANCH  20  23
ATOM     23  N   UNL     1       5.126   4.637  16.563  0.00  0.00    +0.000 N 
ATOM     24  C   UNL     1       6.522   4.398  16.917  0.00  0.00    +0.000 C 
ATOM     25  C   UNL     1       7.257   4.474  15.586  0.00  0.00    +0.000 C 
ATOM     26  C   UNL     1       6.254   3.901  14.600  0.00  0.00    +0.000 C 
ATOM     27  C   UNL     1       4.900   4.365  15.133  0.00  0.00    +0.000 C 
ENDBRANCH  20  23
BRANCH  21  28
ATOM     28  N   UNL     1       2.623   3.812  18.081  0.00  0.00    +0.000 N 
ATOM     29  O   UNL     1       1.769   3.351  17.312  0.00  0.00    +0.000 OA
ATOM     30  O   UNL     1       3.194   3.170  18.979  0.00  0.00    +0.000 OA
ENDBRANCH  21  28
ENDBRANCH   3  17
TORSDOF 5
ENDMDL
MODEL 5
REMARK VINA RESULT:      -7.7      6.800      8.766
REMARK  Name = 
REMARK  5 active torsions:
REMARK  status: ('A' for Active; 'I' for Inactive)
REMARK    1  A    between atoms: C_2  and  C_18
REMARK    2  A    between atoms: N_3  and  C_4
REMARK    3  A    between atoms: C_7  and  N_8
REMARK    4  A    between atoms: C_13  and  N_14
REMARK    5  A    between atoms: C_27  and  O_28
REMARK                            x       y       z     vdW  Elec       q    Type
REMARK                         _______ _______ _______ _____ _____    ______ ____
ROOT
ATOM      1  O   UNL     1       9.031   9.931  20.304  0.00  0.00    +0.000 OA
ATOM      2  C   UNL     1       9.199  10.273  19.138  0.00  0.00    +0.000 C 
ATOM      3  N   UNL     1       8.769   9.561  18.033  0.00  0.00    +0.000 N 
ATOM      4  H   UNL     1       9.062   9.928  17.130  0.00  0.00    +0.000 HD
ENDROOT
BRANCH   2   5
ATOM      5  C   UNL     1      10.003  11.514  18.875  0.00  0.00    +0.000 A 
ATOM      6  C   UNL     1      10.551  11.636  17.591  0.00  0.00    +0.000 A 
ATOM      7  C   UNL     1      11.172  12.817  17.187  0.00  0.00    +0.000 A 
ATOM      8  C   UNL     1      11.289  13.898  18.067  0.00  0.00    +0.000 A 
ATOM      9  C   UNL     1      11.821  15.115  17.614  0.00  0.00    +0.000 A 
ATOM     10  C   UNL     1      11.964  16.199  18.478  0.00  0.00    +0.000 A 
ATOM     11  C   UNL     1      11.634  16.058  19.819  0.00  0.00    +0.000 A 
ATOM     12  C   UNL     1      11.098  14.854  20.282  0.00  0.00    +0.000 A 
ATOM     13  C   UNL     1      10.849  13.770  19.407  0.00  0.00    +0.000 A 
ATOM     14  C   UNL     1      10.170  12.576  19.780  0.00  0.00    +0.000 A 
BRANCH  14  15
ATOM     15  O   UNL     1       9.593  12.480  21.030  0.00  0.00    +0.000 OA
ATOM     16  H   UNL     1      10.310  12.462  21.688  0.00  0.00    +0.000 HD
ENDBRANCH  14  15
ENDBRANCH   2   5
BRANCH   3  17
ATOM     17  C   UNL     1       8.055   8.346  18.041  0.00  0.00    +0.000 A 
ATOM     18  C   UNL     1       8.445   7.239  18.783  0.00  0.00    +0.000 A 
ATOM     19  C   UNL     1       7.695   6.056  18.757  0.00  0.00    +0.000 A 
ATOM     20  C   UNL     1       6.530   5.902  17.985  0.00  0.00    +0.000 A 
ATOM     21  C   UNL     1       6.170   7.035  17.235  0.00  0.00    +0.000 A 
ATOM     22  C   UNL     1       6.897   8.249  17.272  0.00  0.00    +0.000 A 
BRANCH  20  23
ATOM     23  N   UNL     1       5.897   4.678  18.066  0.00  0.00    +0.000 N 
ATOM     24  C   UNL     1       5.492   3.807  16.967  0.00  0.00    +0.000 C 
ATOM     25  C   UNL     1       4.062   3.413  17.316  0.00  0.00    +0.000 C 
ATOM     26  C   UNL     1       4.081   3.342  18.833  0.00  0.00    +0.000 C 
ATOM     27  C   UNL     1       5.046   4.451  19.247  0.00  0.00    +0.000 C 
ENDBRANCH  20  23
BRANCH  21  28
ATOM     28  N   UNL     1       4.976   7.064  16.421  0.00  0.00    +0.000 N 
ATOM     29  O   UNL     1       5.095   6.863  15.205  0.00  0.00    +0.000 OA
ATOM     30  O   UNL     1       3.896   7.226  17.015  0.00  0.00    +0.000 OA
ENDBRANCH  21  28
ENDBRANCH   3  17
TORSDOF 5
ENDMDL
MODEL 6
REMARK VINA RESULT:      -7.6      0.968      1.108
REMARK  Name = 
REMARK  5 active torsions:
REMARK  status: ('A' for Active; 'I' for Inactive)
REMARK    1  A    between atoms: C_2  and  C_18
REMARK    2  A    between atoms: N_3  and  C_4
REMARK    3  A    between atoms: C_7  and  N_8
REMARK    4  A    between atoms: C_13  and  N_14
REMARK    5  A    between atoms: C_27  and  O_28
REMARK                            x       y       z     vdW  Elec       q    Type
REMARK                         _______ _______ _______ _____ _____    ______ ____
ROOT
ATOM      1  O   UNL     1       0.666   9.642  17.981  0.00  0.00    +0.000 OA
ATOM      2  C   UNL     1       0.809   9.367  19.168  0.00  0.00    +0.000 C 
ATOM      3  N   UNL     1       1.635   8.372  19.658  0.00  0.00    +0.000 N 
ATOM      4  H   UNL     1       1.578   8.205  20.660  0.00  0.00    +0.000 HD
ENDROOT
BRANCH   2   5
ATOM      5  C   UNL     1      -0.034  10.104  20.169  0.00  0.00    +0.000 A 
ATOM      6  C   UNL     1       0.034   9.647  21.492  0.00  0.00    +0.000 A 
ATOM      7  C   UNL     1      -0.573  10.356  22.527  0.00  0.00    +0.000 A 
ATOM      8  C   UNL     1      -1.293  11.527  22.263  0.00  0.00    +0.000 A 
ATOM      9  C   UNL     1      -1.809  12.286  23.325  0.00  0.00    +0.000 A 
ATOM     10  C   UNL     1      -2.544  13.444  23.084  0.00  0.00    +0.000 A 
ATOM     11  C   UNL     1      -2.824  13.822  21.778  0.00  0.00    +0.000 A 
ATOM     12  C   UNL     1      -2.311  13.080  20.712  0.00  0.00    +0.000 A 
ATOM     13  C   UNL     1      -1.479  11.956  20.927  0.00  0.00    +0.000 A 
ATOM     14  C   UNL     1      -0.804  11.248  19.893  0.00  0.00    +0.000 A 
BRANCH  14  15
ATOM     15  O   UNL     1      -0.838  11.728  18.600  0.00  0.00    +0.000 OA
ATOM     16  H   UNL     1      -0.295  11.138  18.048  0.00  0.00    +0.000 HD
ENDBRANCH  14  15
ENDBRANCH   2   5
BRANCH   3  17
ATOM     17  C   UNL     1       2.464   7.520  18.903  0.00  0.00    +0.000 A 
ATOM     18  C   UNL     1       3.320   7.976  17.908  0.00  0.00    +0.000 A 
ATOM     19  C   UNL     1       4.126   7.083  17.190  0.00  0.00    +0.000 A 
ATOM     20  C   UNL     1       4.117   5.694  17.406  0.00  0.00    +0.000 A 
ATOM     21  C   UNL     1       3.231   5.264  18.409  0.00  0.00    +0.000 A 
ATOM     22  C   UNL     1       2.431   6.152  19.167  0.00  0.00    +0.000 A 
BRANCH  20  23
ATOM     23  N   UNL     1       4.971   4.944  16.622  0.00  0.00    +0.000 N 
ATOM     24  C   UNL     1       6.077   4.100  17.061  0.00  0.00    +0.000 C 
ATOM     25  C   UNL     1       7.225   4.487  16.137  0.00  0.00    +0.000 C 
ATOM     26  C   UNL     1       6.526   4.798  14.825  0.00  0.00    +0.000 C 
ATOM     27  C   UNL     1       5.200   5.425  15.248  0.00  0.00    +0.000 C 
ENDBRANCH  20  23
BRANCH  21  28
ATOM     28  N   UNL     1       3.128   3.873  18.791  0.00  0.00    +0.000 N 
ATOM     29  O   UNL     1       3.748   3.497  19.795  0.00  0.00    +0.000 OA
ATOM     30  O   UNL     1       2.366   3.161  18.115  0.00  0.00    +0.000 OA
ENDBRANCH  21  28
ENDBRANCH   3  17
TORSDOF 5
ENDMDL
MODEL 7
REMARK VINA RESULT:      -7.6      2.560      9.719
REMARK  Name = 
REMARK  5 active torsions:
REMARK  status: ('A' for Active; 'I' for Inactive)
REMARK    1  A    between atoms: C_2  and  C_18
REMARK    2  A    between atoms: N_3  and  C_4
REMARK    3  A    between atoms: C_7  and  N_8
REMARK    4  A    between atoms: C_13  and  N_14
REMARK    5  A    between atoms: C_27  and  O_28
REMARK                            x       y       z     vdW  Elec       q    Type
REMARK                         _______ _______ _______ _____ _____    ______ ____
ROOT
ATOM      1  O   UNL     1       1.129   6.456  20.967  0.00  0.00    +0.000 OA
ATOM      2  C   UNL     1       1.819   7.100  20.183  0.00  0.00    +0.000 C 
ATOM      3  N   UNL     1       1.745   8.469  20.001  0.00  0.00    +0.000 N 
ATOM      4  H   UNL     1       2.320   8.846  19.250  0.00  0.00    +0.000 HD
ENDROOT
BRANCH   2   5
ATOM      5  C   UNL     1       2.763   6.346  19.291  0.00  0.00    +0.000 A 
ATOM      6  C   UNL     1       2.946   4.989  19.591  0.00  0.00    +0.000 A 
ATOM      7  C   UNL     1       3.666   4.157  18.735  0.00  0.00    +0.000 A 
ATOM      8  C   UNL     1       4.249   4.667  17.569  0.00  0.00    +0.000 A 
ATOM      9  C   UNL     1       4.881   3.799  16.665  0.00  0.00    +0.000 A 
ATOM     10  C   UNL     1       5.484   4.287  15.508  0.00  0.00    +0.000 A 
ATOM     11  C   UNL     1       5.517   5.654  15.275  0.00  0.00    +0.000 A 
ATOM     12  C   UNL     1       4.887   6.529  16.163  0.00  0.00    +0.000 A 
ATOM     13  C   UNL     1       4.181   6.054  17.294  0.00  0.00    +0.000 A 
ATOM     14  C   UNL     1       3.395   6.873  18.152  0.00  0.00    +0.000 A 
BRANCH  14  15
ATOM     15  O   UNL     1       3.181   8.197  17.827  0.00  0.00    +0.000 OA
ATOM     16  H   UNL     1       2.303   8.448  18.164  0.00  0.00    +0.000 HD
ENDBRANCH  14  15
ENDBRANCH   2   5
BRANCH   3  17
ATOM     17  C   UNL     1       0.894   9.363  20.680  0.00  0.00    +0.000 A 
ATOM     18  C   UNL     1       0.753   9.380  22.061  0.00  0.00    +0.000 A 
ATOM     19  C   UNL     1      -0.106  10.294  22.685  0.00  0.00    +0.000 A 
ATOM     20  C   UNL     1      -0.882  11.227  21.975  0.00  0.00    +0.000 A 
ATOM     21  C   UNL     1      -0.727  11.175  20.579  0.00  0.00    +0.000 A 
ATOM     22  C   UNL     1       0.158  10.281  19.931  0.00  0.00    +0.000 A 
BRANCH  20  23
ATOM     23  N   UNL     1      -1.678  12.065  22.730  0.00  0.00    +0.000 N 
ATOM     24  C   UNL     1      -3.132  12.182  22.700  0.00  0.00    +0.000 C 
ATOM     25  C   UNL     1      -3.381  13.683  22.645  0.00  0.00    +0.000 C 
ATOM     26  C   UNL     1      -2.243  14.255  23.474  0.00  0.00    +0.000 C 
ATOM     27  C   UNL     1      -1.066  13.327  23.183  0.00  0.00    +0.000 C 
ENDBRANCH  20  23
BRANCH  21  28
ATOM     28  N   UNL     1      -1.417  12.093  19.700  0.00  0.00    +0.000 N 
ATOM     29  O   UNL     1      -2.459  11.706  19.154  0.00  0.00    +0.000 OA
ATOM     30  O   UNL     1      -0.945  13.239  19.605  0.00  0.00    +0.000 OA
ENDBRANCH  21  28
ENDBRANCH   3  17
TORSDOF 5
ENDMDL
MODEL 8
REMARK VINA RESULT:      -7.5      3.040      9.846
REMARK  Name = 
REMARK  5 active torsions:
REMARK  status: ('A' for Active; 'I' for Inactive)
REMARK    1  A    between atoms: C_2  and  C_18
REMARK    2  A    between atoms: N_3  and  C_4
REMARK    3  A    between atoms: C_7  and  N_8
REMARK    4  A    between atoms: C_13  and  N_14
REMARK    5  A    between atoms: C_27  and  O_28
REMARK                            x       y       z     vdW  Elec       q    Type
REMARK                         _______ _______ _______ _____ _____    ______ ____
ROOT
ATOM      1  O   UNL     1       2.182   8.658  19.647  0.00  0.00    +0.000 OA
ATOM      2  C   UNL     1       1.560   7.756  20.198  0.00  0.00    +0.000 C 
ATOM      3  N   UNL     1       0.502   7.939  21.070  0.00  0.00    +0.000 N 
ATOM      4  H   UNL     1       0.147   7.096  21.515  0.00  0.00    +0.000 HD
ENDROOT
BRANCH   2   5
ATOM      5  C   UNL     1       2.026   6.345  19.982  0.00  0.00    +0.000 A 
ATOM      6  C   UNL     1       1.618   5.405  20.939  0.00  0.00    +0.000 A 
ATOM      7  C   UNL     1       1.851   4.044  20.750  0.00  0.00    +0.000 A 
ATOM      8  C   UNL     1       2.528   3.587  19.614  0.00  0.00    +0.000 A 
ATOM      9  C   UNL     1       2.663   2.209  19.386  0.00  0.00    +0.000 A 
ATOM     10  C   UNL     1       3.348   1.732  18.271  0.00  0.00    +0.000 A 
ATOM     11  C   UNL     1       3.960   2.628  17.405  0.00  0.00    +0.000 A 
ATOM     12  C   UNL     1       3.828   4.002  17.616  0.00  0.00    +0.000 A 
ATOM     13  C   UNL     1       3.054   4.516  18.684  0.00  0.00    +0.000 A 
ATOM     14  C   UNL     1       2.756   5.895  18.868  0.00  0.00    +0.000 A 
BRANCH  14  15
ATOM     15  O   UNL     1       3.121   6.809  17.901  0.00  0.00    +0.000 OA
ATOM     16  H   UNL     1       2.976   6.396  17.032  0.00  0.00    +0.000 HD
ENDBRANCH  14  15
ENDBRANCH   2   5
BRANCH   3  17
ATOM     17  C   UNL     1      -0.059   9.170  21.463  0.00  0.00    +0.000 A 
ATOM     18  C   UNL     1      -0.266   9.523  22.791  0.00  0.00    +0.000 A 
ATOM     19  C   UNL     1      -0.826  10.762  23.126  0.00  0.00    +0.000 A 
ATOM     20  C   UNL     1      -1.224  11.710  22.166  0.00  0.00    +0.000 A 
ATOM     21  C   UNL     1      -1.014  11.318  20.833  0.00  0.00    +0.000 A 
ATOM     22  C   UNL     1      -0.422  10.083  20.475  0.00  0.00    +0.000 A 
BRANCH  20  23
ATOM     23  N   UNL     1      -1.755  12.889  22.651  0.00  0.00    +0.000 N 
ATOM     24  C   UNL     1      -1.044  14.120  22.982  0.00  0.00    +0.000 C 
ATOM     25  C   UNL     1      -1.597  14.510  24.346  0.00  0.00    +0.000 C 
ATOM     26  C   UNL     1      -3.045  14.054  24.278  0.00  0.00    +0.000 C 
ATOM     27  C   UNL     1      -2.996  12.781  23.438  0.00  0.00    +0.000 C 
ENDBRANCH  20  23
BRANCH  21  28
ATOM     28  N   UNL     1      -1.325  12.190  19.723  0.00  0.00    +0.000 N 
ATOM     29  O   UNL     1      -0.502  13.064  19.420  0.00  0.00    +0.000 OA
ATOM     30  O   UNL     1      -2.378  11.957  19.105  0.00  0.00    +0.000 OA
ENDBRANCH  21  28
ENDBRANCH   3  17
TORSDOF 5
ENDMDL
MODEL 9
REMARK VINA RESULT:      -7.5      2.325      3.294
REMARK  Name = 
REMARK  5 active torsions:
REMARK  status: ('A' for Active; 'I' for Inactive)
REMARK    1  A    between atoms: C_2  and  C_18
REMARK    2  A    between atoms: N_3  and  C_4
REMARK    3  A    between atoms: C_7  and  N_8
REMARK    4  A    between atoms: C_13  and  N_14
REMARK    5  A    between atoms: C_27  and  O_28
REMARK                            x       y       z     vdW  Elec       q    Type
REMARK                         _______ _______ _______ _____ _____    ______ ____
ROOT
ATOM      1  O   UNL     1       1.712   9.644  22.369  0.00  0.00    +0.000 OA
ATOM      2  C   UNL     1       0.841   9.860  21.532  0.00  0.00    +0.000 C 
ATOM      3  N   UNL     1       0.687   9.161  20.349  0.00  0.00    +0.000 N 
ATOM      4  H   UNL     1      -0.027   9.516  19.717  0.00  0.00    +0.000 HD
ENDROOT
BRANCH   2   5
ATOM      5  C   UNL     1      -0.084  11.021  21.761  0.00  0.00    +0.000 A 
ATOM      6  C   UNL     1       0.072  12.116  20.900  0.00  0.00    +0.000 A 
ATOM      7  C   UNL     1      -0.837  13.173  20.914  0.00  0.00    +0.000 A 
ATOM      8  C   UNL     1      -1.910  13.179  21.812  0.00  0.00    +0.000 A 
ATOM      9  C   UNL     1      -2.874  14.196  21.743  0.00  0.00    +0.000 A 
ATOM     10  C   UNL     1      -3.940  14.232  22.639  0.00  0.00    +0.000 A 
ATOM     11  C   UNL     1      -4.019  13.287  23.652  0.00  0.00    +0.000 A 
ATOM     12  C   UNL     1      -3.070  12.265  23.728  0.00  0.00    +0.000 A 
ATOM     13  C   UNL     1      -2.033  12.146  22.772  0.00  0.00    +0.000 A 
ATOM     14  C   UNL     1      -1.127  11.051  22.703  0.00  0.00    +0.000 A 
BRANCH  14  15
ATOM     15  O   UNL     1      -1.313   9.956  23.523  0.00  0.00    +0.000 OA
ATOM     16  H   UNL     1      -2.248   9.694  23.461  0.00  0.00    +0.000 HD
ENDBRANCH  14  15
ENDBRANCH   2   5
BRANCH   3  17
ATOM     17  C   UNL     1       1.474   8.082  19.902  0.00  0.00    +0.000 A 
ATOM     18  C   UNL     1       2.399   8.189  18.871  0.00  0.00    +0.000 A 
ATOM     19  C   UNL     1       3.158   7.083  18.469  0.00  0.00    +0.000 A 
ATOM     20  C   UNL     1       3.031   5.810  19.054  0.00  0.00    +0.000 A 
ATOM     21  C   UNL     1       2.077   5.731  20.083  0.00  0.00    +0.000 A 
ATOM     22  C   UNL     1       1.323   6.844  20.525  0.00  0.00    +0.000 A 
BRANCH  20  23
ATOM     23  N   UNL     1       3.852   4.819  18.552  0.00  0.00    +0.000 N 
ATOM     24  C   UNL     1       5.260   4.587  18.856  0.00  0.00    +0.000 C 
ATOM     25  C   UNL     1       5.903   4.382  17.490  0.00  0.00    +0.000 C 
ATOM     26  C   UNL     1       4.814   3.682  16.695  0.00  0.00    +0.000 C 
ATOM     27  C   UNL     1       3.517   4.297  17.216  0.00  0.00    +0.000 C 
ENDBRANCH  20  23
BRANCH  21  28
ATOM     28  N   UNL     1       1.851   4.509  20.821  0.00  0.00    +0.000 N 
ATOM     29  O   UNL     1       2.559   4.287  21.813  0.00  0.00    +0.000 OA
ATOM     30  O   UNL     1       0.909   3.792  20.442  0.00  0.00    +0.000 OA
ENDBRANCH  21  28
ENDBRANCH   3  17
TORSDOF 5
ENDMDL
