MODEL 1
REMARK VINA RESULT:      -8.1      0.000      0.000
REMARK  Name = 
REMARK  6 active torsions:
REMARK  status: ('A' for Active; 'I' for Inactive)
REMARK    1  A    between atoms: C_1  and  O_2
REMARK    2  A    between atoms: O_2  and  C_3
REMARK    3  A    between atoms: C_6  and  C_7
REMARK    4  A    between atoms: C_8  and  C_9
REMARK    5  A    between atoms: C_12  and  N_13
REMARK    6  A    between atoms: C_20  and  C_21
REMARK                            x       y       z     vdW  Elec       q    Type
REMARK                         _______ _______ _______ _____ _____    ______ ____
ROOT
ATOM      1  C   UNL     1       3.723   4.777  19.290  0.00  0.00    +0.000 A 
ATOM      2  C   UNL     1       2.683   5.577  19.889  0.00  0.00    +0.000 A 
ATOM      3  N   UNL     1       2.058   4.880  20.852  0.00  0.00    +0.000 NA
ATOM      4  O   UNL     1       2.621   3.626  20.854  0.00  0.00    +0.000 OA
ATOM      5  C   UNL     1       3.602   3.552  19.918  0.00  0.00    +0.000 A 
ATOM      6  C   UNL     1       4.271   2.239  19.814  0.00  0.00    +0.000 C 
ENDROOT
BRANCH   1  10
ATOM      7  C   UNL     1       6.635   5.402  16.231  0.00  0.00    +0.000 A 
ATOM      8  C   UNL     1       5.403   4.835  15.929  0.00  0.00    +0.000 A 
ATOM      9  C   UNL     1       4.415   4.748  16.910  0.00  0.00    +0.000 A 
ATOM     10  C   UNL     1       4.683   5.108  18.240  0.00  0.00    +0.000 A 
ATOM     11  C   UNL     1       5.928   5.672  18.531  0.00  0.00    +0.000 A 
ATOM     12  C   UNL     1       6.893   5.838  17.529  0.00  0.00    +0.000 A 
BRANCH   7  14
ATOM     13  C   UNL     1       7.079   4.822  13.999  0.00  0.00    +0.000 C 
ATOM     14  O   UNL     1       7.527   5.448  15.197  0.00  0.00    +0.000 OA
ENDBRANCH   7  14
ENDBRANCH   1  10
BRANCH   2  15
ATOM     15  C   UNL     1       2.263   6.949  19.578  0.00  0.00    +0.000 A 
ATOM     16  C   UNL     1       1.652   7.752  20.556  0.00  0.00    +0.000 A 
ATOM     17  C   UNL     1       1.154   9.018  20.247  0.00  0.00    +0.000 A 
ATOM     18  C   UNL     1       1.344   9.532  18.962  0.00  0.00    +0.000 A 
ATOM     19  C   UNL     1       1.993   8.773  17.982  0.00  0.00    +0.000 A 
ATOM     20  C   UNL     1       2.442   7.478  18.290  0.00  0.00    +0.000 A 
BRANCH  18  21
ATOM     21  N   UNL     1       0.877  10.888  18.660  0.00  0.00    +0.000 N 
ATOM     22  O   UNL     1       1.725  11.762  18.463  0.00  0.00    +0.000 OA
ATOM     23  O   UNL     1      -0.352  11.072  18.600  0.00  0.00    +0.000 OA
ENDBRANCH  18  21
ENDBRANCH   2  15
TORSDOF 4
ENDMDL
MODEL 2
REMARK VINA RESULT:      -7.9      0.150      1.208
REMARK  Name = 
REMARK  6 active torsions:
REMARK  status: ('A' for Active; 'I' for Inactive)
REMARK    1  A    between atoms: C_1  and  O_2
REMARK    2  A    between atoms: O_2  and  C_3
REMARK    3  A    between atoms: C_6  and  C_7
REMARK    4  A    between atoms: C_8  and  C_9
REMARK    5  A    between atoms: C_12  and  N_13
REMARK    6  A    between atoms: C_20  and  C_21
REMARK                            x       y       z     vdW  Elec       q    Type
REMARK                         _______ _______ _______ _____ _____    ______ ____
ROOT
ATOM      1  C   UNL     1       3.744   4.712  19.244  0.00  0.00    +0.000 A 
ATOM      2  C   UNL     1       2.695   5.497  19.845  0.00  0.00    +0.000 A 
ATOM      3  N   UNL     1       2.102   4.804  20.830  0.00  0.00    +0.000 NA
ATOM      4  O   UNL     1       2.693   3.563  20.845  0.00  0.00    +0.000 OA
ATOM      5  C   UNL     1       3.661   3.496  19.895  0.00  0.00    +0.000 A 
ATOM      6  C   UNL     1       4.360   2.196  19.802  0.00  0.00    +0.000 C 
ENDROOT
BRANCH   1  10
ATOM      7  C   UNL     1       6.624   5.366  16.161  0.00  0.00    +0.000 A 
ATOM      8  C   UNL     1       5.476   4.625  15.910  0.00  0.00    +0.000 A 
ATOM      9  C   UNL     1       4.485   4.521  16.886  0.00  0.00    +0.000 A 
ATOM     10  C   UNL     1       4.679   5.046  18.173  0.00  0.00    +0.000 A 
ATOM     11  C   UNL     1       5.842   5.784  18.414  0.00  0.00    +0.000 A 
ATOM     12  C   UNL     1       6.800   5.962  17.408  0.00  0.00    +0.000 A 
BRANCH   7  14
ATOM     13  C   UNL     1       7.071   4.829  13.918  0.00  0.00    +0.000 C 
ATOM     14  O   UNL     1       7.526   5.413  15.136  0.00  0.00    +0.000 OA
ENDBRANCH   7  14
ENDBRANCH   1  10
BRANCH   2  15
ATOM     15  C   UNL     1       2.238   6.853  19.518  0.00  0.00    +0.000 A 
ATOM     16  C   UNL     1       2.413   7.378  18.225  0.00  0.00    +0.000 A 
ATOM     17  C   UNL     1       2.079   8.699  17.928  0.00  0.00    +0.000 A 
ATOM     18  C   UNL     1       1.478   9.490  18.911  0.00  0.00    +0.000 A 
ATOM     19  C   UNL     1       1.247   8.977  20.193  0.00  0.00    +0.000 A 
ATOM     20  C   UNL     1       1.638   7.662  20.496  0.00  0.00    +0.000 A 
BRANCH  18  21
ATOM     21  N   UNL     1       1.069  10.857  18.575  0.00  0.00    +0.000 N 
ATOM     22  O   UNL     1      -0.139  11.102  18.521  0.00  0.00    +0.000 OA
ATOM     23  O   UNL     1       1.968  11.695  18.386  0.00  0.00    +0.000 OA
ENDBRANCH  18  21
ENDBRANCH   2  15
TORSDOF 4
ENDMDL
MODEL 3
REMARK VINA RESULT:      -7.8      1.462      2.010
REMARK  Name = 
REMARK  6 active torsions:
REMARK  status: ('A' for Active; 'I' for Inactive)
REMARK    1  A    between atoms: C_1  and  O_2
REMARK    2  A    between atoms: O_2  and  C_3
REMARK    3  A    between atoms: C_6  and  C_7
REMARK    4  A    between atoms: C_8  and  C_9
REMARK    5  A    between atoms: C_12  and  N_13
REMARK    6  A    between atoms: C_20  and  C_21
REMARK                            x       y       z     vdW  Elec       q    Type
REMARK                         _______ _______ _______ _____ _____    ______ ____
ROOT
ATOM      1  C   UNL     1       3.308   4.247  18.731  0.00  0.00    +0.000 A 
ATOM      2  C   UNL     1       2.195   4.866  19.408  0.00  0.00    +0.000 A 
ATOM      3  N   UNL     1       1.319   3.932  19.813  0.00  0.00    +0.000 NA
ATOM      4  O   UNL     1       1.799   2.725  19.361  0.00  0.00    +0.000 OA
ATOM      5  C   UNL     1       2.974   2.906  18.705  0.00  0.00    +0.000 A 
ATOM      6  C   UNL     1       3.581   1.676  18.155  0.00  0.00    +0.000 C 
ENDROOT
BRANCH   1  10
ATOM      7  C   UNL     1       6.711   6.298  17.169  0.00  0.00    +0.000 A 
ATOM      8  C   UNL     1       6.665   5.920  18.505  0.00  0.00    +0.000 A 
ATOM      9  C   UNL     1       5.606   5.144  18.976  0.00  0.00    +0.000 A 
ATOM     10  C   UNL     1       4.510   4.841  18.153  0.00  0.00    +0.000 A 
ATOM     11  C   UNL     1       4.566   5.232  16.812  0.00  0.00    +0.000 A 
ATOM     12  C   UNL     1       5.669   5.939  16.316  0.00  0.00    +0.000 A 
BRANCH   7  14
ATOM     13  C   UNL     1       7.989   8.223  17.589  0.00  0.00    +0.000 C 
ATOM     14  O   UNL     1       7.795   7.046  16.810  0.00  0.00    +0.000 OA
ENDBRANCH   7  14
ENDBRANCH   1  10
BRANCH   2  15
ATOM     15  C   UNL     1       1.933   6.286  19.671  0.00  0.00    +0.000 A 
ATOM     16  C   UNL     1       1.464   6.710  20.927  0.00  0.00    +0.000 A 
ATOM     17  C   UNL     1       1.113   8.040  21.158  0.00  0.00    +0.000 A 
ATOM     18  C   UNL     1       1.313   8.986  20.149  0.00  0.00    +0.000 A 
ATOM     19  C   UNL     1       1.825   8.599  18.904  0.00  0.00    +0.000 A 
ATOM     20  C   UNL     1       2.124   7.247  18.665  0.00  0.00    +0.000 A 
BRANCH  18  21
ATOM     21  N   UNL     1       1.004  10.393  20.418  0.00  0.00    +0.000 N 
ATOM     22  O   UNL     1       0.660  11.101  19.468  0.00  0.00    +0.000 OA
ATOM     23  O   UNL     1       1.087  10.784  21.595  0.00  0.00    +0.000 OA
ENDBRANCH  18  21
ENDBRANCH   2  15
TORSDOF 4
ENDMDL
MODEL 4
REMARK VINA RESULT:      -7.8      0.652      1.561
REMARK  Name = 
REMARK  6 active torsions:
REMARK  status: ('A' for Active; 'I' for Inactive)
REMARK    1  A    between atoms: C_1  and  O_2
REMARK    2  A    between atoms: O_2  and  C_3
REMARK    3  A    between atoms: C_6  and  C_7
REMARK    4  A    between atoms: C_8  and  C_9
REMARK    5  A    between atoms: C_12  and  N_13
REMARK    6  A    between atoms: C_20  and  C_21
REMARK                            x       y       z     vdW  Elec       q    Type
REMARK                         _______ _______ _______ _____ _____    ______ ____
ROOT
ATOM      1  C   UNL     1       3.916   4.142  19.446  0.00  0.00    +0.000 A 
ATOM      2  C   UNL     1       2.881   4.987  19.989  0.00  0.00    +0.000 A 
ATOM      3  N   UNL     1       2.267   4.372  21.012  0.00  0.00    +0.000 NA
ATOM      4  O   UNL     1       2.831   3.122  21.111  0.00  0.00    +0.000 OA
ATOM      5  C   UNL     1       3.802   2.973  20.173  0.00  0.00    +0.000 A 
ATOM      6  C   UNL     1       4.473   1.656  20.169  0.00  0.00    +0.000 C 
ENDROOT
BRANCH   1  10
ATOM      7  C   UNL     1       6.536   5.180  16.239  0.00  0.00    +0.000 A 
ATOM      8  C   UNL     1       6.784   5.632  17.529  0.00  0.00    +0.000 A 
ATOM      9  C   UNL     1       5.994   5.188  18.589  0.00  0.00    +0.000 A 
ATOM     10  C   UNL     1       4.863   4.387  18.362  0.00  0.00    +0.000 A 
ATOM     11  C   UNL     1       4.621   3.945  17.058  0.00  0.00    +0.000 A 
ATOM     12  C   UNL     1       5.464   4.322  16.004  0.00  0.00    +0.000 A 
BRANCH   7  14
ATOM     13  C   UNL     1       7.282   5.006  14.018  0.00  0.00    +0.000 C 
ATOM     14  O   UNL     1       7.374   5.668  15.277  0.00  0.00    +0.000 OA
ENDBRANCH   7  14
ENDBRANCH   1  10
BRANCH   2  15
ATOM     15  C   UNL     1       2.455   6.329  19.571  0.00  0.00    +0.000 A 
ATOM     16  C   UNL     1       2.692   6.783  18.262  0.00  0.00    +0.000 A 
ATOM     17  C   UNL     1       2.387   8.090  17.883  0.00  0.00    +0.000 A 
ATOM     18  C   UNL     1       1.755   8.938  18.796  0.00  0.00    +0.000 A 
ATOM     19  C   UNL     1       1.463   8.496  20.091  0.00  0.00    +0.000 A 
ATOM     20  C   UNL     1       1.824   7.194  20.479  0.00  0.00    +0.000 A 
BRANCH  18  21
ATOM     21  N   UNL     1       1.378  10.290  18.372  0.00  0.00    +0.000 N 
ATOM     22  O   UNL     1       2.265  11.026  17.933  0.00  0.00    +0.000 OA
ATOM     23  O   UNL     1       0.179  10.606  18.462  0.00  0.00    +0.000 OA
ENDBRANCH  18  21
ENDBRANCH   2  15
TORSDOF 4
ENDMDL
MODEL 5
REMARK VINA RESULT:      -7.7      0.673      1.367
REMARK  Name = 
REMARK  6 active torsions:
REMARK  status: ('A' for Active; 'I' for Inactive)
REMARK    1  A    between atoms: C_1  and  O_2
REMARK    2  A    between atoms: O_2  and  C_3
REMARK    3  A    between atoms: C_6  and  C_7
REMARK    4  A    between atoms: C_8  and  C_9
REMARK    5  A    between atoms: C_12  and  N_13
REMARK    6  A    between atoms: C_20  and  C_21
REMARK                            x       y       z     vdW  Elec       q    Type
REMARK                         _______ _______ _______ _____ _____    ______ ____
ROOT
ATOM      1  C   UNL     1       4.001   4.126  19.329  0.00  0.00    +0.000 A 
ATOM      2  C   UNL     1       3.007   5.003  19.898  0.00  0.00    +0.000 A 
ATOM      3  N   UNL     1       2.379   4.395  20.917  0.00  0.00    +0.000 NA
ATOM      4  O   UNL     1       2.892   3.121  20.987  0.00  0.00    +0.000 OA
ATOM      5  C   UNL     1       3.846   2.949  20.037  0.00  0.00    +0.000 A 
ATOM      6  C   UNL     1       4.462   1.606  20.002  0.00  0.00    +0.000 C 
ENDROOT
BRANCH   1  10
ATOM      7  C   UNL     1       6.644   5.121  16.127  0.00  0.00    +0.000 A 
ATOM      8  C   UNL     1       6.954   5.471  17.435  0.00  0.00    +0.000 A 
ATOM      9  C   UNL     1       6.147   5.036  18.486  0.00  0.00    +0.000 A 
ATOM     10  C   UNL     1       4.946   4.351  18.239  0.00  0.00    +0.000 A 
ATOM     11  C   UNL     1       4.643   4.010  16.918  0.00  0.00    +0.000 A 
ATOM     12  C   UNL     1       5.496   4.374  15.869  0.00  0.00    +0.000 A 
BRANCH   7  14
ATOM     13  C   UNL     1       7.348   4.996  13.890  0.00  0.00    +0.000 C 
ATOM     14  O   UNL     1       7.504   5.590  15.176  0.00  0.00    +0.000 OA
ENDBRANCH   7  14
ENDBRANCH   1  10
BRANCH   2  15
ATOM     15  C   UNL     1       2.633   6.369  19.509  0.00  0.00    +0.000 A 
ATOM     16  C   UNL     1       1.926   7.200  20.396  0.00  0.00    +0.000 A 
ATOM     17  C   UNL     1       1.474   8.459  20.003  0.00  0.00    +0.000 A 
ATOM     18  C   UNL     1       1.806   8.940  18.734  0.00  0.00    +0.000 A 
ATOM     19  C   UNL     1       2.552   8.153  17.849  0.00  0.00    +0.000 A 
ATOM     20  C   UNL     1       2.955   6.864  18.236  0.00  0.00    +0.000 A 
BRANCH  18  21
ATOM     21  N   UNL     1       1.384  10.290  18.350  0.00  0.00    +0.000 N 
ATOM     22  O   UNL     1       0.193  10.582  18.476  0.00  0.00    +0.000 OA
ATOM     23  O   UNL     1       2.261  11.070  17.938  0.00  0.00    +0.000 OA
ENDBRANCH  18  21
ENDBRANCH   2  15
TORSDOF 4
ENDMDL
MODEL 6
REMARK VINA RESULT:      -7.6      1.446      2.224
REMARK  Name = 
REMARK  6 active torsions:
REMARK  status: ('A' for Active; 'I' for Inactive)
REMARK    1  A    between atoms: C_1  and  O_2
REMARK    2  A    between atoms: O_2  and  C_3
REMARK    3  A    between atoms: C_6  and  C_7
REMARK    4  A    between atoms: C_8  and  C_9
REMARK    5  A    between atoms: C_12  and  N_13
REMARK    6  A    between atoms: C_20  and  C_21
REMARK                            x       y       z     vdW  Elec       q    Type
REMARK                         _______ _______ _______ _____ _____    ______ ____
ROOT
ATOM      1  C   UNL     1       3.337   4.177  18.752  0.00  0.00    +0.000 A 
ATOM      2  C   UNL     1       2.197   4.779  19.398  0.00  0.00    +0.000 A 
ATOM      3  N   UNL     1       1.342   3.829  19.813  0.00  0.00    +0.000 NA
ATOM      4  O   UNL     1       1.864   2.627  19.398  0.00  0.00    +0.000 OA
ATOM      5  C   UNL     1       3.043   2.826  18.754  0.00  0.00    +0.000 A 
ATOM      6  C   UNL     1       3.694   1.602  18.244  0.00  0.00    +0.000 C 
ENDROOT
BRANCH   1  10
ATOM      7  C   UNL     1       6.709   6.286  17.200  0.00  0.00    +0.000 A 
ATOM      8  C   UNL     1       6.669   5.901  18.534  0.00  0.00    +0.000 A 
ATOM      9  C   UNL     1       5.621   5.107  19.001  0.00  0.00    +0.000 A 
ATOM     10  C   UNL     1       4.530   4.791  18.177  0.00  0.00    +0.000 A 
ATOM     11  C   UNL     1       4.579   5.191  16.838  0.00  0.00    +0.000 A 
ATOM     12  C   UNL     1       5.672   5.917  16.346  0.00  0.00    +0.000 A 
BRANCH   7  14
ATOM     13  C   UNL     1       7.958   8.228  17.630  0.00  0.00    +0.000 C 
ATOM     14  O   UNL     1       7.782   7.053  16.844  0.00  0.00    +0.000 OA
ENDBRANCH   7  14
ENDBRANCH   1  10
BRANCH   2  15
ATOM     15  C   UNL     1       1.890   6.197  19.622  0.00  0.00    +0.000 A 
ATOM     16  C   UNL     1       2.090   7.145  18.604  0.00  0.00    +0.000 A 
ATOM     17  C   UNL     1       1.903   8.508  18.835  0.00  0.00    +0.000 A 
ATOM     18  C   UNL     1       1.423   8.931  20.077  0.00  0.00    +0.000 A 
ATOM     19  C   UNL     1       1.168   8.003  21.094  0.00  0.00    +0.000 A 
ATOM     20  C   UNL     1       1.413   6.638  20.867  0.00  0.00    +0.000 A 
BRANCH  18  21
ATOM     21  N   UNL     1       1.165  10.357  20.295  0.00  0.00    +0.000 N 
ATOM     22  O   UNL     1       1.021  11.076  19.303  0.00  0.00    +0.000 OA
ATOM     23  O   UNL     1       1.086  10.754  21.471  0.00  0.00    +0.000 OA
ENDBRANCH  18  21
ENDBRANCH   2  15
TORSDOF 4
ENDMDL
MODEL 7
REMARK VINA RESULT:      -7.6      1.014      1.456
REMARK  Name = 
REMARK  6 active torsions:
REMARK  status: ('A' for Active; 'I' for Inactive)
REMARK    1  A    between atoms: C_1  and  O_2
REMARK    2  A    between atoms: O_2  and  C_3
REMARK    3  A    between atoms: C_6  and  C_7
REMARK    4  A    between atoms: C_8  and  C_9
REMARK    5  A    between atoms: C_12  and  N_13
REMARK    6  A    between atoms: C_20  and  C_21
REMARK                            x       y       z     vdW  Elec       q    Type
REMARK                         _______ _______ _______ _____ _____    ______ ____
ROOT
ATOM      1  C   UNL     1       3.566   3.790  18.825  0.00  0.00    +0.000 A 
ATOM      2  C   UNL     1       2.531   4.545  19.487  0.00  0.00    +0.000 A 
ATOM      3  N   UNL     1       1.792   3.738  20.266  0.00  0.00    +0.000 NA
ATOM      4  O   UNL     1       2.278   2.466  20.080  0.00  0.00    +0.000 OA
ATOM      5  C   UNL     1       3.323   2.486  19.213  0.00  0.00    +0.000 A 
ATOM      6  C   UNL     1       3.920   1.166  18.920  0.00  0.00    +0.000 C 
ENDROOT
BRANCH   1  10
ATOM      7  C   UNL     1       6.747   4.729  16.137  0.00  0.00    +0.000 A 
ATOM      8  C   UNL     1       5.523   4.280  15.655  0.00  0.00    +0.000 A 
ATOM      9  C   UNL     1       4.453   4.094  16.530  0.00  0.00    +0.000 A 
ATOM     10  C   UNL     1       4.622   4.229  17.918  0.00  0.00    +0.000 A 
ATOM     11  C   UNL     1       5.860   4.676  18.389  0.00  0.00    +0.000 A 
ATOM     12  C   UNL     1       6.911   4.945  17.503  0.00  0.00    +0.000 A 
BRANCH   7  14
ATOM     13  C   UNL     1       7.254   4.906  13.850  0.00  0.00    +0.000 C 
ATOM     14  O   UNL     1       7.723   4.889  15.195  0.00  0.00    +0.000 OA
ENDBRANCH   7  14
ENDBRANCH   1  10
BRANCH   2  15
ATOM     15  C   UNL     1       2.218   5.977  19.400  0.00  0.00    +0.000 A 
ATOM     16  C   UNL     1       2.351   6.670  18.184  0.00  0.00    +0.000 A 
ATOM     17  C   UNL     1       2.158   8.049  18.111  0.00  0.00    +0.000 A 
ATOM     18  C   UNL     1       1.740   8.743  19.249  0.00  0.00    +0.000 A 
ATOM     19  C   UNL     1       1.552   8.070  20.462  0.00  0.00    +0.000 A 
ATOM     20  C   UNL     1       1.802   6.689  20.537  0.00  0.00    +0.000 A 
BRANCH  18  21
ATOM     21  N   UNL     1       1.475  10.181  19.151  0.00  0.00    +0.000 N 
ATOM     22  O   UNL     1       1.954  10.793  18.193  0.00  0.00    +0.000 OA
ATOM     23  O   UNL     1       0.763  10.695  20.032  0.00  0.00    +0.000 OA
ENDBRANCH  18  21
ENDBRANCH   2  15
TORSDOF 4
ENDMDL
MODEL 8
REMARK VINA RESULT:      -7.5      2.412      6.287
REMARK  Name = 
REMARK  6 active torsions:
REMARK  status: ('A' for Active; 'I' for Inactive)
REMARK    1  A    between atoms: C_1  and  O_2
REMARK    2  A    between atoms: O_2  and  C_3
REMARK    3  A    between atoms: C_6  and  C_7
REMARK    4  A    between atoms: C_8  and  C_9
REMARK    5  A    between atoms: C_12  and  N_13
REMARK    6  A    between atoms: C_20  and  C_21
REMARK                            x       y       z     vdW  Elec       q    Type
REMARK                         _______ _______ _______ _____ _____    ______ ____
ROOT
ATOM      1  C   UNL     1       3.257   4.433  19.401  0.00  0.00    +0.000 A 
ATOM      2  C   UNL     1       4.231   3.663  18.668  0.00  0.00    +0.000 A 
ATOM      3  N   UNL     1       4.397   2.459  19.239  0.00  0.00    +0.000 NA
ATOM      4  O   UNL     1       3.603   2.447  20.362  0.00  0.00    +0.000 OA
ATOM      5  C   UNL     1       2.934   3.623  20.473  0.00  0.00    +0.000 A 
ATOM      6  C   UNL     1       2.057   3.736  21.658  0.00  0.00    +0.000 C 
ENDROOT
BRANCH   1  10
ATOM      7  C   UNL     1       2.038   8.464  18.698  0.00  0.00    +0.000 A 
ATOM      8  C   UNL     1       2.600   7.707  17.677  0.00  0.00    +0.000 A 
ATOM      9  C   UNL     1       2.881   6.356  17.882  0.00  0.00    +0.000 A 
ATOM     10  C   UNL     1       2.725   5.770  19.148  0.00  0.00    +0.000 A 
ATOM     11  C   UNL     1       2.165   6.544  20.168  0.00  0.00    +0.000 A 
ATOM     12  C   UNL     1       1.803   7.878  19.940  0.00  0.00    +0.000 A 
BRANCH   7  14
ATOM     13  C   UNL     1       0.445  10.186  18.591  0.00  0.00    +0.000 C 
ATOM     14  O   UNL     1       1.792   9.772  18.389  0.00  0.00    +0.000 OA
ENDBRANCH   7  14
ENDBRANCH   1  10
BRANCH   2  15
ATOM     15  C   UNL     1       5.004   4.027  17.474  0.00  0.00    +0.000 A 
ATOM     16  C   UNL     1       4.456   3.870  16.189  0.00  0.00    +0.000 A 
ATOM     17  C   UNL     1       5.214   4.112  15.043  0.00  0.00    +0.000 A 
ATOM     18  C   UNL     1       6.515   4.604  15.176  0.00  0.00    +0.000 A 
ATOM     19  C   UNL     1       7.069   4.816  16.444  0.00  0.00    +0.000 A 
ATOM     20  C   UNL     1       6.314   4.516  17.591  0.00  0.00    +0.000 A 
BRANCH  18  21
ATOM     21  N   UNL     1       7.285   4.919  13.969  0.00  0.00    +0.000 N 
ATOM     22  O   UNL     1       6.930   4.405  12.906  0.00  0.00    +0.000 OA
ATOM     23  O   UNL     1       8.242   5.705  14.087  0.00  0.00    +0.000 OA
ENDBRANCH  18  21
ENDBRANCH   2  15
TORSDOF 4
ENDMDL
MODEL 9
REMARK VINA RESULT:      -7.5      2.396      6.425
REMARK  Name = 
REMARK  6 active torsions:
REMARK  status: ('A' for Active; 'I' for Inactive)
REMARK    1  A    between atoms: C_1  and  O_2
REMARK    2  A    between atoms: O_2  and  C_3
REMARK    3  A    between atoms: C_6  and  C_7
REMARK    4  A    between atoms: C_8  and  C_9
REMARK    5  A    between atoms: C_12  and  N_13
REMARK    6  A    between atoms: C_20  and  C_21
REMARK                            x       y       z     vdW  Elec       q    Type
REMARK                         _______ _______ _______ _____ _____    ______ ____
ROOT
ATOM      1  C   UNL     1       3.304   4.506  19.364  0.00  0.00    +0.000 A 
ATOM      2  C   UNL     1       4.162   3.678  18.554  0.00  0.00    +0.000 A 
ATOM      3  N   UNL     1       4.172   2.419  19.023  0.00  0.00    +0.000 NA
ATOM      4  O   UNL     1       3.393   2.420  20.156  0.00  0.00    +0.000 OA
ATOM      5  C   UNL     1       2.886   3.660  20.373  0.00  0.00    +0.000 A 
ATOM      6  C   UNL     1       2.042   3.790  21.580  0.00  0.00    +0.000 C 
ENDROOT
BRANCH   1  10
ATOM      7  C   UNL     1       1.938   8.525  18.906  0.00  0.00    +0.000 A 
ATOM      8  C   UNL     1       1.748   7.846  20.103  0.00  0.00    +0.000 A 
ATOM      9  C   UNL     1       2.305   6.580  20.284  0.00  0.00    +0.000 A 
ATOM     10  C   UNL     1       2.952   5.917  19.229  0.00  0.00    +0.000 A 
ATOM     11  C   UNL     1       3.132   6.610  18.029  0.00  0.00    +0.000 A 
ATOM     12  C   UNL     1       2.646   7.915  17.873  0.00  0.00    +0.000 A 
BRANCH   7  14
ATOM     13  C   UNL     1       0.519  10.085  19.940  0.00  0.00    +0.000 C 
ATOM     14  O   UNL     1       1.361   9.761  18.837  0.00  0.00    +0.000 OA
ENDBRANCH   7  14
ENDBRANCH   1  10
BRANCH   2  15
ATOM     15  C   UNL     1       4.966   4.033  17.378  0.00  0.00    +0.000 A 
ATOM     16  C   UNL     1       4.429   3.932  16.082  0.00  0.00    +0.000 A 
ATOM     17  C   UNL     1       5.212   4.166  14.953  0.00  0.00    +0.000 A 
ATOM     18  C   UNL     1       6.532   4.594  15.113  0.00  0.00    +0.000 A 
ATOM     19  C   UNL     1       7.079   4.751  16.392  0.00  0.00    +0.000 A 
ATOM     20  C   UNL     1       6.296   4.460  17.522  0.00  0.00    +0.000 A 
BRANCH  18  21
ATOM     21  N   UNL     1       7.332   4.902  13.923  0.00  0.00    +0.000 N 
ATOM     22  O   UNL     1       7.028   4.349  12.863  0.00  0.00    +0.000 OA
ATOM     23  O   UNL     1       8.259   5.721  14.051  0.00  0.00    +0.000 OA
ENDBRANCH  18  21
ENDBRANCH   2  15
TORSDOF 4
ENDMDL
