MODEL 1
REMARK VINA RESULT:      -7.6      0.000      0.000
REMARK  Name = 
REMARK  7 active torsions:
REMARK  status: ('A' for Active; 'I' for Inactive)
REMARK    1  A    between atoms: C_1  and  C_2
REMARK    2  A    between atoms: C_5  and  C_6
REMARK    3  A    between atoms: C_6  and  C_7
REMARK    4  A    between atoms: C_7  and  N_8
REMARK    5  A    between atoms: N_11  and  C_12
REMARK    6  A    between atoms: C_15  and  S_16
REMARK    7  A    between atoms: S_16  and  C_17
REMARK                            x       y       z     vdW  Elec       q    Type
REMARK                         _______ _______ _______ _____ _____    ______ ____
ROOT
ATOM      1  N   UNL     1       4.517   4.631  17.325  0.00  0.00    +0.000 N 
ATOM      2  C   UNL     1       4.136   5.558  18.272  0.00  0.00    +0.000 C 
ATOM      3  O   UNL     1       4.776   5.699  19.307  0.00  0.00    +0.000 OA
ATOM      4  N   UNL     1       2.972   6.213  17.936  0.00  0.00    +0.000 N 
ATOM      5  H   UNL     1       4.329   4.872  16.356  0.00  0.00    +0.000 HD
ATOM      6  H   UNL     1       2.447   5.815  17.169  0.00  0.00    +0.000 HD
ENDROOT
BRANCH   4   7
ATOM      7  C   UNL     1       2.348   7.214  18.715  0.00  0.00    +0.000 A 
ATOM      8  C   UNL     1       2.038   7.027  20.069  0.00  0.00    +0.000 A 
ATOM      9  C   UNL     1       1.397   8.020  20.806  0.00  0.00    +0.000 A 
ATOM     10  C   UNL     1       1.086   9.231  20.196  0.00  0.00    +0.000 A 
ATOM     11  C   UNL     1       1.382   9.443  18.847  0.00  0.00    +0.000 A 
ATOM     12  C   UNL     1       2.026   8.437  18.113  0.00  0.00    +0.000 A 
BRANCH  10  13
ATOM     13  S   UNL     1       0.305  10.501  21.158  0.00  0.00    +0.000 S 
ATOM     14  C   UNL     1      -0.088   9.660  22.670  0.00  0.00    +0.000 C 
ATOM     15  O   UNL     1       1.305  11.511  21.446  0.00  0.00    +0.000 OA
ATOM     16  O   UNL     1      -0.941  10.854  20.503  0.00  0.00    +0.000 OA
ENDBRANCH  10  13
ENDBRANCH   4   7
BRANCH   1  17
ATOM     17  C   UNL     1       5.759   3.901  17.544  0.00  0.00    +0.000 C 
BRANCH  17  18
ATOM     18  C   UNL     1       6.985   4.602  16.970  0.00  0.00    +0.000 C 
BRANCH  18  23
ATOM     19  C   UNL     1       6.042   3.279  12.269  0.00  0.00    +0.000 C 
ATOM     20  C   UNL     1       6.568   4.040  13.419  0.00  0.00    +0.000 A 
ATOM     21  N   UNL     1       7.311   5.125  13.396  0.00  0.00    +0.000 NA
ATOM     22  N   UNL     1       7.568   5.494  14.692  0.00  0.00    +0.000 NA
ATOM     23  C   UNL     1       6.988   4.620  15.486  0.00  0.00    +0.000 A 
ATOM     24  N   UNL     1       6.335   3.691  14.721  0.00  0.00    +0.000 N 
ATOM     25  H   UNL     1       5.793   2.906  15.051  0.00  0.00    +0.000 HD
ENDBRANCH  18  23
ENDBRANCH  17  18
ENDBRANCH   1  17
TORSDOF 5
ENDMDL
MODEL 2
REMARK VINA RESULT:      -7.4      1.963      3.096
REMARK  Name = 
REMARK  7 active torsions:
REMARK  status: ('A' for Active; 'I' for Inactive)
REMARK    1  A    between atoms: C_1  and  C_2
REMARK    2  A    between atoms: C_5  and  C_6
REMARK    3  A    between atoms: C_6  and  C_7
REMARK    4  A    between atoms: C_7  and  N_8
REMARK    5  A    between atoms: N_11  and  C_12
REMARK    6  A    between atoms: C_15  and  S_16
REMARK    7  A    between atoms: S_16  and  C_17
REMARK                            x       y       z     vdW  Elec       q    Type
REMARK                         _______ _______ _______ _____ _____    ______ ____
ROOT
ATOM      1  N   UNL     1       4.640   4.374  17.206  0.00  0.00    +0.000 N 
ATOM      2  C   UNL     1       4.073   5.624  17.345  0.00  0.00    +0.000 C 
ATOM      3  O   UNL     1       4.287   6.506  16.523  0.00  0.00    +0.000 OA
ATOM      4  N   UNL     1       3.332   5.745  18.500  0.00  0.00    +0.000 N 
ATOM      5  H   UNL     1       4.091   3.589  17.545  0.00  0.00    +0.000 HD
ATOM      6  H   UNL     1       3.451   5.007  19.180  0.00  0.00    +0.000 HD
ENDROOT
BRANCH   4   7
ATOM      7  C   UNL     1       2.638   6.910  18.901  0.00  0.00    +0.000 A 
ATOM      8  C   UNL     1       2.166   7.089  20.209  0.00  0.00    +0.000 A 
ATOM      9  C   UNL     1       1.460   8.235  20.570  0.00  0.00    +0.000 A 
ATOM     10  C   UNL     1       1.246   9.232  19.625  0.00  0.00    +0.000 A 
ATOM     11  C   UNL     1       1.703   9.077  18.313  0.00  0.00    +0.000 A 
ATOM     12  C   UNL     1       2.411   7.920  17.958  0.00  0.00    +0.000 A 
BRANCH  10  13
ATOM     13  S   UNL     1       0.379  10.702  20.110  0.00  0.00    +0.000 S 
ATOM     14  C   UNL     1       1.004  11.916  18.979  0.00  0.00    +0.000 C 
ATOM     15  O   UNL     1      -1.028  10.496  19.824  0.00  0.00    +0.000 OA
ATOM     16  O   UNL     1       0.822  11.061  21.445  0.00  0.00    +0.000 OA
ENDBRANCH  10  13
ENDBRANCH   4   7
BRANCH   1  17
ATOM     17  C   UNL     1       5.413   4.105  16.001  0.00  0.00    +0.000 C 
BRANCH  17  18
ATOM     18  C   UNL     1       6.919   4.126  16.228  0.00  0.00    +0.000 C 
BRANCH  18  23
ATOM     19  C   UNL     1       8.160   8.611  17.987  0.00  0.00    +0.000 C 
ATOM     20  C   UNL     1       7.880   7.162  17.949  0.00  0.00    +0.000 A 
ATOM     21  N   UNL     1       7.950   6.302  18.942  0.00  0.00    +0.000 NA
ATOM     22  N   UNL     1       7.604   5.065  18.459  0.00  0.00    +0.000 NA
ATOM     23  C   UNL     1       7.338   5.188  17.176  0.00  0.00    +0.000 A 
ATOM     24  N   UNL     1       7.490   6.501  16.817  0.00  0.00    +0.000 N 
ATOM     25  H   UNL     1       7.345   6.900  15.901  0.00  0.00    +0.000 HD
ENDBRANCH  18  23
ENDBRANCH  17  18
ENDBRANCH   1  17
TORSDOF 5
ENDMDL
MODEL 3
REMARK VINA RESULT:      -7.4      3.814      4.863
REMARK  Name = 
REMARK  7 active torsions:
REMARK  status: ('A' for Active; 'I' for Inactive)
REMARK    1  A    between atoms: C_1  and  C_2
REMARK    2  A    between atoms: C_5  and  C_6
REMARK    3  A    between atoms: C_6  and  C_7
REMARK    4  A    between atoms: C_7  and  N_8
REMARK    5  A    between atoms: N_11  and  C_12
REMARK    6  A    between atoms: C_15  and  S_16
REMARK    7  A    between atoms: S_16  and  C_17
REMARK                            x       y       z     vdW  Elec       q    Type
REMARK                         _______ _______ _______ _____ _____    ______ ____
ROOT
ATOM      1  N   UNL     1       7.008   4.311  14.364  0.00  0.00    +0.000 N 
ATOM      2  C   UNL     1       6.076   4.746  15.283  0.00  0.00    +0.000 C 
ATOM      3  O   UNL     1       5.741   5.923  15.329  0.00  0.00    +0.000 OA
ATOM      4  N   UNL     1       5.654   3.742  16.127  0.00  0.00    +0.000 N 
ATOM      5  H   UNL     1       6.888   3.365  14.012  0.00  0.00    +0.000 HD
ATOM      6  H   UNL     1       6.200   2.891  16.108  0.00  0.00    +0.000 HD
ENDROOT
BRANCH   4   7
ATOM      7  C   UNL     1       4.705   3.897  17.163  0.00  0.00    +0.000 A 
ATOM      8  C   UNL     1       5.012   4.534  18.374  0.00  0.00    +0.000 A 
ATOM      9  C   UNL     1       4.065   4.647  19.389  0.00  0.00    +0.000 A 
ATOM     10  C   UNL     1       2.784   4.147  19.188  0.00  0.00    +0.000 A 
ATOM     11  C   UNL     1       2.452   3.505  17.992  0.00  0.00    +0.000 A 
ATOM     12  C   UNL     1       3.412   3.393  16.976  0.00  0.00    +0.000 A 
BRANCH  10  13
ATOM     13  S   UNL     1       1.577   4.333  20.475  0.00  0.00    +0.000 S 
ATOM     14  C   UNL     1       2.254   3.353  21.790  0.00  0.00    +0.000 C 
ATOM     15  O   UNL     1       1.590   5.722  20.891  0.00  0.00    +0.000 OA
ATOM     16  O   UNL     1       0.349   3.701  20.031  0.00  0.00    +0.000 OA
ENDBRANCH  10  13
ENDBRANCH   4   7
BRANCH   1  17
ATOM     17  C   UNL     1       7.501   5.270  13.385  0.00  0.00    +0.000 C 
BRANCH  17  18
ATOM     18  C   UNL     1       7.580   4.709  11.970  0.00  0.00    +0.000 C 
BRANCH  18  23
ATOM     19  C   UNL     1       6.135   0.014  11.187  0.00  0.00    +0.000 C 
ATOM     20  C   UNL     1       6.061   1.467  11.432  0.00  0.00    +0.000 A 
ATOM     21  N   UNL     1       4.983   2.210  11.557  0.00  0.00    +0.000 NA
ATOM     22  N   UNL     1       5.379   3.504  11.778  0.00  0.00    +0.000 NA
ATOM     23  C   UNL     1       6.695   3.534  11.773  0.00  0.00    +0.000 A 
ATOM     24  N   UNL     1       7.165   2.263  11.569  0.00  0.00    +0.000 N 
ATOM     25  H   UNL     1       8.131   1.974  11.526  0.00  0.00    +0.000 HD
ENDBRANCH  18  23
ENDBRANCH  17  18
ENDBRANCH   1  17
TORSDOF 5
ENDMDL
MODEL 4
REMARK VINA RESULT:      -7.4      4.969      8.444
REMARK  Name = 
REMARK  7 active torsions:
REMARK  status: ('A' for Active; 'I' for Inactive)
REMARK    1  A    between atoms: C_1  and  C_2
REMARK    2  A    between atoms: C_5  and  C_6
REMARK    3  A    between atoms: C_6  and  C_7
REMARK    4  A    between atoms: C_7  and  N_8
REMARK    5  A    between atoms: N_11  and  C_12
REMARK    6  A    between atoms: C_15  and  S_16
REMARK    7  A    between atoms: S_16  and  C_17
REMARK                            x       y       z     vdW  Elec       q    Type
REMARK                         _______ _______ _______ _____ _____    ______ ____
ROOT
ATOM      1  N   UNL     1       0.704  10.704  19.573  0.00  0.00    +0.000 N 
ATOM      2  C   UNL     1       1.288   9.599  18.990  0.00  0.00    +0.000 C 
ATOM      3  O   UNL     1       1.506   9.564  17.786  0.00  0.00    +0.000 OA
ATOM      4  N   UNL     1       1.515   8.582  19.892  0.00  0.00    +0.000 N 
ATOM      5  H   UNL     1       0.993  10.919  20.523  0.00  0.00    +0.000 HD
ATOM      6  H   UNL     1       1.064   8.680  20.791  0.00  0.00    +0.000 HD
ENDROOT
BRANCH   4   7
ATOM      7  C   UNL     1       2.102   7.334  19.579  0.00  0.00    +0.000 A 
ATOM      8  C   UNL     1       2.894   7.142  18.438  0.00  0.00    +0.000 A 
ATOM      9  C   UNL     1       3.436   5.894  18.139  0.00  0.00    +0.000 A 
ATOM     10  C   UNL     1       3.212   4.827  19.003  0.00  0.00    +0.000 A 
ATOM     11  C   UNL     1       2.425   4.990  20.145  0.00  0.00    +0.000 A 
ATOM     12  C   UNL     1       1.881   6.250  20.437  0.00  0.00    +0.000 A 
BRANCH  10  13
ATOM     13  S   UNL     1       3.942   3.253  18.629  0.00  0.00    +0.000 S 
ATOM     14  C   UNL     1       2.567   2.141  18.772  0.00  0.00    +0.000 C 
ATOM     15  O   UNL     1       4.360   3.282  17.240  0.00  0.00    +0.000 OA
ATOM     16  O   UNL     1       4.888   2.937  19.684  0.00  0.00    +0.000 OA
ENDBRANCH  10  13
ENDBRANCH   4   7
BRANCH   1  17
ATOM     17  C   UNL     1       0.453  11.867  18.732  0.00  0.00    +0.000 C 
BRANCH  17  18
ATOM     18  C   UNL     1      -1.022  12.237  18.630  0.00  0.00    +0.000 C 
BRANCH  18  23
ATOM     19  C   UNL     1      -3.327  10.299  14.672  0.00  0.00    +0.000 C 
ATOM     20  C   UNL     1      -2.801  10.435  16.044  0.00  0.00    +0.000 A 
ATOM     21  N   UNL     1      -2.912   9.581  17.038  0.00  0.00    +0.000 NA
ATOM     22  N   UNL     1      -2.273  10.112  18.130  0.00  0.00    +0.000 NA
ATOM     23  C   UNL     1      -1.791  11.288  17.787  0.00  0.00    +0.000 A 
ATOM     24  N   UNL     1      -2.093  11.524  16.472  0.00  0.00    +0.000 N 
ATOM     25  H   UNL     1      -1.846  12.339  15.930  0.00  0.00    +0.000 HD
ENDBRANCH  18  23
ENDBRANCH  17  18
ENDBRANCH   1  17
TORSDOF 5
ENDMDL
MODEL 5
REMARK VINA RESULT:      -7.2      4.629      8.708
REMARK  Name = 
REMARK  7 active torsions:
REMARK  status: ('A' for Active; 'I' for Inactive)
REMARK    1  A    between atoms: C_1  and  C_2
REMARK    2  A    between atoms: C_5  and  C_6
REMARK    3  A    between atoms: C_6  and  C_7
REMARK    4  A    between atoms: C_7  and  N_8
REMARK    5  A    between atoms: N_11  and  C_12
REMARK    6  A    between atoms: C_15  and  S_16
REMARK    7  A    between atoms: S_16  and  C_17
REMARK                            x       y       z     vdW  Elec       q    Type
REMARK                         _______ _______ _______ _____ _____    ______ ____
ROOT
ATOM      1  N   UNL     1       0.378  10.722  19.631  0.00  0.00    +0.000 N 
ATOM      2  C   UNL     1       0.894   9.596  19.023  0.00  0.00    +0.000 C 
ATOM      3  O   UNL     1       0.783   9.427  17.815  0.00  0.00    +0.000 OA
ATOM      4  N   UNL     1       1.458   8.719  19.923  0.00  0.00    +0.000 N 
ATOM      5  H   UNL     1       0.888  11.074  20.436  0.00  0.00    +0.000 HD
ATOM      6  H   UNL     1       1.257   8.897  20.898  0.00  0.00    +0.000 HD
ENDROOT
BRANCH   4   7
ATOM      7  C   UNL     1       2.063   7.486  19.587  0.00  0.00    +0.000 A 
ATOM      8  C   UNL     1       2.861   7.328  18.445  0.00  0.00    +0.000 A 
ATOM      9  C   UNL     1       3.422   6.095  18.123  0.00  0.00    +0.000 A 
ATOM     10  C   UNL     1       3.212   5.008  18.964  0.00  0.00    +0.000 A 
ATOM     11  C   UNL     1       2.419   5.137  20.107  0.00  0.00    +0.000 A 
ATOM     12  C   UNL     1       1.856   6.382  20.423  0.00  0.00    +0.000 A 
BRANCH  10  13
ATOM     13  S   UNL     1       3.965   3.452  18.560  0.00  0.00    +0.000 S 
ATOM     14  C   UNL     1       4.594   3.735  16.926  0.00  0.00    +0.000 C 
ATOM     15  O   UNL     1       5.091   3.265  19.455  0.00  0.00    +0.000 OA
ATOM     16  O   UNL     1       2.912   2.457  18.471  0.00  0.00    +0.000 OA
ENDBRANCH  10  13
ENDBRANCH   4   7
BRANCH   1  17
ATOM     17  C   UNL     1      -0.208  11.749  18.779  0.00  0.00    +0.000 C 
BRANCH  17  18
ATOM     18  C   UNL     1      -1.700  11.951  19.009  0.00  0.00    +0.000 C 
BRANCH  18  23
ATOM     19  C   UNL     1      -2.893  10.065  14.563  0.00  0.00    +0.000 C 
ATOM     20  C   UNL     1      -3.043  10.671  15.901  0.00  0.00    +0.000 A 
ATOM     21  N   UNL     1      -4.156  11.029  16.503  0.00  0.00    +0.000 NA
ATOM     22  N   UNL     1      -3.830  11.545  17.731  0.00  0.00    +0.000 NA
ATOM     23  C   UNL     1      -2.520  11.505  17.855  0.00  0.00    +0.000 A 
ATOM     24  N   UNL     1      -1.986  10.947  16.723  0.00  0.00    +0.000 N 
ATOM     25  H   UNL     1      -1.009  10.777  16.534  0.00  0.00    +0.000 HD
ENDBRANCH  18  23
ENDBRANCH  17  18
ENDBRANCH   1  17
TORSDOF 5
ENDMDL
MODEL 6
REMARK VINA RESULT:      -7.2      2.085      3.297
REMARK  Name = 
REMARK  7 active torsions:
REMARK  status: ('A' for Active; 'I' for Inactive)
REMARK    1  A    between atoms: C_1  and  C_2
REMARK    2  A    between atoms: C_5  and  C_6
REMARK    3  A    between atoms: C_6  and  C_7
REMARK    4  A    between atoms: C_7  and  N_8
REMARK    5  A    between atoms: N_11  and  C_12
REMARK    6  A    between atoms: C_15  and  S_16
REMARK    7  A    between atoms: S_16  and  C_17
REMARK                            x       y       z     vdW  Elec       q    Type
REMARK                         _______ _______ _______ _____ _____    ______ ____
ROOT
ATOM      1  N   UNL     1       4.181   4.890  17.058  0.00  0.00    +0.000 N 
ATOM      2  C   UNL     1       3.790   6.171  17.388  0.00  0.00    +0.000 C 
ATOM      3  O   UNL     1       4.359   7.145  16.912  0.00  0.00    +0.000 OA
ATOM      4  N   UNL     1       2.775   6.192  18.319  0.00  0.00    +0.000 N 
ATOM      5  H   UNL     1       3.447   4.188  17.029  0.00  0.00    +0.000 HD
ATOM      6  H   UNL     1       2.582   5.314  18.782  0.00  0.00    +0.000 HD
ENDROOT
BRANCH   4   7
ATOM      7  C   UNL     1       2.175   7.361  18.842  0.00  0.00    +0.000 A 
ATOM      8  C   UNL     1       1.734   8.410  18.022  0.00  0.00    +0.000 A 
ATOM      9  C   UNL     1       1.172   9.562  18.566  0.00  0.00    +0.000 A 
ATOM     10  C   UNL     1       1.019   9.663  19.945  0.00  0.00    +0.000 A 
ATOM     11  C   UNL     1       1.452   8.634  20.785  0.00  0.00    +0.000 A 
ATOM     12  C   UNL     1       2.018   7.478  20.228  0.00  0.00    +0.000 A 
BRANCH  10  13
ATOM     13  S   UNL     1       0.266  11.121  20.620  0.00  0.00    +0.000 S 
ATOM     14  C   UNL     1      -0.426  11.904  19.186  0.00  0.00    +0.000 C 
ATOM     15  O   UNL     1      -0.824  10.696  21.477  0.00  0.00    +0.000 OA
ATOM     16  O   UNL     1       1.324  11.974  21.130  0.00  0.00    +0.000 OA
ENDBRANCH  10  13
ENDBRANCH   4   7
BRANCH   1  17
ATOM     17  C   UNL     1       5.219   4.733  16.048  0.00  0.00    +0.000 C 
BRANCH  17  18
ATOM     18  C   UNL     1       6.563   4.301  16.620  0.00  0.00    +0.000 C 
BRANCH  18  23
ATOM     19  C   UNL     1       8.233   8.766  18.037  0.00  0.00    +0.000 C 
ATOM     20  C   UNL     1       7.927   7.323  18.071  0.00  0.00    +0.000 A 
ATOM     21  N   UNL     1       8.197   6.464  19.030  0.00  0.00    +0.000 NA
ATOM     22  N   UNL     1       7.733   5.233  18.643  0.00  0.00    +0.000 NA
ATOM     23  C   UNL     1       7.196   5.357  17.447  0.00  0.00    +0.000 A 
ATOM     24  N   UNL     1       7.288   6.666  17.055  0.00  0.00    +0.000 N 
ATOM     25  H   UNL     1       6.954   7.065  16.190  0.00  0.00    +0.000 HD
ENDBRANCH  18  23
ENDBRANCH  17  18
ENDBRANCH   1  17
TORSDOF 5
ENDMDL
MODEL 7
REMARK VINA RESULT:      -7.2      0.773      1.566
REMARK  Name = 
REMARK  7 active torsions:
REMARK  status: ('A' for Active; 'I' for Inactive)
REMARK    1  A    between atoms: C_1  and  C_2
REMARK    2  A    between atoms: C_5  and  C_6
REMARK    3  A    between atoms: C_6  and  C_7
REMARK    4  A    between atoms: C_7  and  N_8
REMARK    5  A    between atoms: N_11  and  C_12
REMARK    6  A    between atoms: C_15  and  S_16
REMARK    7  A    between atoms: S_16  and  C_17
REMARK                            x       y       z     vdW  Elec       q    Type
REMARK                         _______ _______ _______ _____ _____    ______ ____
ROOT
ATOM      1  N   UNL     1       4.633   4.496  17.302  0.00  0.00    +0.000 N 
ATOM      2  C   UNL     1       4.300   5.592  18.072  0.00  0.00    +0.000 C 
ATOM      3  O   UNL     1       5.065   6.013  18.930  0.00  0.00    +0.000 OA
ATOM      4  N   UNL     1       3.038   6.070  17.796  0.00  0.00    +0.000 N 
ATOM      5  H   UNL     1       4.282   4.492  16.348  0.00  0.00    +0.000 HD
ATOM      6  H   UNL     1       2.451   5.469  17.234  0.00  0.00    +0.000 HD
ENDROOT
BRANCH   4   7
ATOM      7  C   UNL     1       2.434   7.180  18.429  0.00  0.00    +0.000 A 
ATOM      8  C   UNL     1       2.163   8.377  17.750  0.00  0.00    +0.000 A 
ATOM      9  C   UNL     1       1.593   9.465  18.407  0.00  0.00    +0.000 A 
ATOM     10  C   UNL     1       1.257   9.353  19.752  0.00  0.00    +0.000 A 
ATOM     11  C   UNL     1       1.518   8.173  20.453  0.00  0.00    +0.000 A 
ATOM     12  C   UNL     1       2.094   7.083  19.785  0.00  0.00    +0.000 A 
BRANCH  10  13
ATOM     13  S   UNL     1       0.496  10.735  20.564  0.00  0.00    +0.000 S 
ATOM     14  C   UNL     1       1.335  12.122  19.845  0.00  0.00    +0.000 C 
ATOM     15  O   UNL     1      -0.893  10.778  20.147  0.00  0.00    +0.000 OA
ATOM     16  O   UNL     1       0.849  10.675  21.971  0.00  0.00    +0.000 OA
ENDBRANCH  10  13
ENDBRANCH   4   7
BRANCH   1  17
ATOM     17  C   UNL     1       5.962   3.924  17.467  0.00  0.00    +0.000 C 
BRANCH  17  18
ATOM     18  C   UNL     1       7.066   4.752  16.821  0.00  0.00    +0.000 C 
BRANCH  18  23
ATOM     19  C   UNL     1       5.941   3.225  12.223  0.00  0.00    +0.000 C 
ATOM     20  C   UNL     1       6.529   4.022  13.316  0.00  0.00    +0.000 A 
ATOM     21  N   UNL     1       7.315   5.072  13.216  0.00  0.00    +0.000 NA
ATOM     22  N   UNL     1       7.622   5.498  14.483  0.00  0.00    +0.000 NA
ATOM     23  C   UNL     1       7.029   4.693  15.338  0.00  0.00    +0.000 A 
ATOM     24  N   UNL     1       6.317   3.753  14.641  0.00  0.00    +0.000 N 
ATOM     25  H   UNL     1       5.753   3.010  15.026  0.00  0.00    +0.000 HD
ENDBRANCH  18  23
ENDBRANCH  17  18
ENDBRANCH   1  17
TORSDOF 5
ENDMDL
MODEL 8
REMARK VINA RESULT:      -7.1      2.503      3.424
REMARK  Name = 
REMARK  7 active torsions:
REMARK  status: ('A' for Active; 'I' for Inactive)
REMARK    1  A    between atoms: C_1  and  C_2
REMARK    2  A    between atoms: C_5  and  C_6
REMARK    3  A    between atoms: C_6  and  C_7
REMARK    4  A    between atoms: C_7  and  N_8
REMARK    5  A    between atoms: N_11  and  C_12
REMARK    6  A    between atoms: C_15  and  S_16
REMARK    7  A    between atoms: S_16  and  C_17
REMARK                            x       y       z     vdW  Elec       q    Type
REMARK                         _______ _______ _______ _____ _____    ______ ____
ROOT
ATOM      1  N   UNL     1       3.808   4.868  19.432  0.00  0.00    +0.000 N 
ATOM      2  C   UNL     1       2.846   5.800  19.101  0.00  0.00    +0.000 C 
ATOM      3  O   UNL     1       2.221   5.713  18.052  0.00  0.00    +0.000 OA
ATOM      4  N   UNL     1       2.743   6.810  20.033  0.00  0.00    +0.000 N 
ATOM      5  H   UNL     1       3.917   4.663  20.421  0.00  0.00    +0.000 HD
ATOM      6  H   UNL     1       3.489   6.859  20.714  0.00  0.00    +0.000 HD
ENDROOT
BRANCH   4   7
ATOM      7  C   UNL     1       1.843   7.897  19.956  0.00  0.00    +0.000 A 
ATOM      8  C   UNL     1       1.758   8.724  18.827  0.00  0.00    +0.000 A 
ATOM      9  C   UNL     1       0.882   9.806  18.790  0.00  0.00    +0.000 A 
ATOM     10  C   UNL     1       0.055  10.054  19.881  0.00  0.00    +0.000 A 
ATOM     11  C   UNL     1       0.121   9.247  21.020  0.00  0.00    +0.000 A 
ATOM     12  C   UNL     1       1.008   8.161  21.049  0.00  0.00    +0.000 A 
BRANCH  10  13
ATOM     13  S   UNL     1      -1.083  11.413  19.804  0.00  0.00    +0.000 S 
ATOM     14  C   UNL     1      -0.081  12.725  19.153  0.00  0.00    +0.000 C 
ATOM     15  O   UNL     1      -2.095  11.082  18.819  0.00  0.00    +0.000 OA
ATOM     16  O   UNL     1      -1.454  11.762  21.163  0.00  0.00    +0.000 OA
ENDBRANCH  10  13
ENDBRANCH   4   7
BRANCH   1  17
ATOM     17  C   UNL     1       3.983   3.724  18.547  0.00  0.00    +0.000 C 
BRANCH  17  18
ATOM     18  C   UNL     1       5.017   3.954  17.453  0.00  0.00    +0.000 C 
BRANCH  18  23
ATOM     19  C   UNL     1       7.850   8.040  17.616  0.00  0.00    +0.000 C 
ATOM     20  C   UNL     1       7.327   6.698  17.940  0.00  0.00    +0.000 A 
ATOM     21  N   UNL     1       7.772   5.858  18.849  0.00  0.00    +0.000 NA
ATOM     22  N   UNL     1       6.989   4.732  18.808  0.00  0.00    +0.000 NA
ATOM     23  C   UNL     1       6.085   4.898  17.867  0.00  0.00    +0.000 A 
ATOM     24  N   UNL     1       6.257   6.134  17.301  0.00  0.00    +0.000 N 
ATOM     25  H   UNL     1       5.707   6.544  16.561  0.00  0.00    +0.000 HD
ENDBRANCH  18  23
ENDBRANCH  17  18
ENDBRANCH   1  17
TORSDOF 5
ENDMDL
MODEL 9
REMARK VINA RESULT:      -7.1      1.070      1.496
REMARK  Name = 
REMARK  7 active torsions:
REMARK  status: ('A' for Active; 'I' for Inactive)
REMARK    1  A    between atoms: C_1  and  C_2
REMARK    2  A    between atoms: C_5  and  C_6
REMARK    3  A    between atoms: C_6  and  C_7
REMARK    4  A    between atoms: C_7  and  N_8
REMARK    5  A    between atoms: N_11  and  C_12
REMARK    6  A    between atoms: C_15  and  S_16
REMARK    7  A    between atoms: S_16  and  C_17
REMARK                            x       y       z     vdW  Elec       q    Type
REMARK                         _______ _______ _______ _____ _____    ______ ____
ROOT
ATOM      1  N   UNL     1       4.847   4.567  16.990  0.00  0.00    +0.000 N 
ATOM      2  C   UNL     1       4.527   5.763  17.600  0.00  0.00    +0.000 C 
ATOM      3  O   UNL     1       5.400   6.566  17.906  0.00  0.00    +0.000 OA
ATOM      4  N   UNL     1       3.179   5.885  17.855  0.00  0.00    +0.000 N 
ATOM      5  H   UNL     1       4.167   4.202  16.329  0.00  0.00    +0.000 HD
ATOM      6  H   UNL     1       2.633   5.039  17.756  0.00  0.00    +0.000 HD
ENDROOT
BRANCH   4   7
ATOM      7  C   UNL     1       2.565   7.001  18.469  0.00  0.00    +0.000 A 
ATOM      8  C   UNL     1       2.243   7.024  19.833  0.00  0.00    +0.000 A 
ATOM      9  C   UNL     1       1.613   8.127  20.405  0.00  0.00    +0.000 A 
ATOM     10  C   UNL     1       1.325   9.236  19.617  0.00  0.00    +0.000 A 
ATOM     11  C   UNL     1       1.633   9.238  18.254  0.00  0.00    +0.000 A 
ATOM     12  C   UNL     1       2.266   8.122  17.686  0.00  0.00    +0.000 A 
BRANCH  10  13
ATOM     13  S   UNL     1       0.557  10.647  20.369  0.00  0.00    +0.000 S 
ATOM     14  C   UNL     1       1.324  12.006  19.525  0.00  0.00    +0.000 C 
ATOM     15  O   UNL     1      -0.848  10.625  20.012  0.00  0.00    +0.000 OA
ATOM     16  O   UNL     1       0.970  10.691  21.760  0.00  0.00    +0.000 OA
ENDBRANCH  10  13
ENDBRANCH   4   7
BRANCH   1  17
ATOM     17  C   UNL     1       6.239   4.337  16.628  0.00  0.00    +0.000 C 
BRANCH  17  18
ATOM     18  C   UNL     1       6.778   5.342  15.617  0.00  0.00    +0.000 C 
BRANCH  18  23
ATOM     19  C   UNL     1       5.911   2.382  11.715  0.00  0.00    +0.000 C 
ATOM     20  C   UNL     1       6.458   3.488  12.525  0.00  0.00    +0.000 A 
ATOM     21  N   UNL     1       7.296   4.427  12.145  0.00  0.00    +0.000 NA
ATOM     22  N   UNL     1       7.533   5.247  13.219  0.00  0.00    +0.000 NA
ATOM     23  C   UNL     1       6.843   4.789  14.242  0.00  0.00    +0.000 A 
ATOM     24  N   UNL     1       6.140   3.684  13.841  0.00  0.00    +0.000 N 
ATOM     25  H   UNL     1       5.516   3.125  14.404  0.00  0.00    +0.000 HD
ENDBRANCH  18  23
ENDBRANCH  17  18
ENDBRANCH   1  17
TORSDOF 5
ENDMDL
