MODEL 1
REMARK VINA RESULT:      -7.0      0.000      0.000
REMARK  Name = 
REMARK  5 active torsions:
REMARK  status: ('A' for Active; 'I' for Inactive)
REMARK    1  A    between atoms: C_2  and  C_4
REMARK    2  A    between atoms: C_7  and  N_8
REMARK    3  A    between atoms: C_11  and  O_12
REMARK    4  A    between atoms: C_17  and  C_18
REMARK    5  A    between atoms: C_25  and  N_26
REMARK                            x       y       z     vdW  Elec       q    Type
REMARK                         _______ _______ _______ _____ _____    ______ ____
ROOT
ATOM      1  C   UNL     1       1.613   8.727  19.293  0.00  0.00    +0.000 A 
ATOM      2  C   UNL     1       1.971   7.401  19.516  0.00  0.00    +0.000 A 
ATOM      3  C   UNL     1       2.771   6.667  18.619  0.00  0.00    +0.000 A 
ATOM      4  C   UNL     1       3.006   5.246  18.693  0.00  0.00    +0.000 A 
ATOM      5  C   UNL     1       3.848   4.693  17.687  0.00  0.00    +0.000 A 
ATOM      6 BR   UNL     1       3.887   2.800  17.368  0.00  0.00    +0.000 Br
ATOM      7  C   UNL     1       4.512   5.547  16.802  0.00  0.00    +0.000 A 
ATOM      8  N   UNL     1       4.225   6.889  16.763  0.00  0.00    +0.000 NA
ATOM      9  C   UNL     1       3.353   7.426  17.595  0.00  0.00    +0.000 A 
ATOM     10  N   UNL     1       3.077   8.728  17.412  0.00  0.00    +0.000 NA
ATOM     11  C   UNL     1       2.206   9.363  18.221  0.00  0.00    +0.000 A 
ENDROOT
BRANCH   4  12
ATOM     12  N   UNL     1       2.440   4.487  19.732  0.00  0.00    +0.000 N 
ATOM     13  C   UNL     1       1.012   4.142  19.756  0.00  0.00    +0.000 C 
ATOM     14  C   UNL     1       0.850   2.656  20.048  0.00  0.00    +0.000 C 
ATOM     15  C   UNL     1       1.586   2.229  21.316  0.00  0.00    +0.000 C 
ATOM     16  C   UNL     1       3.028   2.734  21.351  0.00  0.00    +0.000 C 
ATOM     17  C   UNL     1       3.135   4.230  21.005  0.00  0.00    +0.000 C 
BRANCH  15  18
ATOM     18  O   UNL     1       0.877   2.656  22.476  0.00  0.00    +0.000 OA
ATOM     19  H   UNL     1       0.133   3.218  22.208  0.00  0.00    +0.000 HD
ENDBRANCH  15  18
ENDBRANCH   4  12
BRANCH   1  21
ATOM     20  N   UNL     1       0.675   9.036  21.523  0.00  0.00    +0.000 N 
ATOM     21  C   UNL     1       0.585   9.307  20.189  0.00  0.00    +0.000 C 
ATOM     22  O   UNL     1      -0.278  10.065  19.760  0.00  0.00    +0.000 OA
ATOM     23  H   UNL     1       0.064   9.543  22.150  0.00  0.00    +0.000 HD
ATOM     24  H   UNL     1       1.470   8.537  21.910  0.00  0.00    +0.000 HD
ENDBRANCH   1  21
BRANCH   7  25
ATOM     25  C   UNL     1       5.596   5.105  15.830  0.00  0.00    +0.000 C 
ATOM     26  F   UNL     1       6.559   4.276  16.323  0.00  0.00    +0.000 F 
ATOM     27  F   UNL     1       5.093   4.461  14.735  0.00  0.00    +0.000 F 
ATOM     28  F   UNL     1       6.303   6.169  15.332  0.00  0.00    +0.000 F 
ENDBRANCH   7  25
BRANCH  11  29
ATOM     29  N   UNL     1       1.933  10.689  17.877  0.00  0.00    +0.000 N 
ATOM     30  H   UNL     1       1.702  11.181  18.741  0.00  0.00    +0.000 HD
ATOM     31  H   UNL     1       1.173  10.745  17.204  0.00  0.00    +0.000 HD
ENDBRANCH  11  29
TORSDOF 5
ENDMDL
MODEL 2
REMARK VINA RESULT:      -7.0      4.374      6.503
REMARK  Name = 
REMARK  5 active torsions:
REMARK  status: ('A' for Active; 'I' for Inactive)
REMARK    1  A    between atoms: C_2  and  C_4
REMARK    2  A    between atoms: C_7  and  N_8
REMARK    3  A    between atoms: C_11  and  O_12
REMARK    4  A    between atoms: C_17  and  C_18
REMARK    5  A    between atoms: C_25  and  N_26
REMARK                            x       y       z     vdW  Elec       q    Type
REMARK                         _______ _______ _______ _____ _____    ______ ____
ROOT
ATOM      1  C   UNL     1       5.810   3.671  12.913  0.00  0.00    +0.000 A 
ATOM      2  C   UNL     1       5.220   3.785  14.168  0.00  0.00    +0.000 A 
ATOM      3  C   UNL     1       5.793   4.536  15.213  0.00  0.00    +0.000 A 
ATOM      4  C   UNL     1       5.338   4.529  16.582  0.00  0.00    +0.000 A 
ATOM      5  C   UNL     1       6.055   5.360  17.488  0.00  0.00    +0.000 A 
ATOM      6 BR   UNL     1       5.888   5.121  19.386  0.00  0.00    +0.000 Br
ATOM      7  C   UNL     1       7.028   6.235  16.995  0.00  0.00    +0.000 A 
ATOM      8  N   UNL     1       7.435   6.175  15.685  0.00  0.00    +0.000 NA
ATOM      9  C   UNL     1       6.886   5.327  14.836  0.00  0.00    +0.000 A 
ATOM     10  N   UNL     1       7.420   5.286  13.605  0.00  0.00    +0.000 NA
ATOM     11  C   UNL     1       6.917   4.457  12.668  0.00  0.00    +0.000 A 
ENDROOT
BRANCH   4  12
ATOM     12  N   UNL     1       4.229   3.751  16.957  0.00  0.00    +0.000 N 
ATOM     13  C   UNL     1       4.325   2.298  17.147  0.00  0.00    +0.000 C 
ATOM     14  C   UNL     1       3.669   1.910  18.466  0.00  0.00    +0.000 C 
ATOM     15  C   UNL     1       2.238   2.432  18.579  0.00  0.00    +0.000 C 
ATOM     16  C   UNL     1       2.127   3.912  18.220  0.00  0.00    +0.000 C 
ATOM     17  C   UNL     1       2.845   4.253  16.903  0.00  0.00    +0.000 C 
BRANCH  15  18
ATOM     18  O   UNL     1       1.355   1.654  17.774  0.00  0.00    +0.000 OA
ATOM     19  H   UNL     1       1.862   1.226  17.066  0.00  0.00    +0.000 HD
ENDBRANCH  15  18
ENDBRANCH   4  12
BRANCH   1  21
ATOM     20  N   UNL     1       5.931   1.520  11.768  0.00  0.00    +0.000 N 
ATOM     21  C   UNL     1       5.230   2.670  11.986  0.00  0.00    +0.000 C 
ATOM     22  O   UNL     1       4.124   2.834  11.485  0.00  0.00    +0.000 OA
ATOM     23  H   UNL     1       5.475   0.780  11.252  0.00  0.00    +0.000 HD
ATOM     24  H   UNL     1       6.773   1.306  12.292  0.00  0.00    +0.000 HD
ENDBRANCH   1  21
BRANCH   7  25
ATOM     25  C   UNL     1       7.707   7.320  17.819  0.00  0.00    +0.000 C 
ATOM     26  F   UNL     1       8.413   6.907  18.909  0.00  0.00    +0.000 F 
ATOM     27  F   UNL     1       8.581   8.070  17.085  0.00  0.00    +0.000 F 
ATOM     28  F   UNL     1       6.803   8.213  18.332  0.00  0.00    +0.000 F 
ENDBRANCH   7  25
BRANCH  11  29
ATOM     29  N   UNL     1       7.611   4.437  11.456  0.00  0.00    +0.000 N 
ATOM     30  H   UNL     1       7.200   3.697  10.888  0.00  0.00    +0.000 HD
ATOM     31  H   UNL     1       8.606   4.282  11.605  0.00  0.00    +0.000 HD
ENDBRANCH  11  29
TORSDOF 5
ENDMDL
MODEL 3
REMARK VINA RESULT:      -7.0      4.058      6.904
REMARK  Name = 
REMARK  5 active torsions:
REMARK  status: ('A' for Active; 'I' for Inactive)
REMARK    1  A    between atoms: C_2  and  C_4
REMARK    2  A    between atoms: C_7  and  N_8
REMARK    3  A    between atoms: C_11  and  O_12
REMARK    4  A    between atoms: C_17  and  C_18
REMARK    5  A    between atoms: C_25  and  N_26
REMARK                            x       y       z     vdW  Elec       q    Type
REMARK                         _______ _______ _______ _____ _____    ______ ____
ROOT
ATOM      1  C   UNL     1       3.843   2.608  20.375  0.00  0.00    +0.000 A 
ATOM      2  C   UNL     1       4.225   3.723  19.635  0.00  0.00    +0.000 A 
ATOM      3  C   UNL     1       3.489   4.925  19.636  0.00  0.00    +0.000 A 
ATOM      4  C   UNL     1       3.718   6.036  18.745  0.00  0.00    +0.000 A 
ATOM      5  C   UNL     1       2.864   7.161  18.907  0.00  0.00    +0.000 A 
ATOM      6 BR   UNL     1       2.726   8.499  17.537  0.00  0.00    +0.000 Br
ATOM      7  C   UNL     1       1.979   7.201  19.990  0.00  0.00    +0.000 A 
ATOM      8  N   UNL     1       1.787   6.100  20.787  0.00  0.00    +0.000 NA
ATOM      9  C   UNL     1       2.468   4.987  20.593  0.00  0.00    +0.000 A 
ATOM     10  N   UNL     1       2.137   3.943  21.369  0.00  0.00    +0.000 NA
ATOM     11  C   UNL     1       2.787   2.768  21.248  0.00  0.00    +0.000 A 
ENDROOT
BRANCH   4  12
ATOM     12  N   UNL     1       4.757   5.982  17.798  0.00  0.00    +0.000 N 
ATOM     13  C   UNL     1       5.989   6.767  17.950  0.00  0.00    +0.000 C 
ATOM     14  C   UNL     1       7.198   5.870  17.717  0.00  0.00    +0.000 C 
ATOM     15  C   UNL     1       7.125   5.130  16.384  0.00  0.00    +0.000 C 
ATOM     16  C   UNL     1       5.774   4.450  16.168  0.00  0.00    +0.000 C 
ATOM     17  C   UNL     1       4.590   5.390  16.460  0.00  0.00    +0.000 C 
BRANCH  15  18
ATOM     18  O   UNL     1       7.421   6.010  15.303  0.00  0.00    +0.000 OA
ATOM     19  H   UNL     1       7.586   6.900  15.652  0.00  0.00    +0.000 HD
ENDBRANCH  15  18
ENDBRANCH   4  12
BRANCH   1  21
ATOM     20  N   UNL     1       4.350   0.725  18.910  0.00  0.00    +0.000 N 
ATOM     21  C   UNL     1       4.567   1.343  20.106  0.00  0.00    +0.000 C 
ATOM     22  O   UNL     1       5.390   0.901  20.900  0.00  0.00    +0.000 OA
ATOM     23  H   UNL     1       4.946  -0.056  18.666  0.00  0.00    +0.000 HD
ATOM     24  H   UNL     1       3.789   1.159  18.184  0.00  0.00    +0.000 HD
ENDBRANCH   1  21
BRANCH   7  25
ATOM     25  C   UNL     1       1.173   8.426  20.398  0.00  0.00    +0.000 C 
ATOM     26  F   UNL     1       0.613   9.153  19.390  0.00  0.00    +0.000 F 
ATOM     27  F   UNL     1       0.140   8.122  21.239  0.00  0.00    +0.000 F 
ATOM     28  F   UNL     1       1.938   9.339  21.075  0.00  0.00    +0.000 F 
ENDBRANCH   7  25
BRANCH  11  29
ATOM     29  N   UNL     1       2.295   1.731  22.045  0.00  0.00    +0.000 N 
ATOM     30  H   UNL     1       3.002   1.537  22.755  0.00  0.00    +0.000 HD
ATOM     31  H   UNL     1       2.093   0.904  21.488  0.00  0.00    +0.000 HD
ENDBRANCH  11  29
TORSDOF 5
ENDMDL
MODEL 4
REMARK VINA RESULT:      -6.6      3.686      5.267
REMARK  Name = 
REMARK  5 active torsions:
REMARK  status: ('A' for Active; 'I' for Inactive)
REMARK    1  A    between atoms: C_2  and  C_4
REMARK    2  A    between atoms: C_7  and  N_8
REMARK    3  A    between atoms: C_11  and  O_12
REMARK    4  A    between atoms: C_17  and  C_18
REMARK    5  A    between atoms: C_25  and  N_26
REMARK                            x       y       z     vdW  Elec       q    Type
REMARK                         _______ _______ _______ _____ _____    ______ ____
ROOT
ATOM      1  C   UNL     1       4.557   5.148  16.932  0.00  0.00    +0.000 A 
ATOM      2  C   UNL     1       3.591   5.149  17.933  0.00  0.00    +0.000 A 
ATOM      3  C   UNL     1       2.989   6.332  18.408  0.00  0.00    +0.000 A 
ATOM      4  C   UNL     1       2.138   6.418  19.570  0.00  0.00    +0.000 A 
ATOM      5  C   UNL     1       1.628   7.709  19.883  0.00  0.00    +0.000 A 
ATOM      6 BR   UNL     1       0.884   8.080  21.614  0.00  0.00    +0.000 Br
ATOM      7  C   UNL     1       1.838   8.765  18.991  0.00  0.00    +0.000 A 
ATOM      8  N   UNL     1       2.680   8.627  17.916  0.00  0.00    +0.000 NA
ATOM      9  C   UNL     1       3.278   7.479  17.658  0.00  0.00    +0.000 A 
ATOM     10  N   UNL     1       4.151   7.478  16.639  0.00  0.00    +0.000 NA
ATOM     11  C   UNL     1       4.801   6.347  16.296  0.00  0.00    +0.000 A 
ENDROOT
BRANCH   4  12
ATOM     12  N   UNL     1       1.831   5.263  20.311  0.00  0.00    +0.000 N 
ATOM     13  C   UNL     1       0.522   4.602  20.215  0.00  0.00    +0.000 C 
ATOM     14  C   UNL     1       0.719   3.104  20.019  0.00  0.00    +0.000 C 
ATOM     15  C   UNL     1       1.619   2.492  21.089  0.00  0.00    +0.000 C 
ATOM     16  C   UNL     1       2.908   3.285  21.292  0.00  0.00    +0.000 C 
ATOM     17  C   UNL     1       2.652   4.795  21.440  0.00  0.00    +0.000 C 
BRANCH  15  18
ATOM     18  O   UNL     1       0.914   2.358  22.321  0.00  0.00    +0.000 OA
ATOM     19  H   UNL     1       1.146   1.510  22.732  0.00  0.00    +0.000 HD
ENDBRANCH  15  18
ENDBRANCH   4  12
BRANCH   1  21
ATOM     20  N   UNL     1       4.702   2.723  17.153  0.00  0.00    +0.000 N 
ATOM     21  C   UNL     1       5.272   3.872  16.690  0.00  0.00    +0.000 C 
ATOM     22  O   UNL     1       6.306   3.838  16.033  0.00  0.00    +0.000 OA
ATOM     23  H   UNL     1       5.112   1.844  16.868  0.00  0.00    +0.000 HD
ATOM     24  H   UNL     1       3.774   2.720  17.565  0.00  0.00    +0.000 HD
ENDBRANCH   1  21
BRANCH   7  25
ATOM     25  C   UNL     1       1.169  10.128  19.099  0.00  0.00    +0.000 C 
ATOM     26  F   UNL     1       1.364  10.814  20.261  0.00  0.00    +0.000 F 
ATOM     27  F   UNL     1       1.554  10.985  18.107  0.00  0.00    +0.000 F 
ATOM     28  F   UNL     1      -0.194  10.039  18.995  0.00  0.00    +0.000 F 
ENDBRANCH   7  25
BRANCH  11  29
ATOM     29  N   UNL     1       5.749   6.490  15.280  0.00  0.00    +0.000 N 
ATOM     30  H   UNL     1       5.238   6.553  14.399  0.00  0.00    +0.000 HD
ATOM     31  H   UNL     1       6.402   5.710  15.274  0.00  0.00    +0.000 HD
ENDBRANCH  11  29
TORSDOF 5
ENDMDL
MODEL 5
REMARK VINA RESULT:      -6.4      3.335      5.169
REMARK  Name = 
REMARK  5 active torsions:
REMARK  status: ('A' for Active; 'I' for Inactive)
REMARK    1  A    between atoms: C_2  and  C_4
REMARK    2  A    between atoms: C_7  and  N_8
REMARK    3  A    between atoms: C_11  and  O_12
REMARK    4  A    between atoms: C_17  and  C_18
REMARK    5  A    between atoms: C_25  and  N_26
REMARK                            x       y       z     vdW  Elec       q    Type
REMARK                         _______ _______ _______ _____ _____    ______ ____
ROOT
ATOM      1  C   UNL     1       1.635   8.781  19.334  0.00  0.00    +0.000 A 
ATOM      2  C   UNL     1       2.311   7.718  18.743  0.00  0.00    +0.000 A 
ATOM      3  C   UNL     1       2.417   6.452  19.352  0.00  0.00    +0.000 A 
ATOM      4  C   UNL     1       3.266   5.380  18.890  0.00  0.00    +0.000 A 
ATOM      5  C   UNL     1       3.229   4.176  19.647  0.00  0.00    +0.000 A 
ATOM      6 BR   UNL     1       4.605   2.851  19.456  0.00  0.00    +0.000 Br
ATOM      7  C   UNL     1       2.286   4.037  20.671  0.00  0.00    +0.000 A 
ATOM      8  N   UNL     1       1.525   5.103  21.082  0.00  0.00    +0.000 NA
ATOM      9  C   UNL     1       1.618   6.279  20.490  0.00  0.00    +0.000 A 
ATOM     10  N   UNL     1       0.899   7.276  21.029  0.00  0.00    +0.000 NA
ATOM     11  C   UNL     1       0.924   8.509  20.484  0.00  0.00    +0.000 A 
ENDROOT
BRANCH   4  12
ATOM     12  N   UNL     1       4.051   5.546  17.736  0.00  0.00    +0.000 N 
ATOM     13  C   UNL     1       4.795   6.785  17.471  0.00  0.00    +0.000 C 
ATOM     14  C   UNL     1       6.227   6.447  17.078  0.00  0.00    +0.000 C 
ATOM     15  C   UNL     1       6.293   5.455  15.920  0.00  0.00    +0.000 C 
ATOM     16  C   UNL     1       5.387   4.244  16.137  0.00  0.00    +0.000 C 
ATOM     17  C   UNL     1       3.967   4.643  16.575  0.00  0.00    +0.000 C 
BRANCH  15  18
ATOM     18  O   UNL     1       5.980   6.099  14.687  0.00  0.00    +0.000 OA
ATOM     19  H   UNL     1       6.796   6.223  14.176  0.00  0.00    +0.000 HD
ENDBRANCH  15  18
ENDBRANCH   4  12
BRANCH   1  21
ATOM     20  N   UNL     1       2.243  10.160  17.416  0.00  0.00    +0.000 N 
ATOM     21  C   UNL     1       1.795  10.113  18.704  0.00  0.00    +0.000 C 
ATOM     22  O   UNL     1       1.468  11.138  19.291  0.00  0.00    +0.000 OA
ATOM     23  H   UNL     1       2.217  11.052  16.939  0.00  0.00    +0.000 HD
ATOM     24  H   UNL     1       2.372   9.315  16.869  0.00  0.00    +0.000 HD
ENDBRANCH   1  21
BRANCH   7  25
ATOM     25  C   UNL     1       2.000   2.735  21.406  0.00  0.00    +0.000 C 
ATOM     26  F   UNL     1       3.033   2.188  22.105  0.00  0.00    +0.000 F 
ATOM     27  F   UNL     1       0.978   2.851  22.305  0.00  0.00    +0.000 F 
ATOM     28  F   UNL     1       1.618   1.737  20.548  0.00  0.00    +0.000 F 
ENDBRANCH   7  25
BRANCH  11  29
ATOM     29  N   UNL     1       0.207   9.483  21.184  0.00  0.00    +0.000 N 
ATOM     30  H   UNL     1      -0.327  10.015  20.495  0.00  0.00    +0.000 HD
ATOM     31  H   UNL     1       0.829  10.086  21.717  0.00  0.00    +0.000 HD
ENDBRANCH  11  29
TORSDOF 5
ENDMDL
MODEL 6
REMARK VINA RESULT:      -6.4      4.110      6.959
REMARK  Name = 
REMARK  5 active torsions:
REMARK  status: ('A' for Active; 'I' for Inactive)
REMARK    1  A    between atoms: C_2  and  C_4
REMARK    2  A    between atoms: C_7  and  N_8
REMARK    3  A    between atoms: C_11  and  O_12
REMARK    4  A    between atoms: C_17  and  C_18
REMARK    5  A    between atoms: C_25  and  N_26
REMARK                            x       y       z     vdW  Elec       q    Type
REMARK                         _______ _______ _______ _____ _____    ______ ____
ROOT
ATOM      1  C   UNL     1       3.806   2.605  20.458  0.00  0.00    +0.000 A 
ATOM      2  C   UNL     1       4.189   3.743  19.755  0.00  0.00    +0.000 A 
ATOM      3  C   UNL     1       3.435   4.933  19.764  0.00  0.00    +0.000 A 
ATOM      4  C   UNL     1       3.670   6.067  18.905  0.00  0.00    +0.000 A 
ATOM      5  C   UNL     1       2.794   7.176  19.071  0.00  0.00    +0.000 A 
ATOM      6 BR   UNL     1       2.671   8.543  17.728  0.00  0.00    +0.000 Br
ATOM      7  C   UNL     1       1.880   7.177  20.129  0.00  0.00    +0.000 A 
ATOM      8  N   UNL     1       1.685   6.055  20.896  0.00  0.00    +0.000 NA
ATOM      9  C   UNL     1       2.388   4.957  20.694  0.00  0.00    +0.000 A 
ATOM     10  N   UNL     1       2.054   3.890  21.437  0.00  0.00    +0.000 NA
ATOM     11  C   UNL     1       2.725   2.728  21.306  0.00  0.00    +0.000 A 
ENDROOT
BRANCH   4  12
ATOM     12  N   UNL     1       4.734   6.052  17.985  0.00  0.00    +0.000 N 
ATOM     13  C   UNL     1       4.580   5.516  16.626  0.00  0.00    +0.000 C 
ATOM     14  C   UNL     1       5.157   6.503  15.619  0.00  0.00    +0.000 C 
ATOM     15  C   UNL     1       6.596   6.893  15.946  0.00  0.00    +0.000 C 
ATOM     16  C   UNL     1       6.774   7.295  17.409  0.00  0.00    +0.000 C 
ATOM     17  C   UNL     1       6.134   6.284  18.378  0.00  0.00    +0.000 C 
BRANCH  15  18
ATOM     18  O   UNL     1       7.492   5.838  15.604  0.00  0.00    +0.000 OA
ATOM     19  H   UNL     1       7.014   5.165  15.094  0.00  0.00    +0.000 HD
ENDBRANCH  15  18
ENDBRANCH   4  12
BRANCH   1  21
ATOM     20  N   UNL     1       4.356   0.746  18.976  0.00  0.00    +0.000 N 
ATOM     21  C   UNL     1       4.557   1.357  20.180  0.00  0.00    +0.000 C 
ATOM     22  O   UNL     1       5.386   0.925  20.971  0.00  0.00    +0.000 OA
ATOM     23  H   UNL     1       4.968  -0.019  18.728  0.00  0.00    +0.000 HD
ATOM     24  H   UNL     1       3.788   1.175  18.253  0.00  0.00    +0.000 HD
ENDBRANCH   1  21
BRANCH   7  25
ATOM     25  C   UNL     1       1.045   8.379  20.544  0.00  0.00    +0.000 C 
ATOM     26  F   UNL     1       0.520   9.135  19.539  0.00  0.00    +0.000 F 
ATOM     27  F   UNL     1      -0.019   8.037  21.330  0.00  0.00    +0.000 F 
ATOM     28  F   UNL     1       1.770   9.276  21.284  0.00  0.00    +0.000 F 
ENDBRANCH   7  25
BRANCH  11  29
ATOM     29  N   UNL     1       2.229   1.665  22.066  0.00  0.00    +0.000 N 
ATOM     30  H   UNL     1       1.605   2.064  22.768  0.00  0.00    +0.000 HD
ATOM     31  H   UNL     1       2.984   1.138  22.497  0.00  0.00    +0.000 HD
ENDBRANCH  11  29
TORSDOF 5
ENDMDL
MODEL 7
REMARK VINA RESULT:      -6.3      8.869     10.927
REMARK  Name = 
REMARK  5 active torsions:
REMARK  status: ('A' for Active; 'I' for Inactive)
REMARK    1  A    between atoms: C_2  and  C_4
REMARK    2  A    between atoms: C_7  and  N_8
REMARK    3  A    between atoms: C_11  and  O_12
REMARK    4  A    between atoms: C_17  and  C_18
REMARK    5  A    between atoms: C_25  and  N_26
REMARK                            x       y       z     vdW  Elec       q    Type
REMARK                         _______ _______ _______ _____ _____    ______ ____
ROOT
ATOM      1  C   UNL     1      -3.984  11.561  17.972  0.00  0.00    +0.000 A 
ATOM      2  C   UNL     1      -2.998  11.884  18.899  0.00  0.00    +0.000 A 
ATOM      3  C   UNL     1      -3.295  12.349  20.196  0.00  0.00    +0.000 A 
ATOM      4  C   UNL     1      -2.330  12.886  21.123  0.00  0.00    +0.000 A 
ATOM      5  C   UNL     1      -2.834  13.304  22.387  0.00  0.00    +0.000 A 
ATOM      6 BR   UNL     1      -1.798  14.443  23.533  0.00  0.00    +0.000 Br
ATOM      7  C   UNL     1      -4.166  13.035  22.717  0.00  0.00    +0.000 A 
ATOM      8  N   UNL     1      -5.043  12.546  21.781  0.00  0.00    +0.000 NA
ATOM      9  C   UNL     1      -4.647  12.264  20.554  0.00  0.00    +0.000 A 
ATOM     10  N   UNL     1      -5.602  11.880  19.692  0.00  0.00    +0.000 NA
ATOM     11  C   UNL     1      -5.289  11.561  18.421  0.00  0.00    +0.000 A 
ENDROOT
BRANCH   4  12
ATOM     12  N   UNL     1      -0.970  12.953  20.772  0.00  0.00    +0.000 N 
ATOM     13  C   UNL     1       0.025  12.028  21.333  0.00  0.00    +0.000 C 
ATOM     14  C   UNL     1       0.883  11.459  20.210  0.00  0.00    +0.000 C 
ATOM     15  C   UNL     1       1.507  12.551  19.345  0.00  0.00    +0.000 C 
ATOM     16  C   UNL     1       0.486  13.598  18.901  0.00  0.00    +0.000 C 
ATOM     17  C   UNL     1      -0.381  14.104  20.068  0.00  0.00    +0.000 C 
BRANCH  15  18
ATOM     18  O   UNL     1       2.596  13.170  20.025  0.00  0.00    +0.000 OA
ATOM     19  H   UNL     1       3.181  12.483  20.382  0.00  0.00    +0.000 HD
ENDBRANCH  15  18
ENDBRANCH   4  12
BRANCH   1  21
ATOM     20  N   UNL     1      -2.255  11.622  16.253  0.00  0.00    +0.000 N 
ATOM     21  C   UNL     1      -3.541  11.308  16.580  0.00  0.00    +0.000 C 
ATOM     22  O   UNL     1      -4.282  10.769  15.766  0.00  0.00    +0.000 OA
ATOM     23  H   UNL     1      -1.910  11.320  15.351  0.00  0.00    +0.000 HD
ATOM     24  H   UNL     1      -1.589  11.926  16.956  0.00  0.00    +0.000 HD
ENDBRANCH   1  21
BRANCH   7  25
ATOM     25  C   UNL     1      -4.766  13.232  24.102  0.00  0.00    +0.000 C 
ATOM     26  F   UNL     1      -4.075  12.699  25.149  0.00  0.00    +0.000 F 
ATOM     27  F   UNL     1      -4.940  14.549  24.419  0.00  0.00    +0.000 F 
ATOM     28  F   UNL     1      -6.009  12.665  24.207  0.00  0.00    +0.000 F 
ENDBRANCH   7  25
BRANCH  11  29
ATOM     29  N   UNL     1      -6.377  11.264  17.596  0.00  0.00    +0.000 N 
ATOM     30  H   UNL     1      -6.021  11.199  16.642  0.00  0.00    +0.000 HD
ATOM     31  H   UNL     1      -7.101  11.974  17.674  0.00  0.00    +0.000 HD
ENDBRANCH  11  29
TORSDOF 5
ENDMDL
MODEL 8
REMARK VINA RESULT:      -6.3      9.017     11.103
REMARK  Name = 
REMARK  5 active torsions:
REMARK  status: ('A' for Active; 'I' for Inactive)
REMARK    1  A    between atoms: C_2  and  C_4
REMARK    2  A    between atoms: C_7  and  N_8
REMARK    3  A    between atoms: C_11  and  O_12
REMARK    4  A    between atoms: C_17  and  C_18
REMARK    5  A    between atoms: C_25  and  N_26
REMARK                            x       y       z     vdW  Elec       q    Type
REMARK                         _______ _______ _______ _____ _____    ______ ____
ROOT
ATOM      1  C   UNL     1      -4.007  11.620  17.961  0.00  0.00    +0.000 A 
ATOM      2  C   UNL     1      -3.188  11.866  19.059  0.00  0.00    +0.000 A 
ATOM      3  C   UNL     1      -3.693  12.277  20.308  0.00  0.00    +0.000 A 
ATOM      4  C   UNL     1      -2.889  12.738  21.414  0.00  0.00    +0.000 A 
ATOM      5  C   UNL     1      -3.593  13.109  22.593  0.00  0.00    +0.000 A 
ATOM      6 BR   UNL     1      -2.742  14.158  23.958  0.00  0.00    +0.000 Br
ATOM      7  C   UNL     1      -4.968  12.868  22.677  0.00  0.00    +0.000 A 
ATOM      8  N   UNL     1      -5.682  12.453  21.580  0.00  0.00    +0.000 NA
ATOM      9  C   UNL     1      -5.088  12.218  20.426  0.00  0.00    +0.000 A 
ATOM     10  N   UNL     1      -5.889  11.908  19.395  0.00  0.00    +0.000 NA
ATOM     11  C   UNL     1      -5.369  11.641  18.180  0.00  0.00    +0.000 A 
ENDROOT
BRANCH   4  12
ATOM     12  N   UNL     1      -1.488  12.777  21.304  0.00  0.00    +0.000 N 
ATOM     13  C   UNL     1      -0.626  11.791  21.970  0.00  0.00    +0.000 C 
ATOM     14  C   UNL     1       0.398  11.254  20.979  0.00  0.00    +0.000 C 
ATOM     15  C   UNL     1       1.187  12.370  20.298  0.00  0.00    +0.000 C 
ATOM     16  C   UNL     1       0.283  13.472  19.749  0.00  0.00    +0.000 C 
ATOM     17  C   UNL     1      -0.759  13.944  20.778  0.00  0.00    +0.000 C 
BRANCH  15  18
ATOM     18  O   UNL     1       2.158  12.915  21.188  0.00  0.00    +0.000 OA
ATOM     19  H   UNL     1       2.725  13.534  20.702  0.00  0.00    +0.000 HD
ENDBRANCH  15  18
ENDBRANCH   4  12
BRANCH   1  21
ATOM     20  N   UNL     1      -2.016  11.744  16.558  0.00  0.00    +0.000 N 
ATOM     21  C   UNL     1      -3.338  11.421  16.654  0.00  0.00    +0.000 C 
ATOM     22  O   UNL     1      -3.930  10.916  15.707  0.00  0.00    +0.000 OA
ATOM     23  H   UNL     1      -1.525  11.477  15.715  0.00  0.00    +0.000 HD
ATOM     24  H   UNL     1      -1.478  12.019  17.373  0.00  0.00    +0.000 HD
ENDBRANCH   1  21
BRANCH   7  25
ATOM     25  C   UNL     1      -5.792  13.017  23.948  0.00  0.00    +0.000 C 
ATOM     26  F   UNL     1      -6.031  14.288  24.376  0.00  0.00    +0.000 F 
ATOM     27  F   UNL     1      -7.022  12.432  23.851  0.00  0.00    +0.000 F 
ATOM     28  F   UNL     1      -5.188  12.417  25.023  0.00  0.00    +0.000 F 
ENDBRANCH   7  25
BRANCH  11  29
ATOM     29  N   UNL     1      -6.306  11.419  17.167  0.00  0.00    +0.000 N 
ATOM     30  H   UNL     1      -6.143  10.478  16.808  0.00  0.00    +0.000 HD
ATOM     31  H   UNL     1      -6.223  12.117  16.431  0.00  0.00    +0.000 HD
ENDBRANCH  11  29
TORSDOF 5
ENDMDL
MODEL 9
REMARK VINA RESULT:      -6.1      0.680      1.188
REMARK  Name = 
REMARK  5 active torsions:
REMARK  status: ('A' for Active; 'I' for Inactive)
REMARK    1  A    between atoms: C_2  and  C_4
REMARK    2  A    between atoms: C_7  and  N_8
REMARK    3  A    between atoms: C_11  and  O_12
REMARK    4  A    between atoms: C_17  and  C_18
REMARK    5  A    between atoms: C_25  and  N_26
REMARK                            x       y       z     vdW  Elec       q    Type
REMARK                         _______ _______ _______ _____ _____    ______ ____
ROOT
ATOM      1  C   UNL     1       1.872   8.363  19.148  0.00  0.00    +0.000 A 
ATOM      2  C   UNL     1       2.269   7.037  19.294  0.00  0.00    +0.000 A 
ATOM      3  C   UNL     1       3.057   6.368  18.336  0.00  0.00    +0.000 A 
ATOM      4  C   UNL     1       3.329   4.952  18.332  0.00  0.00    +0.000 A 
ATOM      5  C   UNL     1       4.149   4.470  17.274  0.00  0.00    +0.000 A 
ATOM      6 BR   UNL     1       4.224   2.597  16.860  0.00  0.00    +0.000 Br
ATOM      7  C   UNL     1       4.762   5.384  16.410  0.00  0.00    +0.000 A 
ATOM      8  N   UNL     1       4.440   6.718  16.447  0.00  0.00    +0.000 NA
ATOM      9  C   UNL     1       3.584   7.191  17.332  0.00  0.00    +0.000 A 
ATOM     10  N   UNL     1       3.271   8.492  17.223  0.00  0.00    +0.000 NA
ATOM     11  C   UNL     1       2.413   9.065  18.091  0.00  0.00    +0.000 A 
ENDROOT
BRANCH   4  12
ATOM     12  N   UNL     1       2.817   4.129  19.351  0.00  0.00    +0.000 N 
ATOM     13  C   UNL     1       3.525   3.933  20.623  0.00  0.00    +0.000 C 
ATOM     14  C   UNL     1       2.554   4.120  21.782  0.00  0.00    +0.000 C 
ATOM     15  C   UNL     1       1.315   3.239  21.649  0.00  0.00    +0.000 C 
ATOM     16  C   UNL     1       0.680   3.330  20.263  0.00  0.00    +0.000 C 
ATOM     17  C   UNL     1       1.714   3.179  19.133  0.00  0.00    +0.000 C 
BRANCH  15  18
ATOM     18  O   UNL     1       1.624   1.885  21.971  0.00  0.00    +0.000 OA
ATOM     19  H   UNL     1       1.439   1.730  22.911  0.00  0.00    +0.000 HD
ENDBRANCH  15  18
ENDBRANCH   4  12
BRANCH   1  21
ATOM     20  N   UNL     1       0.913   8.416  21.390  0.00  0.00    +0.000 N 
ATOM     21  C   UNL     1       0.861   8.871  20.105  0.00  0.00    +0.000 C 
ATOM     22  O   UNL     1       0.049   9.728  19.776  0.00  0.00    +0.000 OA
ATOM     23  H   UNL     1       0.319   8.865  22.074  0.00  0.00    +0.000 HD
ATOM     24  H   UNL     1       1.672   7.824  21.712  0.00  0.00    +0.000 HD
ENDBRANCH   1  21
BRANCH   7  25
ATOM     25  C   UNL     1       5.823   5.017  15.382  0.00  0.00    +0.000 C 
ATOM     26  F   UNL     1       6.875   4.276  15.828  0.00  0.00    +0.000 F 
ATOM     27  F   UNL     1       5.314   4.320  14.324  0.00  0.00    +0.000 F 
ATOM     28  F   UNL     1       6.411   6.129  14.836  0.00  0.00    +0.000 F 
ENDBRANCH   7  25
BRANCH  11  29
ATOM     29  N   UNL     1       2.096  10.399  17.821  0.00  0.00    +0.000 N 
ATOM     30  H   UNL     1       1.948  10.859  18.720  0.00  0.00    +0.000 HD
ATOM     31  H   UNL     1       1.271  10.468  17.229  0.00  0.00    +0.000 HD
ENDBRANCH  11  29
TORSDOF 5
ENDMDL
