MODEL 1
REMARK VINA RESULT:      -7.2      0.000      0.000
REMARK  Name = 
REMARK  5 active torsions:
REMARK  status: ('A' for Active; 'I' for Inactive)
REMARK    1  A    between atoms: C_2  and  C_4
REMARK    2  A    between atoms: C_8  and  N_9
REMARK    3  A    between atoms: C_10  and  C_12
REMARK    4  A    between atoms: C_12  and  S_13
REMARK    5  A    between atoms: S_13  and  C_16
REMARK                            x       y       z     vdW  Elec       q    Type
REMARK                         _______ _______ _______ _____ _____    ______ ____
ROOT
ATOM      1  N   UNL     1       5.081   3.985  18.502  0.00  0.00    +0.000 N 
ATOM      2  C   UNL     1       6.242   4.645  18.893  0.00  0.00    +0.000 C 
ATOM      3  O   UNL     1       6.475   5.040  20.036  0.00  0.00    +0.000 OA
ATOM      4  H   UNL     1       5.208   3.218  17.844  0.00  0.00    +0.000 HD
ENDROOT
BRANCH   1   9
ATOM      5  C   UNL     1       3.813   2.701  20.241  0.00  0.00    +0.000 A 
ATOM      6  C   UNL     1       2.606   2.923  20.996  0.00  0.00    +0.000 A 
ATOM      7  C   UNL     1       2.004   4.129  20.713  0.00  0.00    +0.000 A 
ATOM      8  S   UNL     1       2.874   5.012  19.541  0.00  0.00    +0.000 S 
ATOM      9  C   UNL     1       4.065   3.796  19.430  0.00  0.00    +0.000 A 
BRANCH   5  11
ATOM     10  N   UNL     1       4.651   0.653  19.307  0.00  0.00    +0.000 N 
ATOM     11  C   UNL     1       4.713   1.555  20.330  0.00  0.00    +0.000 C 
ATOM     12  O   UNL     1       5.493   1.385  21.265  0.00  0.00    +0.000 OA
ATOM     13  H   UNL     1       5.264  -0.150  19.343  0.00  0.00    +0.000 HD
ATOM     14  H   UNL     1       4.085   0.778  18.481  0.00  0.00    +0.000 HD
ENDBRANCH   5  11
ENDBRANCH   1   9
BRANCH   2  15
ATOM     15  C   UNL     1       7.275   4.767  17.823  0.00  0.00    +0.000 C 
BRANCH  15  16
ATOM     16  S   UNL     1       6.774   5.960  16.625  0.00  0.00    +0.000 S 
ATOM     17  O   UNL     1       5.490   6.483  17.073  0.00  0.00    +0.000 OA
ATOM     18  O   UNL     1       7.867   6.881  16.388  0.00  0.00    +0.000 OA
BRANCH  16  19
ATOM     19  C   UNL     1       6.443   5.089  15.103  0.00  0.00    +0.000 A 
ATOM     20  C   UNL     1       7.392   5.124  14.074  0.00  0.00    +0.000 A 
ATOM     21  C   UNL     1       7.187   4.365  12.918  0.00  0.00    +0.000 A 
ATOM     22  C   UNL     1       6.042   3.576  12.798  0.00  0.00    +0.000 A 
ATOM     23 CL   UNL     1       5.804   2.633  11.378  0.00  0.00    +0.000 Cl
ATOM     24  C   UNL     1       5.101   3.534  13.825  0.00  0.00    +0.000 A 
ATOM     25  C   UNL     1       5.305   4.281  14.989  0.00  0.00    +0.000 A 
ENDBRANCH  16  19
ENDBRANCH  15  16
ENDBRANCH   2  15
TORSDOF 5
ENDMDL
MODEL 2
REMARK VINA RESULT:      -7.2      1.344      2.020
REMARK  Name = 
REMARK  5 active torsions:
REMARK  status: ('A' for Active; 'I' for Inactive)
REMARK    1  A    between atoms: C_2  and  C_4
REMARK    2  A    between atoms: C_8  and  N_9
REMARK    3  A    between atoms: C_10  and  C_12
REMARK    4  A    between atoms: C_12  and  S_13
REMARK    5  A    between atoms: S_13  and  C_16
REMARK                            x       y       z     vdW  Elec       q    Type
REMARK                         _______ _______ _______ _____ _____    ______ ____
ROOT
ATOM      1  N   UNL     1       4.176   5.175  19.567  0.00  0.00    +0.000 N 
ATOM      2  C   UNL     1       4.132   5.603  18.244  0.00  0.00    +0.000 C 
ATOM      3  O   UNL     1       3.221   5.353  17.454  0.00  0.00    +0.000 OA
ATOM      4  H   UNL     1       4.534   5.852  20.240  0.00  0.00    +0.000 HD
ENDROOT
BRANCH   1   9
ATOM      5  C   UNL     1       3.105   2.969  20.079  0.00  0.00    +0.000 A 
ATOM      6  C   UNL     1       1.829   2.551  20.602  0.00  0.00    +0.000 A 
ATOM      7  C   UNL     1       0.997   3.604  20.910  0.00  0.00    +0.000 A 
ATOM      8  S   UNL     1       1.731   5.108  20.577  0.00  0.00    +0.000 S 
ATOM      9  C   UNL     1       3.165   4.353  20.046  0.00  0.00    +0.000 A 
BRANCH   5  11
ATOM     10  N   UNL     1       4.209   1.624  18.423  0.00  0.00    +0.000 N 
ATOM     11  C   UNL     1       4.227   2.116  19.697  0.00  0.00    +0.000 C 
ATOM     12  O   UNL     1       5.148   1.838  20.461  0.00  0.00    +0.000 OA
ATOM     13  H   UNL     1       4.975   1.031  18.132  0.00  0.00    +0.000 HD
ATOM     14  H   UNL     1       3.519   1.877  17.733  0.00  0.00    +0.000 HD
ENDBRANCH   5  11
ENDBRANCH   1   9
BRANCH   2  15
ATOM     15  C   UNL     1       5.255   6.503  17.846  0.00  0.00    +0.000 C 
BRANCH  15  16
ATOM     16  S   UNL     1       6.723   5.564  17.577  0.00  0.00    +0.000 S 
ATOM     17  O   UNL     1       7.822   6.519  17.528  0.00  0.00    +0.000 OA
ATOM     18  O   UNL     1       6.774   4.480  18.536  0.00  0.00    +0.000 OA
BRANCH  16  19
ATOM     19  C   UNL     1       6.619   4.855  15.943  0.00  0.00    +0.000 A 
ATOM     20  C   UNL     1       5.594   3.944  15.656  0.00  0.00    +0.000 A 
ATOM     21  C   UNL     1       5.444   3.459  14.354  0.00  0.00    +0.000 A 
ATOM     22  C   UNL     1       6.311   3.889  13.348  0.00  0.00    +0.000 A 
ATOM     23 CL   UNL     1       6.110   3.298  11.743  0.00  0.00    +0.000 Cl
ATOM     24  C   UNL     1       7.326   4.802  13.630  0.00  0.00    +0.000 A 
ATOM     25  C   UNL     1       7.474   5.300  14.928  0.00  0.00    +0.000 A 
ENDBRANCH  16  19
ENDBRANCH  15  16
ENDBRANCH   2  15
TORSDOF 5
ENDMDL
MODEL 3
REMARK VINA RESULT:      -7.2      1.434      2.322
REMARK  Name = 
REMARK  5 active torsions:
REMARK  status: ('A' for Active; 'I' for Inactive)
REMARK    1  A    between atoms: C_2  and  C_4
REMARK    2  A    between atoms: C_8  and  N_9
REMARK    3  A    between atoms: C_10  and  C_12
REMARK    4  A    between atoms: C_12  and  S_13
REMARK    5  A    between atoms: S_13  and  C_16
REMARK                            x       y       z     vdW  Elec       q    Type
REMARK                         _______ _______ _______ _____ _____    ______ ____
ROOT
ATOM      1  N   UNL     1       5.129   3.736  18.481  0.00  0.00    +0.000 N 
ATOM      2  C   UNL     1       6.161   4.590  18.857  0.00  0.00    +0.000 C 
ATOM      3  O   UNL     1       6.264   5.125  19.961  0.00  0.00    +0.000 OA
ATOM      4  H   UNL     1       5.401   2.934  17.915  0.00  0.00    +0.000 HD
ENDROOT
BRANCH   1   9
ATOM      5  C   UNL     1       2.915   4.208  19.555  0.00  0.00    +0.000 A 
ATOM      6  C   UNL     1       2.165   3.632  20.642  0.00  0.00    +0.000 A 
ATOM      7  C   UNL     1       2.796   2.559  21.230  0.00  0.00    +0.000 A 
ATOM      8  S   UNL     1       4.297   2.226  20.490  0.00  0.00    +0.000 S 
ATOM      9  C   UNL     1       4.090   3.497  19.371  0.00  0.00    +0.000 A 
BRANCH   5  11
ATOM     10  N   UNL     1       3.011   6.549  19.026  0.00  0.00    +0.000 N 
ATOM     11  C   UNL     1       2.516   5.320  18.697  0.00  0.00    +0.000 C 
ATOM     12  O   UNL     1       1.775   5.184  17.725  0.00  0.00    +0.000 OA
ATOM     13  H   UNL     1       2.751   7.336  18.447  0.00  0.00    +0.000 HD
ATOM     14  H   UNL     1       3.679   6.706  19.765  0.00  0.00    +0.000 HD
ENDBRANCH   5  11
ENDBRANCH   1   9
BRANCH   2  15
ATOM     15  C   UNL     1       7.235   4.751  17.833  0.00  0.00    +0.000 C 
BRANCH  15  16
ATOM     16  S   UNL     1       6.756   5.950  16.631  0.00  0.00    +0.000 S 
ATOM     17  O   UNL     1       5.476   6.488  17.070  0.00  0.00    +0.000 OA
ATOM     18  O   UNL     1       7.861   6.857  16.401  0.00  0.00    +0.000 OA
BRANCH  16  19
ATOM     19  C   UNL     1       6.424   5.083  15.106  0.00  0.00    +0.000 A 
ATOM     20  C   UNL     1       7.392   5.081  14.095  0.00  0.00    +0.000 A 
ATOM     21  C   UNL     1       7.184   4.324  12.939  0.00  0.00    +0.000 A 
ATOM     22  C   UNL     1       6.016   3.572  12.801  0.00  0.00    +0.000 A 
ATOM     23 CL   UNL     1       5.774   2.631  11.381  0.00  0.00    +0.000 Cl
ATOM     24  C   UNL     1       5.055   3.566  13.811  0.00  0.00    +0.000 A 
ATOM     25  C   UNL     1       5.263   4.312  14.975  0.00  0.00    +0.000 A 
ENDBRANCH  16  19
ENDBRANCH  15  16
ENDBRANCH   2  15
TORSDOF 5
ENDMDL
MODEL 4
REMARK VINA RESULT:      -7.1      1.374      1.786
REMARK  Name = 
REMARK  5 active torsions:
REMARK  status: ('A' for Active; 'I' for Inactive)
REMARK    1  A    between atoms: C_2  and  C_4
REMARK    2  A    between atoms: C_8  and  N_9
REMARK    3  A    between atoms: C_10  and  C_12
REMARK    4  A    between atoms: C_12  and  S_13
REMARK    5  A    between atoms: S_13  and  C_16
REMARK                            x       y       z     vdW  Elec       q    Type
REMARK                         _______ _______ _______ _____ _____    ______ ____
ROOT
ATOM      1  N   UNL     1       4.229   5.103  19.596  0.00  0.00    +0.000 N 
ATOM      2  C   UNL     1       4.201   5.787  18.385  0.00  0.00    +0.000 C 
ATOM      3  O   UNL     1       3.249   5.793  17.603  0.00  0.00    +0.000 OA
ATOM      4  H   UNL     1       4.674   5.592  20.371  0.00  0.00    +0.000 HD
ENDROOT
BRANCH   1   9
ATOM      5  C   UNL     1       3.011   2.932  19.877  0.00  0.00    +0.000 A 
ATOM      6  C   UNL     1       1.684   2.551  20.289  0.00  0.00    +0.000 A 
ATOM      7  C   UNL     1       0.890   3.626  20.621  0.00  0.00    +0.000 A 
ATOM      8  S   UNL     1       1.722   5.105  20.446  0.00  0.00    +0.000 S 
ATOM      9  C   UNL     1       3.147   4.308  19.950  0.00  0.00    +0.000 A 
BRANCH   5  11
ATOM     10  N   UNL     1       3.920   1.280  18.387  0.00  0.00    +0.000 N 
ATOM     11  C   UNL     1       4.109   2.044  19.504  0.00  0.00    +0.000 C 
ATOM     12  O   UNL     1       5.157   1.967  20.142  0.00  0.00    +0.000 OA
ATOM     13  H   UNL     1       4.664   0.658  18.106  0.00  0.00    +0.000 HD
ATOM     14  H   UNL     1       3.114   1.356  17.785  0.00  0.00    +0.000 HD
ENDBRANCH   5  11
ENDBRANCH   1   9
BRANCH   2  15
ATOM     15  C   UNL     1       5.404   6.629  18.121  0.00  0.00    +0.000 C 
BRANCH  15  16
ATOM     16  S   UNL     1       6.783   5.611  17.706  0.00  0.00    +0.000 S 
ATOM     17  O   UNL     1       7.931   6.498  17.585  0.00  0.00    +0.000 OA
ATOM     18  O   UNL     1       6.845   4.499  18.633  0.00  0.00    +0.000 OA
BRANCH  16  19
ATOM     19  C   UNL     1       6.497   4.955  16.071  0.00  0.00    +0.000 A 
ATOM     20  C   UNL     1       7.277   5.415  15.003  0.00  0.00    +0.000 A 
ATOM     21  C   UNL     1       7.130   4.838  13.740  0.00  0.00    +0.000 A 
ATOM     22  C   UNL     1       6.211   3.804  13.550  0.00  0.00    +0.000 A 
ATOM     23 CL   UNL     1       6.046   3.088  11.994  0.00  0.00    +0.000 Cl
ATOM     24  C   UNL     1       5.440   3.340  14.615  0.00  0.00    +0.000 A 
ATOM     25  C   UNL     1       5.591   3.905  15.884  0.00  0.00    +0.000 A 
ENDBRANCH  16  19
ENDBRANCH  15  16
ENDBRANCH   2  15
TORSDOF 5
ENDMDL
MODEL 5
REMARK VINA RESULT:      -7.0      4.070      6.732
REMARK  Name = 
REMARK  5 active torsions:
REMARK  status: ('A' for Active; 'I' for Inactive)
REMARK    1  A    between atoms: C_2  and  C_4
REMARK    2  A    between atoms: C_8  and  N_9
REMARK    3  A    between atoms: C_10  and  C_12
REMARK    4  A    between atoms: C_12  and  S_13
REMARK    5  A    between atoms: S_13  and  C_16
REMARK                            x       y       z     vdW  Elec       q    Type
REMARK                         _______ _______ _______ _____ _____    ______ ____
ROOT
ATOM      1  N   UNL     1       4.286   5.237  16.823  0.00  0.00    +0.000 N 
ATOM      2  C   UNL     1       3.686   4.168  17.482  0.00  0.00    +0.000 C 
ATOM      3  O   UNL     1       4.117   3.015  17.491  0.00  0.00    +0.000 OA
ATOM      4  H   UNL     1       4.276   6.126  17.320  0.00  0.00    +0.000 HD
ENDROOT
BRANCH   1   9
ATOM      5  C   UNL     1       6.752   5.224  16.380  0.00  0.00    +0.000 A 
ATOM      6  C   UNL     1       7.584   4.905  15.248  0.00  0.00    +0.000 A 
ATOM      7  C   UNL     1       6.867   4.495  14.146  0.00  0.00    +0.000 A 
ATOM      8  S   UNL     1       5.189   4.488  14.450  0.00  0.00    +0.000 S 
ATOM      9  C   UNL     1       5.422   5.007  16.058  0.00  0.00    +0.000 A 
BRANCH   5  11
ATOM     10  N   UNL     1       7.180   4.686  18.682  0.00  0.00    +0.000 N 
ATOM     11  C   UNL     1       7.189   5.644  17.709  0.00  0.00    +0.000 C 
ATOM     12  O   UNL     1       7.551   6.790  17.965  0.00  0.00    +0.000 OA
ATOM     13  H   UNL     1       7.479   4.949  19.611  0.00  0.00    +0.000 HD
ATOM     14  H   UNL     1       6.964   3.715  18.512  0.00  0.00    +0.000 HD
ENDBRANCH   5  11
ENDBRANCH   1   9
BRANCH   2  15
ATOM     15  C   UNL     1       2.489   4.536  18.295  0.00  0.00    +0.000 C 
BRANCH  15  16
ATOM     16  S   UNL     1       2.971   5.508  19.685  0.00  0.00    +0.000 S 
ATOM     17  O   UNL     1       2.274   4.957  20.839  0.00  0.00    +0.000 OA
ATOM     18  O   UNL     1       4.416   5.606  19.715  0.00  0.00    +0.000 OA
BRANCH  16  19
ATOM     19  C   UNL     1       2.309   7.149  19.452  0.00  0.00    +0.000 A 
ATOM     20  C   UNL     1       2.343   7.727  18.177  0.00  0.00    +0.000 A 
ATOM     21  C   UNL     1       1.739   8.968  17.964  0.00  0.00    +0.000 A 
ATOM     22  C   UNL     1       1.101   9.622  19.019  0.00  0.00    +0.000 A 
ATOM     23 CL   UNL     1       0.346  11.144  18.745  0.00  0.00    +0.000 Cl
ATOM     24  C   UNL     1       1.058   9.044  20.287  0.00  0.00    +0.000 A 
ATOM     25  C   UNL     1       1.651   7.797  20.505  0.00  0.00    +0.000 A 
ENDBRANCH  16  19
ENDBRANCH  15  16
ENDBRANCH   2  15
TORSDOF 5
ENDMDL
MODEL 6
REMARK VINA RESULT:      -7.0      0.495      1.147
REMARK  Name = 
REMARK  5 active torsions:
REMARK  status: ('A' for Active; 'I' for Inactive)
REMARK    1  A    between atoms: C_2  and  C_4
REMARK    2  A    between atoms: C_8  and  N_9
REMARK    3  A    between atoms: C_10  and  C_12
REMARK    4  A    between atoms: C_12  and  S_13
REMARK    5  A    between atoms: S_13  and  C_16
REMARK                            x       y       z     vdW  Elec       q    Type
REMARK                         _______ _______ _______ _____ _____    ______ ____
ROOT
ATOM      1  N   UNL     1       5.112   4.579  18.433  0.00  0.00    +0.000 N 
ATOM      2  C   UNL     1       6.337   4.994  18.946  0.00  0.00    +0.000 C 
ATOM      3  O   UNL     1       6.572   5.180  20.141  0.00  0.00    +0.000 OA
ATOM      4  H   UNL     1       5.156   3.906  17.670  0.00  0.00    +0.000 HD
ENDROOT
BRANCH   1   9
ATOM      5  C   UNL     1       3.604   3.269  19.944  0.00  0.00    +0.000 A 
ATOM      6  C   UNL     1       2.403   3.555  20.688  0.00  0.00    +0.000 A 
ATOM      7  C   UNL     1       1.981   4.859  20.555  0.00  0.00    +0.000 A 
ATOM      8  S   UNL     1       3.015   5.758  19.538  0.00  0.00    +0.000 S 
ATOM      9  C   UNL     1       4.037   4.414  19.297  0.00  0.00    +0.000 A 
BRANCH   5  11
ATOM     10  N   UNL     1       4.102   1.203  18.824  0.00  0.00    +0.000 N 
ATOM     11  C   UNL     1       4.337   2.006  19.902  0.00  0.00    +0.000 C 
ATOM     12  O   UNL     1       5.128   1.661  20.778  0.00  0.00    +0.000 OA
ATOM     13  H   UNL     1       4.597   0.323  18.769  0.00  0.00    +0.000 HD
ATOM     14  H   UNL     1       3.522   1.468  18.042  0.00  0.00    +0.000 HD
ENDBRANCH   5  11
ENDBRANCH   1   9
BRANCH   2  15
ATOM     15  C   UNL     1       7.425   5.112  17.932  0.00  0.00    +0.000 C 
BRANCH  15  16
ATOM     16  S   UNL     1       6.911   6.154  16.605  0.00  0.00    +0.000 S 
ATOM     17  O   UNL     1       5.622   6.712  16.991  0.00  0.00    +0.000 OA
ATOM     18  O   UNL     1       7.994   7.052  16.262  0.00  0.00    +0.000 OA
BRANCH  16  19
ATOM     19  C   UNL     1       6.589   5.110  15.193  0.00  0.00    +0.000 A 
ATOM     20  C   UNL     1       5.407   4.360  15.153  0.00  0.00    +0.000 A 
ATOM     21  C   UNL     1       5.098   3.617  14.010  0.00  0.00    +0.000 A 
ATOM     22  C   UNL     1       5.965   3.632  12.916  0.00  0.00    +0.000 A 
ATOM     23 CL   UNL     1       5.570   2.726  11.506  0.00  0.00    +0.000 Cl
ATOM     24  C   UNL     1       7.137   4.385  12.952  0.00  0.00    +0.000 A 
ATOM     25  C   UNL     1       7.446   5.140  14.087  0.00  0.00    +0.000 A 
ENDBRANCH  16  19
ENDBRANCH  15  16
ENDBRANCH   2  15
TORSDOF 5
ENDMDL
MODEL 7
REMARK VINA RESULT:      -7.0      4.049      6.762
REMARK  Name = 
REMARK  5 active torsions:
REMARK  status: ('A' for Active; 'I' for Inactive)
REMARK    1  A    between atoms: C_2  and  C_4
REMARK    2  A    between atoms: C_8  and  N_9
REMARK    3  A    between atoms: C_10  and  C_12
REMARK    4  A    between atoms: C_12  and  S_13
REMARK    5  A    between atoms: S_13  and  C_16
REMARK                            x       y       z     vdW  Elec       q    Type
REMARK                         _______ _______ _______ _____ _____    ______ ____
ROOT
ATOM      1  N   UNL     1       4.297   5.172  16.877  0.00  0.00    +0.000 N 
ATOM      2  C   UNL     1       3.716   4.076  17.508  0.00  0.00    +0.000 C 
ATOM      3  O   UNL     1       4.155   2.927  17.469  0.00  0.00    +0.000 OA
ATOM      4  H   UNL     1       4.290   6.043  17.405  0.00  0.00    +0.000 HD
ENDROOT
BRANCH   1   9
ATOM      5  C   UNL     1       6.752   5.226  16.381  0.00  0.00    +0.000 A 
ATOM      6  C   UNL     1       7.568   4.936  15.229  0.00  0.00    +0.000 A 
ATOM      7  C   UNL     1       6.838   4.517  14.139  0.00  0.00    +0.000 A 
ATOM      8  S   UNL     1       5.167   4.465  14.479  0.00  0.00    +0.000 S 
ATOM      9  C   UNL     1       5.422   4.977  16.086  0.00  0.00    +0.000 A 
BRANCH   5  11
ATOM     10  N   UNL     1       7.220   4.687  18.675  0.00  0.00    +0.000 N 
ATOM     11  C   UNL     1       7.208   5.646  17.703  0.00  0.00    +0.000 C 
ATOM     12  O   UNL     1       7.566   6.795  17.955  0.00  0.00    +0.000 OA
ATOM     13  H   UNL     1       7.532   4.951  19.599  0.00  0.00    +0.000 HD
ATOM     14  H   UNL     1       7.009   3.715  18.507  0.00  0.00    +0.000 HD
ENDBRANCH   5  11
ENDBRANCH   1   9
BRANCH   2  15
ATOM     15  C   UNL     1       2.530   4.407  18.353  0.00  0.00    +0.000 C 
BRANCH  15  16
ATOM     16  S   UNL     1       3.005   5.462  19.684  0.00  0.00    +0.000 S 
ATOM     17  O   UNL     1       2.380   4.922  20.884  0.00  0.00    +0.000 OA
ATOM     18  O   UNL     1       4.442   5.641  19.656  0.00  0.00    +0.000 OA
BRANCH  16  19
ATOM     19  C   UNL     1       2.242   7.052  19.410  0.00  0.00    +0.000 A 
ATOM     20  C   UNL     1       1.638   7.716  20.485  0.00  0.00    +0.000 A 
ATOM     21  C   UNL     1       1.126   9.003  20.304  0.00  0.00    +0.000 A 
ATOM     22  C   UNL     1       1.224   9.621  19.056  0.00  0.00    +0.000 A 
ATOM     23 CL   UNL     1       0.605  11.213  18.845  0.00  0.00    +0.000 Cl
ATOM     24  C   UNL     1       1.834   8.965  17.988  0.00  0.00    +0.000 A 
ATOM     25  C   UNL     1       2.358   7.682  18.165  0.00  0.00    +0.000 A 
ENDBRANCH  16  19
ENDBRANCH  15  16
ENDBRANCH   2  15
TORSDOF 5
ENDMDL
MODEL 8
REMARK VINA RESULT:      -6.9      1.467      2.540
REMARK  Name = 
REMARK  5 active torsions:
REMARK  status: ('A' for Active; 'I' for Inactive)
REMARK    1  A    between atoms: C_2  and  C_4
REMARK    2  A    between atoms: C_8  and  N_9
REMARK    3  A    between atoms: C_10  and  C_12
REMARK    4  A    between atoms: C_12  and  S_13
REMARK    5  A    between atoms: S_13  and  C_16
REMARK                            x       y       z     vdW  Elec       q    Type
REMARK                         _______ _______ _______ _____ _____    ______ ____
ROOT
ATOM      1  N   UNL     1       5.059   3.673  18.534  0.00  0.00    +0.000 N 
ATOM      2  C   UNL     1       6.003   4.643  18.855  0.00  0.00    +0.000 C 
ATOM      3  O   UNL     1       5.999   5.315  19.888  0.00  0.00    +0.000 OA
ATOM      4  H   UNL     1       5.421   2.832  18.089  0.00  0.00    +0.000 HD
ENDROOT
BRANCH   1   9
ATOM      5  C   UNL     1       2.769   4.129  19.442  0.00  0.00    +0.000 A 
ATOM      6  C   UNL     1       1.986   3.621  20.540  0.00  0.00    +0.000 A 
ATOM      7  C   UNL     1       2.633   2.643  21.261  0.00  0.00    +0.000 A 
ATOM      8  S   UNL     1       4.187   2.320  20.635  0.00  0.00    +0.000 S 
ATOM      9  C   UNL     1       3.984   3.467  19.389  0.00  0.00    +0.000 A 
BRANCH   5  11
ATOM     10  N   UNL     1       2.865   6.391  18.638  0.00  0.00    +0.000 N 
ATOM     11  C   UNL     1       2.367   5.132  18.460  0.00  0.00    +0.000 C 
ATOM     12  O   UNL     1       1.621   4.884  17.515  0.00  0.00    +0.000 OA
ATOM     13  H   UNL     1       2.603   7.105  17.972  0.00  0.00    +0.000 HD
ATOM     14  H   UNL     1       3.537   6.633  19.350  0.00  0.00    +0.000 HD
ENDBRANCH   5  11
ENDBRANCH   1   9
BRANCH   2  15
ATOM     15  C   UNL     1       7.127   4.760  17.880  0.00  0.00    +0.000 C 
BRANCH  15  16
ATOM     16  S   UNL     1       6.697   5.878  16.586  0.00  0.00    +0.000 S 
ATOM     17  O   UNL     1       5.394   6.430  16.931  0.00  0.00    +0.000 OA
ATOM     18  O   UNL     1       7.805   6.781  16.353  0.00  0.00    +0.000 OA
BRANCH  16  19
ATOM     19  C   UNL     1       6.444   4.917  15.104  0.00  0.00    +0.000 A 
ATOM     20  C   UNL     1       5.268   4.169  14.965  0.00  0.00    +0.000 A 
ATOM     21  C   UNL     1       5.015   3.493  13.769  0.00  0.00    +0.000 A 
ATOM     22  C   UNL     1       5.931   3.571  12.719  0.00  0.00    +0.000 A 
ATOM     23 CL   UNL     1       5.606   2.748  11.243  0.00  0.00    +0.000 Cl
ATOM     24  C   UNL     1       7.098   4.323  12.852  0.00  0.00    +0.000 A 
ATOM     25  C   UNL     1       7.351   5.011  14.042  0.00  0.00    +0.000 A 
ENDBRANCH  16  19
ENDBRANCH  15  16
ENDBRANCH   2  15
TORSDOF 5
ENDMDL
MODEL 9
REMARK VINA RESULT:      -6.9      3.907      5.886
REMARK  Name = 
REMARK  5 active torsions:
REMARK  status: ('A' for Active; 'I' for Inactive)
REMARK    1  A    between atoms: C_2  and  C_4
REMARK    2  A    between atoms: C_8  and  N_9
REMARK    3  A    between atoms: C_10  and  C_12
REMARK    4  A    between atoms: C_12  and  S_13
REMARK    5  A    between atoms: S_13  and  C_16
REMARK                            x       y       z     vdW  Elec       q    Type
REMARK                         _______ _______ _______ _____ _____    ______ ____
ROOT
ATOM      1  N   UNL     1       2.624   6.250  20.483  0.00  0.00    +0.000 N 
ATOM      2  C   UNL     1       1.951   5.046  20.297  0.00  0.00    +0.000 C 
ATOM      3  O   UNL     1       1.083   4.850  19.446  0.00  0.00    +0.000 OA
ATOM      4  H   UNL     1       3.618   6.174  20.691  0.00  0.00    +0.000 HD
ENDROOT
BRANCH   1   9
ATOM      5  C   UNL     1       1.421   8.398  20.021  0.00  0.00    +0.000 A 
ATOM      6  C   UNL     1       1.299   9.276  18.885  0.00  0.00    +0.000 A 
ATOM      7  C   UNL     1       2.019   8.852  17.791  0.00  0.00    +0.000 A 
ATOM      8  S   UNL     1       2.852   7.397  18.108  0.00  0.00    +0.000 S 
ATOM      9  C   UNL     1       2.270   7.348  19.711  0.00  0.00    +0.000 A 
BRANCH   5  11
ATOM     10  N   UNL     1       1.660   9.029  22.327  0.00  0.00    +0.000 N 
ATOM     11  C   UNL     1       0.828   8.576  21.344  0.00  0.00    +0.000 C 
ATOM     12  O   UNL     1      -0.353   8.337  21.586  0.00  0.00    +0.000 OA
ATOM     13  H   UNL     1       1.274   9.162  23.252  0.00  0.00    +0.000 HD
ATOM     14  H   UNL     1       2.615   9.311  22.168  0.00  0.00    +0.000 HD
ENDBRANCH   5  11
ENDBRANCH   1   9
BRANCH   2  15
ATOM     15  C   UNL     1       2.432   3.928  21.161  0.00  0.00    +0.000 C 
BRANCH  15  16
ATOM     16  S   UNL     1       3.233   2.700  20.180  0.00  0.00    +0.000 S 
ATOM     17  O   UNL     1       4.222   2.064  21.040  0.00  0.00    +0.000 OA
ATOM     18  O   UNL     1       2.228   1.880  19.536  0.00  0.00    +0.000 OA
BRANCH  16  19
ATOM     19  C   UNL     1       4.159   3.543  18.910  0.00  0.00    +0.000 A 
ATOM     20  C   UNL     1       5.332   4.226  19.256  0.00  0.00    +0.000 A 
ATOM     21  C   UNL     1       6.116   4.805  18.255  0.00  0.00    +0.000 A 
ATOM     22  C   UNL     1       5.730   4.696  16.918  0.00  0.00    +0.000 A 
ATOM     23 CL   UNL     1       6.709   5.399  15.690  0.00  0.00    +0.000 Cl
ATOM     24  C   UNL     1       4.567   4.010  16.572  0.00  0.00    +0.000 A 
ATOM     25  C   UNL     1       3.784   3.418  17.567  0.00  0.00    +0.000 A 
ENDBRANCH  16  19
ENDBRANCH  15  16
ENDBRANCH   2  15
TORSDOF 5
ENDMDL
