MODEL 1
REMARK VINA RESULT:      -8.1      0.000      0.000
REMARK  Name = 
REMARK  12 active torsions:
REMARK  status: ('A' for Active; 'I' for Inactive)
REMARK    1  A    between atoms: C_1  and  O_2
REMARK    2  A    between atoms: O_2  and  C_3
REMARK    3  A    between atoms: C_3  and  C_4
REMARK    4  A    between atoms: C_4  and  C_5
REMARK    5  A    between atoms: C_5  and  N_6
REMARK    6  A    between atoms: C_10  and  C_11
REMARK    7  A    between atoms: C_20  and  N_21
REMARK    8  A    between atoms: N_21  and  C_22
REMARK    9  A    between atoms: C_24  and  C_25
REMARK   10  A    between atoms: C_25  and  O_26
REMARK   11  A    between atoms: C_27  and  O_28
REMARK   12  A    between atoms: C_29  and  O_30
REMARK                            x       y       z     vdW  Elec       q    Type
REMARK                         _______ _______ _______ _____ _____    ______ ____
ROOT
ATOM      1  N   UNL     1       4.782   5.825  16.485  0.00  0.00    +0.000 N 
ATOM      2  C   UNL     1       3.838   6.397  17.319  0.00  0.00    +0.000 A 
ATOM      3  N   UNL     1       3.537   7.634  16.929  0.00  0.00    +0.000 NA
ATOM      4  C   UNL     1       2.772   8.344  17.770  0.00  0.00    +0.000 A 
ATOM      5  C   UNL     1       2.237   7.867  18.960  0.00  0.00    +0.000 A 
ATOM      6  C   UNL     1       2.525   6.527  19.242  0.00  0.00    +0.000 A 
ATOM      7  N   UNL     1       3.343   5.803  18.430  0.00  0.00    +0.000 NA
ATOM      8  H   UNL     1       4.870   6.498  15.724  0.00  0.00    +0.000 HD
ENDROOT
BRANCH   5   9
ATOM      9  C   UNL     1       1.585   8.881  19.818  0.00  0.00    +0.000 A 
ATOM     10  N   UNL     1       1.419   8.676  21.115  0.00  0.00    +0.000 NA
ATOM     11  C   UNL     1       0.512   9.573  21.642  0.00  0.00    +0.000 A 
ATOM     12  C   UNL     1      -0.061   9.506  22.928  0.00  0.00    +0.000 A 
ATOM     13  C   UNL     1      -1.076  10.399  23.279  0.00  0.00    +0.000 A 
ATOM     14  C   UNL     1      -1.466  11.399  22.394  0.00  0.00    +0.000 A 
ATOM     15  C   UNL     1      -0.852  11.536  21.143  0.00  0.00    +0.000 A 
ATOM     16  C   UNL     1       0.112  10.584  20.771  0.00  0.00    +0.000 A 
ATOM     17  S   UNL     1       0.953  10.385  19.275  0.00  0.00    +0.000 S 
ENDBRANCH   5   9
BRANCH   6  18
ATOM     18  N   UNL     1       1.949   5.923  20.359  0.00  0.00    +0.000 N 
ATOM     19  H   UNL     1       1.224   6.532  20.737  0.00  0.00    +0.000 HD
BRANCH  18  20
ATOM     20  C   UNL     1       1.665   4.507  20.623  0.00  0.00    +0.000 C 
ATOM     21  C   UNL     1       2.891   3.760  21.203  0.00  0.00    +0.000 C 
ATOM     22  C   UNL     1       3.016   2.440  20.457  0.00  0.00    +0.000 C 
ATOM     23  C   UNL     1       2.247   2.689  19.188  0.00  0.00    +0.000 C 
ATOM     24  C   UNL     1       1.104   3.648  19.491  0.00  0.00    +0.000 C 
BRANCH  23  25
ATOM     25  O   UNL     1       1.762   1.423  18.736  0.00  0.00    +0.000 OA
ATOM     26  H   UNL     1       2.543   0.923  18.448  0.00  0.00    +0.000 HD
ENDBRANCH  23  25
BRANCH  24  27
ATOM     27  O   UNL     1      -0.037   2.887  19.942  0.00  0.00    +0.000 OA
ATOM     28  H   UNL     1      -0.308   2.323  19.188  0.00  0.00    +0.000 HD
ENDBRANCH  24  27
BRANCH  22  29
ATOM     29  C   UNL     1       4.438   2.015  20.036  0.00  0.00    +0.000 C 
BRANCH  29  30
ATOM     30  O   UNL     1       5.140   3.078  19.416  0.00  0.00    +0.000 OA
ATOM     31  H   UNL     1       5.016   2.986  18.451  0.00  0.00    +0.000 HD
ENDBRANCH  29  30
ENDBRANCH  22  29
ENDBRANCH  18  20
ENDBRANCH   6  18
BRANCH   1  32
ATOM     32  C   UNL     1       4.608   4.468  16.006  0.00  0.00    +0.000 C 
BRANCH  32  33
ATOM     33  C   UNL     1       5.987   3.813  15.856  0.00  0.00    +0.000 C 
BRANCH  33  34
ATOM     34  C   UNL     1       7.013   4.850  15.454  0.00  0.00    +0.000 C 
BRANCH  34  36
ATOM     35  C   UNL     1       7.767   4.599  17.740  0.00  0.00    +0.000 C 
ATOM     36  O   UNL     1       7.564   5.440  16.629  0.00  0.00    +0.000 OA
ENDBRANCH  34  36
ENDBRANCH  33  34
ENDBRANCH  32  33
ENDBRANCH   1  32
TORSDOF 11
ENDMDL
MODEL 2
REMARK VINA RESULT:      -7.8      1.150      1.464
REMARK  Name = 
REMARK  12 active torsions:
REMARK  status: ('A' for Active; 'I' for Inactive)
REMARK    1  A    between atoms: C_1  and  O_2
REMARK    2  A    between atoms: O_2  and  C_3
REMARK    3  A    between atoms: C_3  and  C_4
REMARK    4  A    between atoms: C_4  and  C_5
REMARK    5  A    between atoms: C_5  and  N_6
REMARK    6  A    between atoms: C_10  and  C_11
REMARK    7  A    between atoms: C_20  and  N_21
REMARK    8  A    between atoms: N_21  and  C_22
REMARK    9  A    between atoms: C_24  and  C_25
REMARK   10  A    between atoms: C_25  and  O_26
REMARK   11  A    between atoms: C_27  and  O_28
REMARK   12  A    between atoms: C_29  and  O_30
REMARK                            x       y       z     vdW  Elec       q    Type
REMARK                         _______ _______ _______ _____ _____    ______ ____
ROOT
ATOM      1  N   UNL     1       5.068   5.731  16.809  0.00  0.00    +0.000 N 
ATOM      2  C   UNL     1       4.059   6.321  17.550  0.00  0.00    +0.000 A 
ATOM      3  N   UNL     1       3.814   7.560  17.130  0.00  0.00    +0.000 NA
ATOM      4  C   UNL     1       2.985   8.284  17.895  0.00  0.00    +0.000 A 
ATOM      5  C   UNL     1       2.335   7.821  19.031  0.00  0.00    +0.000 A 
ATOM      6  C   UNL     1       2.576   6.479  19.343  0.00  0.00    +0.000 A 
ATOM      7  N   UNL     1       3.455   5.738  18.612  0.00  0.00    +0.000 NA
ATOM      8  H   UNL     1       5.236   6.399  16.057  0.00  0.00    +0.000 HD
ENDROOT
BRANCH   5   9
ATOM      9  C   UNL     1       1.622   8.848  19.822  0.00  0.00    +0.000 A 
ATOM     10  N   UNL     1       1.502   8.740  21.136  0.00  0.00    +0.000 NA
ATOM     11  C   UNL     1       0.537   9.603  21.614  0.00  0.00    +0.000 A 
ATOM     12  C   UNL     1      -0.000   9.598  22.917  0.00  0.00    +0.000 A 
ATOM     13  C   UNL     1      -1.077  10.434  23.224  0.00  0.00    +0.000 A 
ATOM     14  C   UNL     1      -1.566  11.322  22.271  0.00  0.00    +0.000 A 
ATOM     15  C   UNL     1      -0.993  11.402  20.996  0.00  0.00    +0.000 A 
ATOM     16  C   UNL     1       0.037  10.502  20.675  0.00  0.00    +0.000 A 
ATOM     17  S   UNL     1       0.858  10.247  19.177  0.00  0.00    +0.000 S 
ENDBRANCH   5   9
BRANCH   6  18
ATOM     18  N   UNL     1       1.890   5.887  20.404  0.00  0.00    +0.000 N 
ATOM     19  H   UNL     1       1.131   6.500  20.699  0.00  0.00    +0.000 HD
BRANCH  18  20
ATOM     20  C   UNL     1       1.582   4.475  20.656  0.00  0.00    +0.000 C 
ATOM     21  C   UNL     1       2.741   3.739  21.374  0.00  0.00    +0.000 C 
ATOM     22  C   UNL     1       2.946   2.409  20.664  0.00  0.00    +0.000 C 
ATOM     23  C   UNL     1       2.316   2.638  19.318  0.00  0.00    +0.000 C 
ATOM     24  C   UNL     1       1.146   3.598  19.484  0.00  0.00    +0.000 C 
BRANCH  23  25
ATOM     25  O   UNL     1       1.884   1.365  18.835  0.00  0.00    +0.000 OA
ATOM     26  H   UNL     1       2.233   1.285  17.933  0.00  0.00    +0.000 HD
ENDBRANCH  23  25
BRANCH  24  27
ATOM     27  O   UNL     1      -0.035   2.840  19.822  0.00  0.00    +0.000 OA
ATOM     28  H   UNL     1       0.141   1.916  19.548  0.00  0.00    +0.000 HD
ENDBRANCH  24  27
BRANCH  22  29
ATOM     29  C   UNL     1       4.405   1.983  20.403  0.00  0.00    +0.000 C 
BRANCH  29  30
ATOM     30  O   UNL     1       5.058   2.867  19.509  0.00  0.00    +0.000 OA
ATOM     31  H   UNL     1       5.599   2.323  18.904  0.00  0.00    +0.000 HD
ENDBRANCH  29  30
ENDBRANCH  22  29
ENDBRANCH  18  20
ENDBRANCH   6  18
BRANCH   1  32
ATOM     32  C   UNL     1       4.919   4.375  16.321  0.00  0.00    +0.000 C 
BRANCH  32  33
ATOM     33  C   UNL     1       6.034   4.086  15.307  0.00  0.00    +0.000 C 
BRANCH  33  34
ATOM     34  C   UNL     1       5.468   4.064  13.905  0.00  0.00    +0.000 C 
BRANCH  34  36
ATOM     35  C   UNL     1       5.921   2.864  11.852  0.00  0.00    +0.000 C 
ATOM     36  O   UNL     1       6.416   3.455  13.030  0.00  0.00    +0.000 OA
ENDBRANCH  34  36
ENDBRANCH  33  34
ENDBRANCH  32  33
ENDBRANCH   1  32
TORSDOF 11
ENDMDL
MODEL 3
REMARK VINA RESULT:      -7.5      1.111      1.474
REMARK  Name = 
REMARK  12 active torsions:
REMARK  status: ('A' for Active; 'I' for Inactive)
REMARK    1  A    between atoms: C_1  and  O_2
REMARK    2  A    between atoms: O_2  and  C_3
REMARK    3  A    between atoms: C_3  and  C_4
REMARK    4  A    between atoms: C_4  and  C_5
REMARK    5  A    between atoms: C_5  and  N_6
REMARK    6  A    between atoms: C_10  and  C_11
REMARK    7  A    between atoms: C_20  and  N_21
REMARK    8  A    between atoms: N_21  and  C_22
REMARK    9  A    between atoms: C_24  and  C_25
REMARK   10  A    between atoms: C_25  and  O_26
REMARK   11  A    between atoms: C_27  and  O_28
REMARK   12  A    between atoms: C_29  and  O_30
REMARK                            x       y       z     vdW  Elec       q    Type
REMARK                         _______ _______ _______ _____ _____    ______ ____
ROOT
ATOM      1  N   UNL     1       4.876   6.659  16.919  0.00  0.00    +0.000 N 
ATOM      2  C   UNL     1       3.773   6.981  17.691  0.00  0.00    +0.000 A 
ATOM      3  N   UNL     1       3.227   8.129  17.295  0.00  0.00    +0.000 NA
ATOM      4  C   UNL     1       2.267   8.624  18.089  0.00  0.00    +0.000 A 
ATOM      5  C   UNL     1       1.776   8.007  19.231  0.00  0.00    +0.000 A 
ATOM      6  C   UNL     1       2.339   6.758  19.517  0.00  0.00    +0.000 A 
ATOM      7  N   UNL     1       3.353   6.259  18.756  0.00  0.00    +0.000 NA
ATOM      8  H   UNL     1       4.861   7.356  16.175  0.00  0.00    +0.000 HD
ENDROOT
BRANCH   5   9
ATOM      9  C   UNL     1       0.855   8.823  20.053  0.00  0.00    +0.000 A 
ATOM     10  N   UNL     1       0.177   9.831  19.527  0.00  0.00    +0.000 NA
ATOM     11  C   UNL     1      -0.341  10.644  20.514  0.00  0.00    +0.000 A 
ATOM     12  C   UNL     1      -0.925  11.912  20.315  0.00  0.00    +0.000 A 
ATOM     13  C   UNL     1      -1.277  12.690  21.421  0.00  0.00    +0.000 A 
ATOM     14  C   UNL     1      -1.126  12.186  22.709  0.00  0.00    +0.000 A 
ATOM     15  C   UNL     1      -0.625  10.897  22.925  0.00  0.00    +0.000 A 
ATOM     16  C   UNL     1      -0.201  10.154  21.811  0.00  0.00    +0.000 A 
ATOM     17  S   UNL     1       0.572   8.611  21.736  0.00  0.00    +0.000 S 
ENDBRANCH   5   9
BRANCH   6  18
ATOM     18  N   UNL     1       1.842   6.008  20.582  0.00  0.00    +0.000 N 
ATOM     19  H   UNL     1       1.154   6.561  21.092  0.00  0.00    +0.000 HD
BRANCH  18  20
ATOM     20  C   UNL     1       1.564   4.570  20.673  0.00  0.00    +0.000 C 
ATOM     21  C   UNL     1       2.751   3.779  21.279  0.00  0.00    +0.000 C 
ATOM     22  C   UNL     1       2.965   2.545  20.414  0.00  0.00    +0.000 C 
ATOM     23  C   UNL     1       2.302   2.917  19.116  0.00  0.00    +0.000 C 
ATOM     24  C   UNL     1       1.119   3.827  19.415  0.00  0.00    +0.000 C 
BRANCH  23  25
ATOM     25  O   UNL     1       1.883   1.700  18.496  0.00  0.00    +0.000 OA
ATOM     26  H   UNL     1       2.081   0.992  19.130  0.00  0.00    +0.000 HD
ENDBRANCH  23  25
BRANCH  24  27
ATOM     27  O   UNL     1      -0.041   3.011  19.685  0.00  0.00    +0.000 OA
ATOM     28  H   UNL     1      -0.046   2.848  20.651  0.00  0.00    +0.000 HD
ENDBRANCH  24  27
BRANCH  22  29
ATOM     29  C   UNL     1       4.425   2.182  20.077  0.00  0.00    +0.000 C 
BRANCH  29  30
ATOM     30  O   UNL     1       4.502   1.261  19.004  0.00  0.00    +0.000 OA
ATOM     31  H   UNL     1       5.252   1.534  18.439  0.00  0.00    +0.000 HD
ENDBRANCH  29  30
ENDBRANCH  22  29
ENDBRANCH  18  20
ENDBRANCH   6  18
BRANCH   1  32
ATOM     32  C   UNL     1       5.046   5.312  16.413  0.00  0.00    +0.000 C 
BRANCH  32  33
ATOM     33  C   UNL     1       5.805   4.481  17.455  0.00  0.00    +0.000 C 
BRANCH  33  34
ATOM     34  C   UNL     1       7.296   4.660  17.277  0.00  0.00    +0.000 C 
BRANCH  34  36
ATOM     35  C   UNL     1       7.782   5.900  19.298  0.00  0.00    +0.000 C 
ATOM     36  O   UNL     1       7.695   5.883  17.893  0.00  0.00    +0.000 OA
ENDBRANCH  34  36
ENDBRANCH  33  34
ENDBRANCH  32  33
ENDBRANCH   1  32
TORSDOF 11
ENDMDL
MODEL 4
REMARK VINA RESULT:      -7.4      1.200      1.715
REMARK  Name = 
REMARK  12 active torsions:
REMARK  status: ('A' for Active; 'I' for Inactive)
REMARK    1  A    between atoms: C_1  and  O_2
REMARK    2  A    between atoms: O_2  and  C_3
REMARK    3  A    between atoms: C_3  and  C_4
REMARK    4  A    between atoms: C_4  and  C_5
REMARK    5  A    between atoms: C_5  and  N_6
REMARK    6  A    between atoms: C_10  and  C_11
REMARK    7  A    between atoms: C_20  and  N_21
REMARK    8  A    between atoms: N_21  and  C_22
REMARK    9  A    between atoms: C_24  and  C_25
REMARK   10  A    between atoms: C_25  and  O_26
REMARK   11  A    between atoms: C_27  and  O_28
REMARK   12  A    between atoms: C_29  and  O_30
REMARK                            x       y       z     vdW  Elec       q    Type
REMARK                         _______ _______ _______ _____ _____    ______ ____
ROOT
ATOM      1  N   UNL     1       5.001   6.670  16.894  0.00  0.00    +0.000 N 
ATOM      2  C   UNL     1       3.887   6.983  17.654  0.00  0.00    +0.000 A 
ATOM      3  N   UNL     1       3.315   8.108  17.231  0.00  0.00    +0.000 NA
ATOM      4  C   UNL     1       2.340   8.598  18.009  0.00  0.00    +0.000 A 
ATOM      5  C   UNL     1       1.859   7.996  19.163  0.00  0.00    +0.000 A 
ATOM      6  C   UNL     1       2.452   6.768  19.480  0.00  0.00    +0.000 A 
ATOM      7  N   UNL     1       3.480   6.276  18.735  0.00  0.00    +0.000 NA
ATOM      8  H   UNL     1       4.972   7.349  16.135  0.00  0.00    +0.000 HD
ENDROOT
BRANCH   5   9
ATOM      9  C   UNL     1       0.916   8.809  19.963  0.00  0.00    +0.000 A 
ATOM     10  N   UNL     1       0.141   9.718  19.392  0.00  0.00    +0.000 NA
ATOM     11  C   UNL     1      -0.394  10.570  20.337  0.00  0.00    +0.000 A 
ATOM     12  C   UNL     1      -1.081  11.771  20.068  0.00  0.00    +0.000 A 
ATOM     13  C   UNL     1      -1.443  12.611  21.124  0.00  0.00    +0.000 A 
ATOM     14  C   UNL     1      -1.198  12.227  22.439  0.00  0.00    +0.000 A 
ATOM     15  C   UNL     1      -0.591  10.999  22.732  0.00  0.00    +0.000 A 
ATOM     16  C   UNL     1      -0.161  10.200  21.660  0.00  0.00    +0.000 A 
ATOM     17  S   UNL     1       0.723   8.717  21.669  0.00  0.00    +0.000 S 
ENDBRANCH   5   9
BRANCH   6  18
ATOM     18  N   UNL     1       1.968   6.031  20.560  0.00  0.00    +0.000 N 
ATOM     19  H   UNL     1       1.307   6.600  21.088  0.00  0.00    +0.000 HD
BRANCH  18  20
ATOM     20  C   UNL     1       1.660   4.600  20.662  0.00  0.00    +0.000 C 
ATOM     21  C   UNL     1       2.841   3.785  21.248  0.00  0.00    +0.000 C 
ATOM     22  C   UNL     1       3.010   2.544  20.384  0.00  0.00    +0.000 C 
ATOM     23  C   UNL     1       2.331   2.925  19.097  0.00  0.00    +0.000 C 
ATOM     24  C   UNL     1       1.175   3.862  19.416  0.00  0.00    +0.000 C 
BRANCH  23  25
ATOM     25  O   UNL     1       1.873   1.716  18.490  0.00  0.00    +0.000 OA
ATOM     26  H   UNL     1       1.973   1.840  17.533  0.00  0.00    +0.000 HD
ENDBRANCH  23  25
BRANCH  24  27
ATOM     27  O   UNL     1       0.002   3.074  19.711  0.00  0.00    +0.000 OA
ATOM     28  H   UNL     1      -0.656   3.690  20.095  0.00  0.00    +0.000 HD
ENDBRANCH  24  27
BRANCH  22  29
ATOM     29  C   UNL     1       4.456   2.147  20.020  0.00  0.00    +0.000 C 
BRANCH  29  30
ATOM     30  O   UNL     1       5.157   3.219  19.415  0.00  0.00    +0.000 OA
ATOM     31  H   UNL     1       4.500   3.767  18.942  0.00  0.00    +0.000 HD
ENDBRANCH  29  30
ENDBRANCH  22  29
ENDBRANCH  18  20
ENDBRANCH   6  18
BRANCH   1  32
ATOM     32  C   UNL     1       5.205   5.317  16.420  0.00  0.00    +0.000 C 
BRANCH  32  33
ATOM     33  C   UNL     1       6.712   5.055  16.295  0.00  0.00    +0.000 C 
BRANCH  33  34
ATOM     34  C   UNL     1       7.049   4.629  14.883  0.00  0.00    +0.000 C 
BRANCH  34  36
ATOM     35  C   UNL     1       5.950   3.643  12.965  0.00  0.00    +0.000 C 
ATOM     36  O   UNL     1       5.841   4.342  14.182  0.00  0.00    +0.000 OA
ENDBRANCH  34  36
ENDBRANCH  33  34
ENDBRANCH  32  33
ENDBRANCH   1  32
TORSDOF 11
ENDMDL
MODEL 5
REMARK VINA RESULT:      -7.4      2.060      4.550
REMARK  Name = 
REMARK  12 active torsions:
REMARK  status: ('A' for Active; 'I' for Inactive)
REMARK    1  A    between atoms: C_1  and  O_2
REMARK    2  A    between atoms: O_2  and  C_3
REMARK    3  A    between atoms: C_3  and  C_4
REMARK    4  A    between atoms: C_4  and  C_5
REMARK    5  A    between atoms: C_5  and  N_6
REMARK    6  A    between atoms: C_10  and  C_11
REMARK    7  A    between atoms: C_20  and  N_21
REMARK    8  A    between atoms: N_21  and  C_22
REMARK    9  A    between atoms: C_24  and  C_25
REMARK   10  A    between atoms: C_25  and  O_26
REMARK   11  A    between atoms: C_27  and  O_28
REMARK   12  A    between atoms: C_29  and  O_30
REMARK                            x       y       z     vdW  Elec       q    Type
REMARK                         _______ _______ _______ _____ _____    ______ ____
ROOT
ATOM      1  N   UNL     1       2.589   2.468  18.963  0.00  0.00    +0.000 N 
ATOM      2  C   UNL     1       2.657   3.841  19.121  0.00  0.00    +0.000 A 
ATOM      3  N   UNL     1       1.876   4.252  20.117  0.00  0.00    +0.000 NA
ATOM      4  C   UNL     1       1.727   5.579  20.236  0.00  0.00    +0.000 A 
ATOM      5  C   UNL     1       2.364   6.528  19.449  0.00  0.00    +0.000 A 
ATOM      6  C   UNL     1       3.242   6.010  18.490  0.00  0.00    +0.000 A 
ATOM      7  N   UNL     1       3.369   4.665  18.315  0.00  0.00    +0.000 NA
ATOM      8  H   UNL     1       2.041   2.161  19.766  0.00  0.00    +0.000 HD
ENDROOT
BRANCH   5   9
ATOM      9  C   UNL     1       1.904   7.923  19.633  0.00  0.00    +0.000 A 
ATOM     10  N   UNL     1       1.611   8.395  20.835  0.00  0.00    +0.000 NA
ATOM     11  C   UNL     1       0.898   9.572  20.739  0.00  0.00    +0.000 A 
ATOM     12  C   UNL     1       0.242  10.227  21.802  0.00  0.00    +0.000 A 
ATOM     13  C   UNL     1      -0.566  11.335  21.537  0.00  0.00    +0.000 A 
ATOM     14  C   UNL     1      -0.660  11.839  20.243  0.00  0.00    +0.000 A 
ATOM     15  C   UNL     1       0.049  11.255  19.187  0.00  0.00    +0.000 A 
ATOM     16  C   UNL     1       0.795  10.094  19.452  0.00  0.00    +0.000 A 
ATOM     17  S   UNL     1       1.666   9.066  18.371  0.00  0.00    +0.000 S 
ENDBRANCH   5   9
BRANCH   6  18
ATOM     18  N   UNL     1       4.010   6.882  17.720  0.00  0.00    +0.000 N 
ATOM     19  H   UNL     1       3.793   7.843  17.981  0.00  0.00    +0.000 HD
BRANCH  18  20
ATOM     20  C   UNL     1       5.388   6.745  17.233  0.00  0.00    +0.000 C 
ATOM     21  C   UNL     1       5.448   6.203  15.783  0.00  0.00    +0.000 C 
ATOM     22  C   UNL     1       6.514   5.119  15.745  0.00  0.00    +0.000 C 
ATOM     23  C   UNL     1       6.644   4.714  17.188  0.00  0.00    +0.000 C 
ATOM     24  C   UNL     1       6.382   5.933  18.061  0.00  0.00    +0.000 C 
BRANCH  23  25
ATOM     25  O   UNL     1       7.971   4.218  17.367  0.00  0.00    +0.000 OA
ATOM     26  H   UNL     1       8.549   4.795  16.841  0.00  0.00    +0.000 HD
ENDBRANCH  23  25
BRANCH  24  27
ATOM     27  O   UNL     1       7.618   6.659  18.235  0.00  0.00    +0.000 OA
ATOM     28  H   UNL     1       8.173   6.120  18.837  0.00  0.00    +0.000 HD
ENDBRANCH  24  27
BRANCH  22  29
ATOM     29  C   UNL     1       6.171   3.839  14.956  0.00  0.00    +0.000 C 
BRANCH  29  30
ATOM     30  O   UNL     1       5.873   2.755  15.819  0.00  0.00    +0.000 OA
ATOM     31  H   UNL     1       6.196   1.940  15.385  0.00  0.00    +0.000 HD
ENDBRANCH  29  30
ENDBRANCH  22  29
ENDBRANCH  18  20
ENDBRANCH   6  18
BRANCH   1  32
ATOM     32  C   UNL     1       3.799   1.691  18.789  0.00  0.00    +0.000 C 
BRANCH  32  33
ATOM     33  C   UNL     1       4.729   1.945  19.982  0.00  0.00    +0.000 C 
BRANCH  33  34
ATOM     34  C   UNL     1       5.146   0.630  20.604  0.00  0.00    +0.000 C 
BRANCH  34  36
ATOM     35  C   UNL     1       6.558  -0.188  22.392  0.00  0.00    +0.000 C 
ATOM     36  O   UNL     1       5.878   0.893  21.799  0.00  0.00    +0.000 OA
ENDBRANCH  34  36
ENDBRANCH  33  34
ENDBRANCH  32  33
ENDBRANCH   1  32
TORSDOF 11
ENDMDL
MODEL 6
REMARK VINA RESULT:      -7.4      2.382      3.467
REMARK  Name = 
REMARK  12 active torsions:
REMARK  status: ('A' for Active; 'I' for Inactive)
REMARK    1  A    between atoms: C_1  and  O_2
REMARK    2  A    between atoms: O_2  and  C_3
REMARK    3  A    between atoms: C_3  and  C_4
REMARK    4  A    between atoms: C_4  and  C_5
REMARK    5  A    between atoms: C_5  and  N_6
REMARK    6  A    between atoms: C_10  and  C_11
REMARK    7  A    between atoms: C_20  and  N_21
REMARK    8  A    between atoms: N_21  and  C_22
REMARK    9  A    between atoms: C_24  and  C_25
REMARK   10  A    between atoms: C_25  and  O_26
REMARK   11  A    between atoms: C_27  and  O_28
REMARK   12  A    between atoms: C_29  and  O_30
REMARK                            x       y       z     vdW  Elec       q    Type
REMARK                         _______ _______ _______ _____ _____    ______ ____
ROOT
ATOM      1  N   UNL     1       6.744   4.729  15.059  0.00  0.00    +0.000 N 
ATOM      2  C   UNL     1       5.657   5.272  15.721  0.00  0.00    +0.000 A 
ATOM      3  N   UNL     1       5.716   6.602  15.734  0.00  0.00    +0.000 NA
ATOM      4  C   UNL     1       4.811   7.221  16.505  0.00  0.00    +0.000 A 
ATOM      5  C   UNL     1       3.807   6.588  17.225  0.00  0.00    +0.000 A 
ATOM      6  C   UNL     1       3.760   5.197  17.076  0.00  0.00    +0.000 A 
ATOM      7  N   UNL     1       4.700   4.542  16.340  0.00  0.00    +0.000 NA
ATOM      8  H   UNL     1       7.211   5.542  14.656  0.00  0.00    +0.000 HD
ENDROOT
BRANCH   5   9
ATOM      9  C   UNL     1       3.046   7.451  18.155  0.00  0.00    +0.000 A 
ATOM     10  N   UNL     1       2.801   7.070  19.399  0.00  0.00    +0.000 NA
ATOM     11  C   UNL     1       1.815   7.850  19.967  0.00  0.00    +0.000 A 
ATOM     12  C   UNL     1       1.159   7.590  21.188  0.00  0.00    +0.000 A 
ATOM     13  C   UNL     1       0.078   8.386  21.574  0.00  0.00    +0.000 A 
ATOM     14  C   UNL     1      -0.300   9.477  20.798  0.00  0.00    +0.000 A 
ATOM     15  C   UNL     1       0.391   9.803  19.625  0.00  0.00    +0.000 A 
ATOM     16  C   UNL     1       1.426   8.950  19.206  0.00  0.00    +0.000 A 
ATOM     17  S   UNL     1       2.377   8.986  17.765  0.00  0.00    +0.000 S 
ENDBRANCH   5   9
BRANCH   6  18
ATOM     18  N   UNL     1       2.725   4.478  17.673  0.00  0.00    +0.000 N 
ATOM     19  H   UNL     1       1.856   4.657  17.172  0.00  0.00    +0.000 HD
BRANCH  18  20
ATOM     20  C   UNL     1       2.736   3.145  18.287  0.00  0.00    +0.000 C 
ATOM     21  C   UNL     1       1.497   2.900  19.184  0.00  0.00    +0.000 C 
ATOM     22  C   UNL     1       1.990   2.274  20.480  0.00  0.00    +0.000 C 
ATOM     23  C   UNL     1       3.445   2.653  20.513  0.00  0.00    +0.000 C 
ATOM     24  C   UNL     1       3.965   2.714  19.084  0.00  0.00    +0.000 C 
BRANCH  23  25
ATOM     25  O   UNL     1       4.122   1.651  21.275  0.00  0.00    +0.000 OA
ATOM     26  H   UNL     1       4.337   2.060  22.128  0.00  0.00    +0.000 HD
ENDBRANCH  23  25
BRANCH  24  27
ATOM     27  O   UNL     1       4.398   1.395  18.688  0.00  0.00    +0.000 OA
ATOM     28  H   UNL     1       3.623   0.962  18.273  0.00  0.00    +0.000 HD
ENDBRANCH  24  27
BRANCH  22  29
ATOM     29  C   UNL     1       1.364   2.805  21.786  0.00  0.00    +0.000 C 
BRANCH  29  30
ATOM     30  O   UNL     1       2.301   3.538  22.556  0.00  0.00    +0.000 OA
ATOM     31  H   UNL     1       3.194   3.272  22.259  0.00  0.00    +0.000 HD
ENDBRANCH  29  30
ENDBRANCH  22  29
ENDBRANCH  18  20
ENDBRANCH   6  18
BRANCH   1  32
ATOM     32  C   UNL     1       6.555   3.665  14.094  0.00  0.00    +0.000 C 
BRANCH  32  33
ATOM     33  C   UNL     1       5.291   3.956  13.274  0.00  0.00    +0.000 C 
BRANCH  33  34
ATOM     34  C   UNL     1       5.468   3.462  11.855  0.00  0.00    +0.000 C 
BRANCH  34  36
ATOM     35  C   UNL     1       3.497   3.497  10.450  0.00  0.00    +0.000 C 
ATOM     36  O   UNL     1       4.261   2.833  11.429  0.00  0.00    +0.000 OA
ENDBRANCH  34  36
ENDBRANCH  33  34
ENDBRANCH  32  33
ENDBRANCH   1  32
TORSDOF 11
ENDMDL
MODEL 7
REMARK VINA RESULT:      -7.3      1.858      2.333
REMARK  Name = 
REMARK  12 active torsions:
REMARK  status: ('A' for Active; 'I' for Inactive)
REMARK    1  A    between atoms: C_1  and  O_2
REMARK    2  A    between atoms: O_2  and  C_3
REMARK    3  A    between atoms: C_3  and  C_4
REMARK    4  A    between atoms: C_4  and  C_5
REMARK    5  A    between atoms: C_5  and  N_6
REMARK    6  A    between atoms: C_10  and  C_11
REMARK    7  A    between atoms: C_20  and  N_21
REMARK    8  A    between atoms: N_21  and  C_22
REMARK    9  A    between atoms: C_24  and  C_25
REMARK   10  A    between atoms: C_25  and  O_26
REMARK   11  A    between atoms: C_27  and  O_28
REMARK   12  A    between atoms: C_29  and  O_30
REMARK                            x       y       z     vdW  Elec       q    Type
REMARK                         _______ _______ _______ _____ _____    ______ ____
ROOT
ATOM      1  N   UNL     1       6.166   4.800  16.328  0.00  0.00    +0.000 N 
ATOM      2  C   UNL     1       5.070   5.524  16.767  0.00  0.00    +0.000 A 
ATOM      3  N   UNL     1       5.310   6.833  16.726  0.00  0.00    +0.000 NA
ATOM      4  C   UNL     1       4.386   7.616  17.301  0.00  0.00    +0.000 A 
ATOM      5  C   UNL     1       3.199   7.169  17.866  0.00  0.00    +0.000 A 
ATOM      6  C   UNL     1       2.985   5.789  17.777  0.00  0.00    +0.000 A 
ATOM      7  N   UNL     1       3.933   4.968  17.246  0.00  0.00    +0.000 NA
ATOM      8  H   UNL     1       6.800   5.516  15.974  0.00  0.00    +0.000 HD
ENDROOT
BRANCH   5   9
ATOM      9  C   UNL     1       2.423   8.186  18.609  0.00  0.00    +0.000 A 
ATOM     10  N   UNL     1       2.140   8.029  19.893  0.00  0.00    +0.000 NA
ATOM     11  C   UNL     1       1.148   8.902  20.288  0.00  0.00    +0.000 A 
ATOM     12  C   UNL     1       0.456   8.863  21.516  0.00  0.00    +0.000 A 
ATOM     13  C   UNL     1      -0.627   9.720  21.726  0.00  0.00    +0.000 A 
ATOM     14  C   UNL     1      -0.971  10.662  20.762  0.00  0.00    +0.000 A 
ATOM     15  C   UNL     1      -0.245  10.775  19.570  0.00  0.00    +0.000 A 
ATOM     16  C   UNL     1       0.791   9.855  19.336  0.00  0.00    +0.000 A 
ATOM     17  S   UNL     1       1.782   9.634  17.939  0.00  0.00    +0.000 S 
ENDBRANCH   5   9
BRANCH   6  18
ATOM     18  N   UNL     1       1.776   5.252  18.219  0.00  0.00    +0.000 N 
ATOM     19  H   UNL     1       1.048   5.449  17.534  0.00  0.00    +0.000 HD
BRANCH  18  20
ATOM     20  C   UNL     1       1.510   4.012  18.958  0.00  0.00    +0.000 C 
ATOM     21  C   UNL     1       2.329   3.923  20.270  0.00  0.00    +0.000 C 
ATOM     22  C   UNL     1       2.917   2.522  20.346  0.00  0.00    +0.000 C 
ATOM     23  C   UNL     1       2.878   2.056  18.916  0.00  0.00    +0.000 C 
ATOM     24  C   UNL     1       1.668   2.677  18.234  0.00  0.00    +0.000 C 
BRANCH  23  25
ATOM     25  O   UNL     1       2.790   0.630  18.942  0.00  0.00    +0.000 OA
ATOM     26  H   UNL     1       3.573   0.320  19.424  0.00  0.00    +0.000 HD
ENDBRANCH  23  25
BRANCH  24  27
ATOM     27  O   UNL     1       0.520   1.832  18.459  0.00  0.00    +0.000 OA
ATOM     28  H   UNL     1       0.065   2.189  19.250  0.00  0.00    +0.000 HD
ENDBRANCH  24  27
BRANCH  22  29
ATOM     29  C   UNL     1       4.385   2.412  20.807  0.00  0.00    +0.000 C 
BRANCH  29  30
ATOM     30  O   UNL     1       5.134   1.547  19.972  0.00  0.00    +0.000 OA
ATOM     31  H   UNL     1       5.104   1.917  19.067  0.00  0.00    +0.000 HD
ENDBRANCH  29  30
ENDBRANCH  22  29
ENDBRANCH  18  20
ENDBRANCH   6  18
BRANCH   1  32
ATOM     32  C   UNL     1       5.991   3.705  15.396  0.00  0.00    +0.000 C 
BRANCH  32  33
ATOM     33  C   UNL     1       5.540   4.269  14.043  0.00  0.00    +0.000 C 
BRANCH  33  34
ATOM     34  C   UNL     1       6.314   3.612  12.922  0.00  0.00    +0.000 C 
BRANCH  34  36
ATOM     35  C   UNL     1       5.720   1.902  11.315  0.00  0.00    +0.000 C 
ATOM     36  O   UNL     1       5.394   3.115  11.952  0.00  0.00    +0.000 OA
ENDBRANCH  34  36
ENDBRANCH  33  34
ENDBRANCH  32  33
ENDBRANCH   1  32
TORSDOF 11
ENDMDL
MODEL 8
REMARK VINA RESULT:      -7.2      1.224      1.633
REMARK  Name = 
REMARK  12 active torsions:
REMARK  status: ('A' for Active; 'I' for Inactive)
REMARK    1  A    between atoms: C_1  and  O_2
REMARK    2  A    between atoms: O_2  and  C_3
REMARK    3  A    between atoms: C_3  and  C_4
REMARK    4  A    between atoms: C_4  and  C_5
REMARK    5  A    between atoms: C_5  and  N_6
REMARK    6  A    between atoms: C_10  and  C_11
REMARK    7  A    between atoms: C_20  and  N_21
REMARK    8  A    between atoms: N_21  and  C_22
REMARK    9  A    between atoms: C_24  and  C_25
REMARK   10  A    between atoms: C_25  and  O_26
REMARK   11  A    between atoms: C_27  and  O_28
REMARK   12  A    between atoms: C_29  and  O_30
REMARK                            x       y       z     vdW  Elec       q    Type
REMARK                         _______ _______ _______ _____ _____    ______ ____
ROOT
ATOM      1  N   UNL     1       5.103   6.856  16.590  0.00  0.00    +0.000 N 
ATOM      2  C   UNL     1       4.019   7.071  17.424  0.00  0.00    +0.000 A 
ATOM      3  N   UNL     1       3.344   8.161  17.064  0.00  0.00    +0.000 NA
ATOM      4  C   UNL     1       2.387   8.562  17.913  0.00  0.00    +0.000 A 
ATOM      5  C   UNL     1       2.022   7.902  19.078  0.00  0.00    +0.000 A 
ATOM      6  C   UNL     1       2.719   6.714  19.327  0.00  0.00    +0.000 A 
ATOM      7  N   UNL     1       3.731   6.314  18.508  0.00  0.00    +0.000 NA
ATOM      8  H   UNL     1       4.978   7.547  15.851  0.00  0.00    +0.000 HD
ENDROOT
BRANCH   5   9
ATOM      9  C   UNL     1       1.076   8.628  19.954  0.00  0.00    +0.000 A 
ATOM     10  N   UNL     1       0.320   9.608  19.483  0.00  0.00    +0.000 NA
ATOM     11  C   UNL     1      -0.220  10.349  20.514  0.00  0.00    +0.000 A 
ATOM     12  C   UNL     1      -0.889  11.583  20.378  0.00  0.00    +0.000 A 
ATOM     13  C   UNL     1      -1.259  12.297  21.521  0.00  0.00    +0.000 A 
ATOM     14  C   UNL     1      -1.040  11.758  22.785  0.00  0.00    +0.000 A 
ATOM     15  C   UNL     1      -0.452  10.496  22.940  0.00  0.00    +0.000 A 
ATOM     16  C   UNL     1      -0.013   9.823  21.787  0.00  0.00    +0.000 A 
ATOM     17  S   UNL     1       0.853   8.338  21.634  0.00  0.00    +0.000 S 
ENDBRANCH   5   9
BRANCH   6  18
ATOM     18  N   UNL     1       2.357   5.922  20.415  0.00  0.00    +0.000 N 
ATOM     19  H   UNL     1       1.633   6.396  20.953  0.00  0.00    +0.000 HD
BRANCH  18  20
ATOM     20  C   UNL     1       2.249   4.462  20.524  0.00  0.00    +0.000 C 
ATOM     21  C   UNL     1       3.374   3.730  19.751  0.00  0.00    +0.000 C 
ATOM     22  C   UNL     1       2.727   2.599  18.966  0.00  0.00    +0.000 C 
ATOM     23  C   UNL     1       1.286   3.020  18.882  0.00  0.00    +0.000 C 
ATOM     24  C   UNL     1       0.929   3.793  20.144  0.00  0.00    +0.000 C 
BRANCH  23  25
ATOM     25  O   UNL     1       0.507   1.829  18.760  0.00  0.00    +0.000 OA
ATOM     26  H   UNL     1       0.097   1.684  19.627  0.00  0.00    +0.000 HD
ENDBRANCH  23  25
BRANCH  24  27
ATOM     27  O   UNL     1       0.516   2.858  21.163  0.00  0.00    +0.000 OA
ATOM     28  H   UNL     1       1.221   2.861  21.843  0.00  0.00    +0.000 HD
ENDBRANCH  24  27
BRANCH  22  29
ATOM     29  C   UNL     1       3.215   2.396  17.516  0.00  0.00    +0.000 C 
BRANCH  29  30
ATOM     30  O   UNL     1       4.623   2.517  17.415  0.00  0.00    +0.000 OA
ATOM     31  H   UNL     1       4.919   1.893  16.723  0.00  0.00    +0.000 HD
ENDBRANCH  29  30
ENDBRANCH  22  29
ENDBRANCH  18  20
ENDBRANCH   6  18
BRANCH   1  32
ATOM     32  C   UNL     1       5.373   5.531  16.070  0.00  0.00    +0.000 C 
BRANCH  32  33
ATOM     33  C   UNL     1       6.891   5.339  15.960  0.00  0.00    +0.000 C 
BRANCH  33  34
ATOM     34  C   UNL     1       7.425   4.695  17.220  0.00  0.00    +0.000 C 
BRANCH  34  36
ATOM     35  C   UNL     1       7.167   5.585  19.456  0.00  0.00    +0.000 C 
ATOM     36  O   UNL     1       7.728   5.713  18.171  0.00  0.00    +0.000 OA
ENDBRANCH  34  36
ENDBRANCH  33  34
ENDBRANCH  32  33
ENDBRANCH   1  32
TORSDOF 11
ENDMDL
MODEL 9
REMARK VINA RESULT:      -7.2      2.370      4.873
REMARK  Name = 
REMARK  12 active torsions:
REMARK  status: ('A' for Active; 'I' for Inactive)
REMARK    1  A    between atoms: C_1  and  O_2
REMARK    2  A    between atoms: O_2  and  C_3
REMARK    3  A    between atoms: C_3  and  C_4
REMARK    4  A    between atoms: C_4  and  C_5
REMARK    5  A    between atoms: C_5  and  N_6
REMARK    6  A    between atoms: C_10  and  C_11
REMARK    7  A    between atoms: C_20  and  N_21
REMARK    8  A    between atoms: N_21  and  C_22
REMARK    9  A    between atoms: C_24  and  C_25
REMARK   10  A    between atoms: C_25  and  O_26
REMARK   11  A    between atoms: C_27  and  O_28
REMARK   12  A    between atoms: C_29  and  O_30
REMARK                            x       y       z     vdW  Elec       q    Type
REMARK                         _______ _______ _______ _____ _____    ______ ____
ROOT
ATOM      1  N   UNL     1       2.725   2.484  19.214  0.00  0.00    +0.000 N 
ATOM      2  C   UNL     1       2.731   3.866  19.287  0.00  0.00    +0.000 A 
ATOM      3  N   UNL     1       1.934   4.301  20.260  0.00  0.00    +0.000 NA
ATOM      4  C   UNL     1       1.725   5.624  20.299  0.00  0.00    +0.000 A 
ATOM      5  C   UNL     1       2.315   6.552  19.452  0.00  0.00    +0.000 A 
ATOM      6  C   UNL     1       3.213   6.016  18.522  0.00  0.00    +0.000 A 
ATOM      7  N   UNL     1       3.402   4.670  18.429  0.00  0.00    +0.000 NA
ATOM      8  H   UNL     1       2.194   2.202  20.037  0.00  0.00    +0.000 HD
ENDROOT
BRANCH   5   9
ATOM      9  C   UNL     1       1.792   7.932  19.552  0.00  0.00    +0.000 A 
ATOM     10  N   UNL     1       1.869   8.771  18.530  0.00  0.00    +0.000 NA
ATOM     11  C   UNL     1       1.638  10.068  18.941  0.00  0.00    +0.000 A 
ATOM     12  C   UNL     1       1.854  11.227  18.168  0.00  0.00    +0.000 A 
ATOM     13  C   UNL     1       1.717  12.486  18.758  0.00  0.00    +0.000 A 
ATOM     14  C   UNL     1       1.294  12.597  20.079  0.00  0.00    +0.000 A 
ATOM     15  C   UNL     1       0.994  11.460  20.840  0.00  0.00    +0.000 A 
ATOM     16  C   UNL     1       1.211  10.199  20.260  0.00  0.00    +0.000 A 
ATOM     17  S   UNL     1       1.072   8.623  20.952  0.00  0.00    +0.000 S 
ENDBRANCH   5   9
BRANCH   6  18
ATOM     18  N   UNL     1       3.939   6.873  17.695  0.00  0.00    +0.000 N 
ATOM     19  H   UNL     1       3.699   7.839  17.917  0.00  0.00    +0.000 HD
BRANCH  18  20
ATOM     20  C   UNL     1       5.309   6.754  17.184  0.00  0.00    +0.000 C 
ATOM     21  C   UNL     1       5.352   6.192  15.741  0.00  0.00    +0.000 C 
ATOM     22  C   UNL     1       6.436   5.126  15.699  0.00  0.00    +0.000 C 
ATOM     23  C   UNL     1       6.601   4.746  17.145  0.00  0.00    +0.000 C 
ATOM     24  C   UNL     1       6.333   5.973  18.005  0.00  0.00    +0.000 C 
BRANCH  23  25
ATOM     25  O   UNL     1       7.940   4.276  17.305  0.00  0.00    +0.000 OA
ATOM     26  H   UNL     1       8.408   4.509  16.487  0.00  0.00    +0.000 HD
ENDBRANCH  23  25
BRANCH  24  27
ATOM     27  O   UNL     1       7.559   6.722  18.143  0.00  0.00    +0.000 OA
ATOM     28  H   UNL     1       7.562   7.083  19.055  0.00  0.00    +0.000 HD
ENDBRANCH  24  27
BRANCH  22  29
ATOM     29  C   UNL     1       6.101   3.828  14.935  0.00  0.00    +0.000 C 
BRANCH  29  30
ATOM     30  O   UNL     1       5.821   2.757  15.820  0.00  0.00    +0.000 OA
ATOM     31  H   UNL     1       5.254   3.110  16.534  0.00  0.00    +0.000 HD
ENDBRANCH  29  30
ENDBRANCH  22  29
ENDBRANCH  18  20
ENDBRANCH   6  18
BRANCH   1  32
ATOM     32  C   UNL     1       3.969   1.754  19.081  0.00  0.00    +0.000 C 
BRANCH  32  33
ATOM     33  C   UNL     1       4.755   1.868  20.393  0.00  0.00    +0.000 C 
BRANCH  33  34
ATOM     34  C   UNL     1       5.356   0.528  20.757  0.00  0.00    +0.000 C 
BRANCH  34  36
ATOM     35  C   UNL     1       6.719  -0.490  22.479  0.00  0.00    +0.000 C 
ATOM     36  O   UNL     1       6.049   0.651  21.998  0.00  0.00    +0.000 OA
ENDBRANCH  34  36
ENDBRANCH  33  34
ENDBRANCH  32  33
ENDBRANCH   1  32
TORSDOF 11
ENDMDL
