MODEL 1
REMARK VINA RESULT:      -7.4      0.000      0.000
REMARK  Name = 
REMARK  5 active torsions:
REMARK  status: ('A' for Active; 'I' for Inactive)
REMARK    1  A    between atoms: C_2  and  O_12
REMARK    2  A    between atoms: N_3  and  C_4
REMARK    3  A    between atoms: C_7  and  O_8
REMARK    4  A    between atoms: C_10  and  O_11
REMARK    5  A    between atoms: O_12  and  C_13
REMARK                            x       y       z     vdW  Elec       q    Type
REMARK                         _______ _______ _______ _____ _____    ______ ____
ROOT
ATOM      1  O   UNL     1       5.520   5.387  19.174  0.00  0.00    +0.000 OA
ATOM      2  C   UNL     1       5.209   4.223  18.961  0.00  0.00    +0.000 C 
ATOM      3  N   UNL     1       5.290   3.576  17.755  0.00  0.00    +0.000 N 
ATOM      4  H   UNL     1       4.949   2.620  17.725  0.00  0.00    +0.000 HD
ENDROOT
BRANCH   3   5
ATOM      5  C   UNL     1       5.870   4.075  16.573  0.00  0.00    +0.000 A 
ATOM      6  C   UNL     1       5.194   4.371  15.403  0.00  0.00    +0.000 A 
ATOM      7  N   UNL     1       5.794   4.867  14.295  0.00  0.00    +0.000 NA
ATOM      8  C   UNL     1       7.111   5.057  14.399  0.00  0.00    +0.000 A 
ATOM      9  N   UNL     1       7.889   4.827  15.455  0.00  0.00    +0.000 NA
ATOM     10  C   UNL     1       7.225   4.343  16.513  0.00  0.00    +0.000 A 
BRANCH   8  11
ATOM     11  O   UNL     1       7.696   5.553  13.276  0.00  0.00    +0.000 OA
ATOM     12  H   UNL     1       8.385   6.098  13.698  0.00  0.00    +0.000 HD
ENDBRANCH   8  11
BRANCH  10  13
ATOM     13  O   UNL     1       8.026   4.115  17.591  0.00  0.00    +0.000 OA
ATOM     14  H   UNL     1       8.654   4.854  17.500  0.00  0.00    +0.000 HD
ENDBRANCH  10  13
ENDBRANCH   3   5
BRANCH   2  15
ATOM     15  O   UNL     1       4.747   3.338  19.926  0.00  0.00    +0.000 OA
BRANCH  15  16
ATOM     16  C   UNL     1       3.354   3.166  19.986  0.00  0.00    +0.000 A 
ATOM     17  C   UNL     1       2.609   4.110  20.693  0.00  0.00    +0.000 A 
ATOM     18  C   UNL     1       1.214   4.065  20.632  0.00  0.00    +0.000 A 
ATOM     19  C   UNL     1       0.576   3.088  19.863  0.00  0.00    +0.000 A 
ATOM     20  C   UNL     1       1.328   2.141  19.168  0.00  0.00    +0.000 A 
ATOM     21  C   UNL     1       2.721   2.182  19.224  0.00  0.00    +0.000 A 
ENDBRANCH  15  16
ENDBRANCH   2  15
TORSDOF 5
ENDMDL
MODEL 2
REMARK VINA RESULT:      -7.2      1.214      1.635
REMARK  Name = 
REMARK  5 active torsions:
REMARK  status: ('A' for Active; 'I' for Inactive)
REMARK    1  A    between atoms: C_2  and  O_12
REMARK    2  A    between atoms: N_3  and  C_4
REMARK    3  A    between atoms: C_7  and  O_8
REMARK    4  A    between atoms: C_10  and  O_11
REMARK    5  A    between atoms: O_12  and  C_13
REMARK                            x       y       z     vdW  Elec       q    Type
REMARK                         _______ _______ _______ _____ _____    ______ ____
ROOT
ATOM      1  O   UNL     1       4.298   5.222  17.359  0.00  0.00    +0.000 OA
ATOM      2  C   UNL     1       4.686   4.066  17.463  0.00  0.00    +0.000 C 
ATOM      3  N   UNL     1       5.508   3.411  16.583  0.00  0.00    +0.000 N 
ATOM      4  H   UNL     1       5.706   2.435  16.782  0.00  0.00    +0.000 HD
ENDROOT
BRANCH   3   5
ATOM      5  C   UNL     1       6.172   3.975  15.478  0.00  0.00    +0.000 A 
ATOM      6  C   UNL     1       5.930   3.674  14.149  0.00  0.00    +0.000 A 
ATOM      7  N   UNL     1       6.584   4.257  13.117  0.00  0.00    +0.000 NA
ATOM      8  C   UNL     1       7.502   5.163  13.464  0.00  0.00    +0.000 A 
ATOM      9  N   UNL     1       7.836   5.558  14.691  0.00  0.00    +0.000 NA
ATOM     10  C   UNL     1       7.145   4.941  15.658  0.00  0.00    +0.000 A 
BRANCH   8  11
ATOM     11  O   UNL     1       8.149   5.735  12.414  0.00  0.00    +0.000 OA
ATOM     12  H   UNL     1       7.373   5.978  11.878  0.00  0.00    +0.000 HD
ENDBRANCH   8  11
BRANCH  10  13
ATOM     13  O   UNL     1       7.488   5.355  16.910  0.00  0.00    +0.000 OA
ATOM     14  H   UNL     1       7.042   6.221  16.935  0.00  0.00    +0.000 HD
ENDBRANCH  10  13
ENDBRANCH   3   5
BRANCH   2  15
ATOM     15  O   UNL     1       4.381   3.222  18.522  0.00  0.00    +0.000 OA
BRANCH  15  16
ATOM     16  C   UNL     1       3.083   3.341  19.049  0.00  0.00    +0.000 A 
ATOM     17  C   UNL     1       2.061   2.616  18.437  0.00  0.00    +0.000 A 
ATOM     18  C   UNL     1       0.799   2.578  19.034  0.00  0.00    +0.000 A 
ATOM     19  C   UNL     1       0.569   3.254  20.235  0.00  0.00    +0.000 A 
ATOM     20  C   UNL     1       1.594   3.986  20.835  0.00  0.00    +0.000 A 
ATOM     21  C   UNL     1       2.857   4.026  20.245  0.00  0.00    +0.000 A 
ENDBRANCH  15  16
ENDBRANCH   2  15
TORSDOF 5
ENDMDL
MODEL 3
REMARK VINA RESULT:      -7.1      0.262      1.162
REMARK  Name = 
REMARK  5 active torsions:
REMARK  status: ('A' for Active; 'I' for Inactive)
REMARK    1  A    between atoms: C_2  and  O_12
REMARK    2  A    between atoms: N_3  and  C_4
REMARK    3  A    between atoms: C_7  and  O_8
REMARK    4  A    between atoms: C_10  and  O_11
REMARK    5  A    between atoms: O_12  and  C_13
REMARK                            x       y       z     vdW  Elec       q    Type
REMARK                         _______ _______ _______ _____ _____    ______ ____
ROOT
ATOM      1  O   UNL     1       5.829   5.368  19.063  0.00  0.00    +0.000 OA
ATOM      2  C   UNL     1       5.343   4.273  18.813  0.00  0.00    +0.000 C 
ATOM      3  N   UNL     1       5.283   3.682  17.578  0.00  0.00    +0.000 N 
ATOM      4  H   UNL     1       4.806   2.786  17.522  0.00  0.00    +0.000 HD
ENDROOT
BRANCH   3   5
ATOM      5  C   UNL     1       5.885   4.149  16.395  0.00  0.00    +0.000 A 
ATOM      6  C   UNL     1       5.225   4.447  15.216  0.00  0.00    +0.000 A 
ATOM      7  N   UNL     1       5.847   4.912  14.106  0.00  0.00    +0.000 NA
ATOM      8  C   UNL     1       7.168   5.069  14.217  0.00  0.00    +0.000 A 
ATOM      9  N   UNL     1       7.931   4.832  15.282  0.00  0.00    +0.000 NA
ATOM     10  C   UNL     1       7.247   4.380  16.341  0.00  0.00    +0.000 A 
BRANCH   8  11
ATOM     11  O   UNL     1       7.773   5.534  13.092  0.00  0.00    +0.000 OA
ATOM     12  H   UNL     1       8.260   4.727  12.844  0.00  0.00    +0.000 HD
ENDBRANCH   8  11
BRANCH  10  13
ATOM     13  O   UNL     1       8.033   4.145  17.428  0.00  0.00    +0.000 OA
ATOM     14  H   UNL     1       8.195   3.190  17.322  0.00  0.00    +0.000 HD
ENDBRANCH  10  13
ENDBRANCH   3   5
BRANCH   2  15
ATOM     15  O   UNL     1       4.794   3.418  19.759  0.00  0.00    +0.000 OA
BRANCH  15  16
ATOM     16  C   UNL     1       3.390   3.403  19.834  0.00  0.00    +0.000 A 
ATOM     17  C   UNL     1       2.725   2.258  19.397  0.00  0.00    +0.000 A 
ATOM     18  C   UNL     1       1.350   2.142  19.613  0.00  0.00    +0.000 A 
ATOM     19  C   UNL     1       0.653   3.162  20.266  0.00  0.00    +0.000 A 
ATOM     20  C   UNL     1       1.325   4.310  20.689  0.00  0.00    +0.000 A 
ATOM     21  C   UNL     1       2.698   4.430  20.479  0.00  0.00    +0.000 A 
ENDBRANCH  15  16
ENDBRANCH   2  15
TORSDOF 5
ENDMDL
MODEL 4
REMARK VINA RESULT:      -7.1      1.223      1.696
REMARK  Name = 
REMARK  5 active torsions:
REMARK  status: ('A' for Active; 'I' for Inactive)
REMARK    1  A    between atoms: C_2  and  O_12
REMARK    2  A    between atoms: N_3  and  C_4
REMARK    3  A    between atoms: C_7  and  O_8
REMARK    4  A    between atoms: C_10  and  O_11
REMARK    5  A    between atoms: O_12  and  C_13
REMARK                            x       y       z     vdW  Elec       q    Type
REMARK                         _______ _______ _______ _____ _____    ______ ____
ROOT
ATOM      1  O   UNL     1       6.487   4.368  19.000  0.00  0.00    +0.000 OA
ATOM      2  C   UNL     1       5.477   5.027  18.790  0.00  0.00    +0.000 C 
ATOM      3  N   UNL     1       5.052   5.481  17.569  0.00  0.00    +0.000 N 
ATOM      4  H   UNL     1       4.215   6.057  17.561  0.00  0.00    +0.000 HD
ENDROOT
BRANCH   3   5
ATOM      5  C   UNL     1       5.610   5.165  16.316  0.00  0.00    +0.000 A 
ATOM      6  C   UNL     1       5.026   4.364  15.350  0.00  0.00    +0.000 A 
ATOM      7  N   UNL     1       5.596   4.102  14.150  0.00  0.00    +0.000 NA
ATOM      8  C   UNL     1       6.785   4.674  13.947  0.00  0.00    +0.000 A 
ATOM      9  N   UNL     1       7.461   5.468  14.775  0.00  0.00    +0.000 NA
ATOM     10  C   UNL     1       6.834   5.685  15.939  0.00  0.00    +0.000 A 
BRANCH   8  11
ATOM     11  O   UNL     1       7.341   4.397  12.738  0.00  0.00    +0.000 OA
ATOM     12  H   UNL     1       7.479   5.311  12.427  0.00  0.00    +0.000 HD
ENDBRANCH   8  11
BRANCH  10  13
ATOM     13  O   UNL     1       7.529   6.502  16.779  0.00  0.00    +0.000 OA
ATOM     14  H   UNL     1       7.133   7.363  16.550  0.00  0.00    +0.000 HD
ENDBRANCH  10  13
ENDBRANCH   3   5
BRANCH   2  15
ATOM     15  O   UNL     1       4.561   5.401  19.764  0.00  0.00    +0.000 OA
BRANCH  15  16
ATOM     16  C   UNL     1       3.382   4.638  19.824  0.00  0.00    +0.000 A 
ATOM     17  C   UNL     1       3.494   3.253  19.707  0.00  0.00    +0.000 A 
ATOM     18  C   UNL     1       2.369   2.455  19.930  0.00  0.00    +0.000 A 
ATOM     19  C   UNL     1       1.148   3.042  20.274  0.00  0.00    +0.000 A 
ATOM     20  C   UNL     1       1.042   4.430  20.377  0.00  0.00    +0.000 A 
ATOM     21  C   UNL     1       2.162   5.231  20.158  0.00  0.00    +0.000 A 
ENDBRANCH  15  16
ENDBRANCH   2  15
TORSDOF 5
ENDMDL
MODEL 5
REMARK VINA RESULT:      -7.1      2.332      2.563
REMARK  Name = 
REMARK  5 active torsions:
REMARK  status: ('A' for Active; 'I' for Inactive)
REMARK    1  A    between atoms: C_2  and  O_12
REMARK    2  A    between atoms: N_3  and  C_4
REMARK    3  A    between atoms: C_7  and  O_8
REMARK    4  A    between atoms: C_10  and  O_11
REMARK    5  A    between atoms: O_12  and  C_13
REMARK                            x       y       z     vdW  Elec       q    Type
REMARK                         _______ _______ _______ _____ _____    ______ ____
ROOT
ATOM      1  O   UNL     1       4.691   3.312  17.119  0.00  0.00    +0.000 OA
ATOM      2  C   UNL     1       4.968   3.252  18.310  0.00  0.00    +0.000 C 
ATOM      3  N   UNL     1       5.806   4.100  18.985  0.00  0.00    +0.000 N 
ATOM      4  H   UNL     1       5.973   3.894  19.966  0.00  0.00    +0.000 HD
ENDROOT
BRANCH   3   5
ATOM      5  C   UNL     1       6.397   5.273  18.479  0.00  0.00    +0.000 A 
ATOM      6  C   UNL     1       5.985   5.966  17.355  0.00  0.00    +0.000 A 
ATOM      7  N   UNL     1       6.575   7.103  16.916  0.00  0.00    +0.000 NA
ATOM      8  C   UNL     1       7.607   7.528  17.649  0.00  0.00    +0.000 A 
ATOM      9  N   UNL     1       8.108   6.974  18.752  0.00  0.00    +0.000 NA
ATOM     10  C   UNL     1       7.470   5.857  19.126  0.00  0.00    +0.000 A 
BRANCH   8  11
ATOM     11  O   UNL     1       8.187   8.669  17.192  0.00  0.00    +0.000 OA
ATOM     12  H   UNL     1       7.394   9.234  17.159  0.00  0.00    +0.000 HD
ENDBRANCH   8  11
BRANCH  10  13
ATOM     13  O   UNL     1       7.985   5.299  20.257  0.00  0.00    +0.000 OA
ATOM     14  H   UNL     1       8.807   5.815  20.347  0.00  0.00    +0.000 HD
ENDBRANCH  10  13
ENDBRANCH   3   5
BRANCH   2  15
ATOM     15  O   UNL     1       4.442   2.323  19.198  0.00  0.00    +0.000 OA
BRANCH  15  16
ATOM     16  C   UNL     1       3.092   2.501  19.546  0.00  0.00    +0.000 A 
ATOM     17  C   UNL     1       2.807   3.136  20.754  0.00  0.00    +0.000 A 
ATOM     18  C   UNL     1       1.486   3.479  21.050  0.00  0.00    +0.000 A 
ATOM     19  C   UNL     1       0.465   3.194  20.140  0.00  0.00    +0.000 A 
ATOM     20  C   UNL     1       0.757   2.548  18.939  0.00  0.00    +0.000 A 
ATOM     21  C   UNL     1       2.074   2.205  18.636  0.00  0.00    +0.000 A 
ENDBRANCH  15  16
ENDBRANCH   2  15
TORSDOF 5
ENDMDL
MODEL 6
REMARK VINA RESULT:      -7.1      2.337      6.649
REMARK  Name = 
REMARK  5 active torsions:
REMARK  status: ('A' for Active; 'I' for Inactive)
REMARK    1  A    between atoms: C_2  and  O_12
REMARK    2  A    between atoms: N_3  and  C_4
REMARK    3  A    between atoms: C_7  and  O_8
REMARK    4  A    between atoms: C_10  and  O_11
REMARK    5  A    between atoms: O_12  and  C_13
REMARK                            x       y       z     vdW  Elec       q    Type
REMARK                         _______ _______ _______ _____ _____    ______ ____
ROOT
ATOM      1  O   UNL     1       4.856   5.581  16.293  0.00  0.00    +0.000 OA
ATOM      2  C   UNL     1       5.489   4.544  16.447  0.00  0.00    +0.000 C 
ATOM      3  N   UNL     1       5.104   3.472  17.209  0.00  0.00    +0.000 N 
ATOM      4  H   UNL     1       5.761   2.699  17.276  0.00  0.00    +0.000 HD
ENDROOT
BRANCH   3   5
ATOM      5  C   UNL     1       3.860   3.298  17.843  0.00  0.00    +0.000 A 
ATOM      6  C   UNL     1       2.621   3.504  17.263  0.00  0.00    +0.000 A 
ATOM      7  N   UNL     1       1.448   3.305  17.910  0.00  0.00    +0.000 NA
ATOM      8  C   UNL     1       1.558   2.890  19.173  0.00  0.00    +0.000 A 
ATOM      9  N   UNL     1       2.674   2.643  19.858  0.00  0.00    +0.000 NA
ATOM     10  C   UNL     1       3.792   2.858  19.152  0.00  0.00    +0.000 A 
BRANCH   8  11
ATOM     11  O   UNL     1       0.370   2.699  19.806  0.00  0.00    +0.000 OA
ATOM     12  H   UNL     1      -0.167   2.441  19.035  0.00  0.00    +0.000 HD
ENDBRANCH   8  11
BRANCH  10  13
ATOM     13  O   UNL     1       4.929   2.598  19.857  0.00  0.00    +0.000 OA
ATOM     14  H   UNL     1       5.255   1.815  19.377  0.00  0.00    +0.000 HD
ENDBRANCH  10  13
ENDBRANCH   3   5
BRANCH   2  15
ATOM     15  O   UNL     1       6.704   4.263  15.838  0.00  0.00    +0.000 OA
BRANCH  15  16
ATOM     16  C   UNL     1       6.725   4.357  14.436  0.00  0.00    +0.000 A 
ATOM     17  C   UNL     1       7.633   5.242  13.854  0.00  0.00    +0.000 A 
ATOM     18  C   UNL     1       7.798   5.238  12.467  0.00  0.00    +0.000 A 
ATOM     19  C   UNL     1       7.066   4.350  11.675  0.00  0.00    +0.000 A 
ATOM     20  C   UNL     1       6.152   3.476  12.264  0.00  0.00    +0.000 A 
ATOM     21  C   UNL     1       5.984   3.474  13.648  0.00  0.00    +0.000 A 
ENDBRANCH  15  16
ENDBRANCH   2  15
TORSDOF 5
ENDMDL
MODEL 7
REMARK VINA RESULT:      -7.0      2.261      2.510
REMARK  Name = 
REMARK  5 active torsions:
REMARK  status: ('A' for Active; 'I' for Inactive)
REMARK    1  A    between atoms: C_2  and  O_12
REMARK    2  A    between atoms: N_3  and  C_4
REMARK    3  A    between atoms: C_7  and  O_8
REMARK    4  A    between atoms: C_10  and  O_11
REMARK    5  A    between atoms: O_12  and  C_13
REMARK                            x       y       z     vdW  Elec       q    Type
REMARK                         _______ _______ _______ _____ _____    ______ ____
ROOT
ATOM      1  O   UNL     1       3.623   3.691  16.446  0.00  0.00    +0.000 OA
ATOM      2  C   UNL     1       4.157   3.222  17.443  0.00  0.00    +0.000 C 
ATOM      3  N   UNL     1       5.238   3.749  18.100  0.00  0.00    +0.000 N 
ATOM      4  H   UNL     1       5.597   3.219  18.889  0.00  0.00    +0.000 HD
ENDROOT
BRANCH   3   5
ATOM      5  C   UNL     1       5.853   4.989  17.843  0.00  0.00    +0.000 A 
ATOM      6  C   UNL     1       5.198   6.195  17.670  0.00  0.00    +0.000 A 
ATOM      7  N   UNL     1       5.835   7.368  17.442  0.00  0.00    +0.000 NA
ATOM      8  C   UNL     1       7.167   7.292  17.390  0.00  0.00    +0.000 A 
ATOM      9  N   UNL     1       7.929   6.210  17.544  0.00  0.00    +0.000 NA
ATOM     10  C   UNL     1       7.230   5.091  17.770  0.00  0.00    +0.000 A 
BRANCH   8  11
ATOM     11  O   UNL     1       7.788   8.478  17.158  0.00  0.00    +0.000 OA
ATOM     12  H   UNL     1       7.000   9.022  16.973  0.00  0.00    +0.000 HD
ENDBRANCH   8  11
BRANCH  10  13
ATOM     13  O   UNL     1       8.016   3.990  17.931  0.00  0.00    +0.000 OA
ATOM     14  H   UNL     1       8.890   4.413  18.021  0.00  0.00    +0.000 HD
ENDBRANCH  10  13
ENDBRANCH   3   5
BRANCH   2  15
ATOM     15  O   UNL     1       3.727   2.081  18.107  0.00  0.00    +0.000 OA
BRANCH  15  16
ATOM     16  C   UNL     1       2.840   2.290  19.177  0.00  0.00    +0.000 A 
ATOM     17  C   UNL     1       3.372   2.352  20.464  0.00  0.00    +0.000 A 
ATOM     18  C   UNL     1       2.546   2.725  21.528  0.00  0.00    +0.000 A 
ATOM     19  C   UNL     1       1.204   3.039  21.298  0.00  0.00    +0.000 A 
ATOM     20  C   UNL     1       0.677   2.963  20.009  0.00  0.00    +0.000 A 
ATOM     21  C   UNL     1       1.496   2.594  18.944  0.00  0.00    +0.000 A 
ENDBRANCH  15  16
ENDBRANCH   2  15
TORSDOF 5
ENDMDL
MODEL 8
REMARK VINA RESULT:      -7.0      2.409      2.813
REMARK  Name = 
REMARK  5 active torsions:
REMARK  status: ('A' for Active; 'I' for Inactive)
REMARK    1  A    between atoms: C_2  and  O_12
REMARK    2  A    between atoms: N_3  and  C_4
REMARK    3  A    between atoms: C_7  and  O_8
REMARK    4  A    between atoms: C_10  and  O_11
REMARK    5  A    between atoms: O_12  and  C_13
REMARK                            x       y       z     vdW  Elec       q    Type
REMARK                         _______ _______ _______ _____ _____    ______ ____
ROOT
ATOM      1  O   UNL     1       4.160   4.250  16.488  0.00  0.00    +0.000 OA
ATOM      2  C   UNL     1       4.645   3.709  17.473  0.00  0.00    +0.000 C 
ATOM      3  N   UNL     1       5.745   4.139  18.168  0.00  0.00    +0.000 N 
ATOM      4  H   UNL     1       6.056   3.555  18.940  0.00  0.00    +0.000 HD
ENDROOT
BRANCH   3   5
ATOM      5  C   UNL     1       6.441   5.347  17.972  0.00  0.00    +0.000 A 
ATOM      6  C   UNL     1       6.338   6.169  16.865  0.00  0.00    +0.000 A 
ATOM      7  N   UNL     1       7.016   7.333  16.729  0.00  0.00    +0.000 NA
ATOM      8  C   UNL     1       7.813   7.650  17.752  0.00  0.00    +0.000 A 
ATOM      9  N   UNL     1       8.007   6.965  18.878  0.00  0.00    +0.000 NA
ATOM     10  C   UNL     1       7.300   5.829  18.942  0.00  0.00    +0.000 A 
BRANCH   8  11
ATOM     11  O   UNL     1       8.487   8.820  17.597  0.00  0.00    +0.000 OA
ATOM     12  H   UNL     1       9.109   8.540  16.901  0.00  0.00    +0.000 HD
ENDBRANCH   8  11
BRANCH  10  13
ATOM     13  O   UNL     1       7.500   5.137  20.099  0.00  0.00    +0.000 OA
ATOM     14  H   UNL     1       8.067   5.766  20.581  0.00  0.00    +0.000 HD
ENDBRANCH  10  13
ENDBRANCH   3   5
BRANCH   2  15
ATOM     15  O   UNL     1       4.132   2.571  18.082  0.00  0.00    +0.000 OA
BRANCH  15  16
ATOM     16  C   UNL     1       3.191   2.792  19.102  0.00  0.00    +0.000 A 
ATOM     17  C   UNL     1       1.865   3.013  18.731  0.00  0.00    +0.000 A 
ATOM     18  C   UNL     1       0.879   3.067  19.718  0.00  0.00    +0.000 A 
ATOM     19  C   UNL     1       1.219   2.892  21.062  0.00  0.00    +0.000 A 
ATOM     20  C   UNL     1       2.550   2.683  21.426  0.00  0.00    +0.000 A 
ATOM     21  C   UNL     1       3.538   2.626  20.445  0.00  0.00    +0.000 A 
ENDBRANCH  15  16
ENDBRANCH   2  15
TORSDOF 5
ENDMDL
MODEL 9
REMARK VINA RESULT:      -7.0      1.198      1.326
REMARK  Name = 
REMARK  5 active torsions:
REMARK  status: ('A' for Active; 'I' for Inactive)
REMARK    1  A    between atoms: C_2  and  O_12
REMARK    2  A    between atoms: N_3  and  C_4
REMARK    3  A    between atoms: C_7  and  O_8
REMARK    4  A    between atoms: C_10  and  O_11
REMARK    5  A    between atoms: O_12  and  C_13
REMARK                            x       y       z     vdW  Elec       q    Type
REMARK                         _______ _______ _______ _____ _____    ______ ____
ROOT
ATOM      1  O   UNL     1       6.507   4.348  19.067  0.00  0.00    +0.000 OA
ATOM      2  C   UNL     1       5.500   5.013  18.867  0.00  0.00    +0.000 C 
ATOM      3  N   UNL     1       5.070   5.478  17.651  0.00  0.00    +0.000 N 
ATOM      4  H   UNL     1       4.236   6.058  17.652  0.00  0.00    +0.000 HD
ENDROOT
BRANCH   3   5
ATOM      5  C   UNL     1       5.619   5.167  16.393  0.00  0.00    +0.000 A 
ATOM      6  C   UNL     1       5.042   4.346  15.440  0.00  0.00    +0.000 A 
ATOM      7  N   UNL     1       5.602   4.090  14.234  0.00  0.00    +0.000 NA
ATOM      8  C   UNL     1       6.774   4.689  14.011  0.00  0.00    +0.000 A 
ATOM      9  N   UNL     1       7.441   5.505  14.825  0.00  0.00    +0.000 NA
ATOM     10  C   UNL     1       6.824   5.714  15.996  0.00  0.00    +0.000 A 
BRANCH   8  11
ATOM     11  O   UNL     1       7.320   4.418  12.797  0.00  0.00    +0.000 OA
ATOM     12  H   UNL     1       7.232   3.448  12.809  0.00  0.00    +0.000 HD
ENDBRANCH   8  11
BRANCH  10  13
ATOM     13  O   UNL     1       7.510   6.554  16.821  0.00  0.00    +0.000 OA
ATOM     14  H   UNL     1       7.063   6.369  17.667  0.00  0.00    +0.000 HD
ENDBRANCH  10  13
ENDBRANCH   3   5
BRANCH   2  15
ATOM     15  O   UNL     1       4.591   5.385  19.849  0.00  0.00    +0.000 OA
BRANCH  15  16
ATOM     16  C   UNL     1       3.455   4.567  19.976  0.00  0.00    +0.000 A 
ATOM     17  C   UNL     1       2.261   5.165  20.376  0.00  0.00    +0.000 A 
ATOM     18  C   UNL     1       1.080   4.420  20.350  0.00  0.00    +0.000 A 
ATOM     19  C   UNL     1       1.098   3.091  19.919  0.00  0.00    +0.000 A 
ATOM     20  C   UNL     1       2.299   2.496  19.531  0.00  0.00    +0.000 A 
ATOM     21  C   UNL     1       3.481   3.236  19.553  0.00  0.00    +0.000 A 
ENDBRANCH  15  16
ENDBRANCH   2  15
TORSDOF 5
ENDMDL
