MODEL 1
REMARK VINA RESULT:      -8.7      0.000      0.000
REMARK  Name = 
REMARK  7 active torsions:
REMARK  status: ('A' for Active; 'I' for Inactive)
REMARK    1  A    between atoms: C_1  and  C_2
REMARK    2  A    between atoms: C_5  and  C_6
REMARK    3  A    between atoms: N_12  and  C_13
REMARK    4  A    between atoms: C_13  and  C_14
REMARK    5  A    between atoms: C_14  and  C_15
REMARK    6  A    between atoms: C_19  and  C_21
REMARK    7  A    between atoms: C_24  and  N_25
REMARK                            x       y       z     vdW  Elec       q    Type
REMARK                         _______ _______ _______ _____ _____    ______ ____
ROOT
ATOM      1  C   UNL     1       2.035   7.735  18.514  0.00  0.00    +0.000 C 
ATOM      2  C   UNL     1       2.034   7.899  20.046  0.00  0.00    +0.000 C 
ATOM      3  C   UNL     1       0.851   8.763  20.471  0.00  0.00    +0.000 C 
ATOM      4  N   UNL     1       0.862  10.045  19.774  0.00  0.00    +0.000 N 
ATOM      5  C   UNL     1       0.745  11.219  20.528  0.00  0.00    +0.000 C 
ATOM      6  O   UNL     1       0.811  11.193  21.759  0.00  0.00    +0.000 OA
ATOM      7  C   UNL     1       0.973   9.978  18.310  0.00  0.00    +0.000 C 
ATOM      8  C   UNL     1       2.159   9.118  17.881  0.00  0.00    +0.000 C 
ENDROOT
BRANCH   5   9
ATOM      9  C   UNL     1       0.577  12.474  19.828  0.00  0.00    +0.000 A 
ATOM     10  C   UNL     1      -0.574  13.144  19.451  0.00  0.00    +0.000 A 
ATOM     11  C   UNL     1      -0.166  14.360  18.844  0.00  0.00    +0.000 A 
ATOM     12  C   UNL     1       1.207  14.321  18.849  0.00  0.00    +0.000 A 
ATOM     13  O   UNL     1       1.673  13.169  19.390  0.00  0.00    +0.000 OA
BRANCH  12  14
ATOM     14  N   UNL     1       2.200  15.261  18.435  0.00  0.00    +0.000 N 
ATOM     15  O   UNL     1       1.855  16.451  18.421  0.00  0.00    +0.000 OA
ATOM     16  O   UNL     1       3.322  14.827  18.151  0.00  0.00    +0.000 OA
ENDBRANCH  12  14
ENDBRANCH   5   9
BRANCH   1  17
ATOM     17  C   UNL     1       3.114   6.768  17.996  0.00  0.00    +0.000 C 
BRANCH  17  18
ATOM     18  C   UNL     1       2.576   5.347  18.120  0.00  0.00    +0.000 C 
BRANCH  18  24
ATOM     19  C   UNL     1       1.388   4.012  20.768  0.00  0.00    +0.000 C 
ATOM     20  C   UNL     1       2.669   3.712  20.081  0.00  0.00    +0.000 A 
ATOM     21  C   UNL     1       3.610   2.761  20.393  0.00  0.00    +0.000 A 
ATOM     22  N   UNL     1       4.661   2.790  19.523  0.00  0.00    +0.000 NA
ATOM     23  C   UNL     1       4.414   3.764  18.664  0.00  0.00    +0.000 A 
ATOM     24  N   UNL     1       3.169   4.337  18.961  0.00  0.00    +0.000 N 
BRANCH  23  25
ATOM     25  C   UNL     1       5.303   4.089  17.527  0.00  0.00    +0.000 A 
ATOM     26  C   UNL     1       4.974   3.920  16.176  0.00  0.00    +0.000 A 
ATOM     27  C   UNL     1       5.898   4.210  15.172  0.00  0.00    +0.000 A 
ATOM     28  C   UNL     1       7.130   4.716  15.542  0.00  0.00    +0.000 A 
ATOM     29  N   UNL     1       7.487   4.936  16.821  0.00  0.00    +0.000 NA
ATOM     30  C   UNL     1       6.566   4.626  17.775  0.00  0.00    +0.000 A 
ENDBRANCH  23  25
ENDBRANCH  18  24
ENDBRANCH  17  18
ENDBRANCH   1  17
TORSDOF 6
ENDMDL
MODEL 2
REMARK VINA RESULT:      -8.5      2.252      3.901
REMARK  Name = 
REMARK  7 active torsions:
REMARK  status: ('A' for Active; 'I' for Inactive)
REMARK    1  A    between atoms: C_1  and  C_2
REMARK    2  A    between atoms: C_5  and  C_6
REMARK    3  A    between atoms: N_12  and  C_13
REMARK    4  A    between atoms: C_13  and  C_14
REMARK    5  A    between atoms: C_14  and  C_15
REMARK    6  A    between atoms: C_19  and  C_21
REMARK    7  A    between atoms: C_24  and  N_25
REMARK                            x       y       z     vdW  Elec       q    Type
REMARK                         _______ _______ _______ _____ _____    ______ ____
ROOT
ATOM      1  C   UNL     1       1.613   8.144  18.921  0.00  0.00    +0.000 C 
ATOM      2  C   UNL     1       1.935   7.730  20.369  0.00  0.00    +0.000 C 
ATOM      3  C   UNL     1       0.734   8.012  21.265  0.00  0.00    +0.000 C 
ATOM      4  N   UNL     1       0.321   9.409  21.163  0.00  0.00    +0.000 N 
ATOM      5  C   UNL     1       0.147  10.143  22.343  0.00  0.00    +0.000 C 
ATOM      6  O   UNL     1       0.502   9.690  23.433  0.00  0.00    +0.000 OA
ATOM      7  C   UNL     1       0.099   9.914  19.801  0.00  0.00    +0.000 C 
ATOM      8  C   UNL     1       1.302   9.638  18.903  0.00  0.00    +0.000 C 
ENDROOT
BRANCH   5   9
ATOM      9  C   UNL     1      -0.430  11.467  22.251  0.00  0.00    +0.000 A 
ATOM     10  C   UNL     1      -1.748  11.881  22.359  0.00  0.00    +0.000 A 
ATOM     11  C   UNL     1      -1.747  13.295  22.249  0.00  0.00    +0.000 A 
ATOM     12  C   UNL     1      -0.436  13.639  22.030  0.00  0.00    +0.000 A 
ATOM     13  O   UNL     1       0.365  12.547  21.975  0.00  0.00    +0.000 OA
BRANCH  12  14
ATOM     14  N   UNL     1       0.220  14.900  21.892  0.00  0.00    +0.000 N 
ATOM     15  O   UNL     1       1.270  15.045  22.535  0.00  0.00    +0.000 OA
ATOM     16  O   UNL     1      -0.286  15.733  21.132  0.00  0.00    +0.000 OA
ENDBRANCH  12  14
ENDBRANCH   5   9
BRANCH   1  17
ATOM     17  C   UNL     1       2.715   7.775  17.912  0.00  0.00    +0.000 C 
BRANCH  17  18
ATOM     18  C   UNL     1       3.509   6.606  18.484  0.00  0.00    +0.000 C 
BRANCH  18  24
ATOM     19  C   UNL     1       5.244   6.587  15.803  0.00  0.00    +0.000 C 
ATOM     20  C   UNL     1       4.723   5.429  16.570  0.00  0.00    +0.000 A 
ATOM     21  C   UNL     1       4.909   4.088  16.334  0.00  0.00    +0.000 A 
ATOM     22  N   UNL     1       4.267   3.322  17.264  0.00  0.00    +0.000 NA
ATOM     23  C   UNL     1       3.653   4.157  18.085  0.00  0.00    +0.000 A 
ATOM     24  N   UNL     1       3.942   5.475  17.703  0.00  0.00    +0.000 N 
BRANCH  23  25
ATOM     25  C   UNL     1       2.877   3.714  19.263  0.00  0.00    +0.000 A 
ATOM     26  C   UNL     1       1.499   3.894  19.432  0.00  0.00    +0.000 A 
ATOM     27  C   UNL     1       0.860   3.485  20.603  0.00  0.00    +0.000 A 
ATOM     28  C   UNL     1       1.614   2.852  21.573  0.00  0.00    +0.000 A 
ATOM     29  N   UNL     1       2.934   2.617  21.449  0.00  0.00    +0.000 NA
ATOM     30  C   UNL     1       3.527   3.045  20.301  0.00  0.00    +0.000 A 
ENDBRANCH  23  25
ENDBRANCH  18  24
ENDBRANCH  17  18
ENDBRANCH   1  17
TORSDOF 6
ENDMDL
MODEL 3
REMARK VINA RESULT:      -8.4      0.771      1.201
REMARK  Name = 
REMARK  7 active torsions:
REMARK  status: ('A' for Active; 'I' for Inactive)
REMARK    1  A    between atoms: C_1  and  C_2
REMARK    2  A    between atoms: C_5  and  C_6
REMARK    3  A    between atoms: N_12  and  C_13
REMARK    4  A    between atoms: C_13  and  C_14
REMARK    5  A    between atoms: C_14  and  C_15
REMARK    6  A    between atoms: C_19  and  C_21
REMARK    7  A    between atoms: C_24  and  N_25
REMARK                            x       y       z     vdW  Elec       q    Type
REMARK                         _______ _______ _______ _____ _____    ______ ____
ROOT
ATOM      1  C   UNL     1       1.984   7.706  18.613  0.00  0.00    +0.000 C 
ATOM      2  C   UNL     1       1.993   7.907  20.141  0.00  0.00    +0.000 C 
ATOM      3  C   UNL     1       0.825   8.798  20.549  0.00  0.00    +0.000 C 
ATOM      4  N   UNL     1       0.853  10.063  19.821  0.00  0.00    +0.000 N 
ATOM      5  C   UNL     1       0.757  11.257  20.547  0.00  0.00    +0.000 C 
ATOM      6  O   UNL     1       0.829  11.259  21.778  0.00  0.00    +0.000 OA
ATOM      7  C   UNL     1       0.955   9.959  18.359  0.00  0.00    +0.000 C 
ATOM      8  C   UNL     1       2.126   9.071  17.946  0.00  0.00    +0.000 C 
ENDROOT
BRANCH   5   9
ATOM      9  C   UNL     1       0.605  12.496  19.817  0.00  0.00    +0.000 A 
ATOM     10  C   UNL     1      -0.538  13.159  19.401  0.00  0.00    +0.000 A 
ATOM     11  C   UNL     1      -0.115  14.361  18.778  0.00  0.00    +0.000 A 
ATOM     12  C   UNL     1       1.257  14.323  18.814  0.00  0.00    +0.000 A 
ATOM     13  O   UNL     1       1.711  13.182  19.388  0.00  0.00    +0.000 OA
BRANCH  12  14
ATOM     14  N   UNL     1       2.259  15.254  18.402  0.00  0.00    +0.000 N 
ATOM     15  O   UNL     1       3.267  14.772  17.866  0.00  0.00    +0.000 OA
ATOM     16  O   UNL     1       2.038  16.456  18.584  0.00  0.00    +0.000 OA
ENDBRANCH  12  14
ENDBRANCH   5   9
BRANCH   1  17
ATOM     17  C   UNL     1       3.046   6.709  18.114  0.00  0.00    +0.000 C 
BRANCH  17  18
ATOM     18  C   UNL     1       3.285   5.681  19.214  0.00  0.00    +0.000 C 
BRANCH  18  24
ATOM     19  C   UNL     1       1.051   3.796  20.501  0.00  0.00    +0.000 C 
ATOM     20  C   UNL     1       2.124   3.430  19.543  0.00  0.00    +0.000 A 
ATOM     21  C   UNL     1       2.369   2.215  18.951  0.00  0.00    +0.000 A 
ATOM     22  N   UNL     1       3.453   2.270  18.123  0.00  0.00    +0.000 NA
ATOM     23  C   UNL     1       3.919   3.506  18.191  0.00  0.00    +0.000 A 
ATOM     24  N   UNL     1       3.096   4.263  19.038  0.00  0.00    +0.000 N 
BRANCH  23  25
ATOM     25  C   UNL     1       5.071   3.984  17.398  0.00  0.00    +0.000 A 
ATOM     26  C   UNL     1       6.310   4.365  17.929  0.00  0.00    +0.000 A 
ATOM     27  C   UNL     1       7.325   4.850  17.104  0.00  0.00    +0.000 A 
ATOM     28  C   UNL     1       7.095   4.901  15.742  0.00  0.00    +0.000 A 
ATOM     29  N   UNL     1       5.938   4.512  15.172  0.00  0.00    +0.000 NA
ATOM     30  C   UNL     1       4.965   4.060  16.009  0.00  0.00    +0.000 A 
ENDBRANCH  23  25
ENDBRANCH  18  24
ENDBRANCH  17  18
ENDBRANCH   1  17
TORSDOF 6
ENDMDL
MODEL 4
REMARK VINA RESULT:      -8.2      2.929      4.432
REMARK  Name = 
REMARK  7 active torsions:
REMARK  status: ('A' for Active; 'I' for Inactive)
REMARK    1  A    between atoms: C_1  and  C_2
REMARK    2  A    between atoms: C_5  and  C_6
REMARK    3  A    between atoms: N_12  and  C_13
REMARK    4  A    between atoms: C_13  and  C_14
REMARK    5  A    between atoms: C_14  and  C_15
REMARK    6  A    between atoms: C_19  and  C_21
REMARK    7  A    between atoms: C_24  and  N_25
REMARK                            x       y       z     vdW  Elec       q    Type
REMARK                         _______ _______ _______ _____ _____    ______ ____
ROOT
ATOM      1  C   UNL     1       1.634   8.209  18.832  0.00  0.00    +0.000 C 
ATOM      2  C   UNL     1       1.965   7.877  20.299  0.00  0.00    +0.000 C 
ATOM      3  C   UNL     1       0.747   8.147  21.176  0.00  0.00    +0.000 C 
ATOM      4  N   UNL     1       0.275   9.518  21.008  0.00  0.00    +0.000 N 
ATOM      5  C   UNL     1       0.061  10.298  22.152  0.00  0.00    +0.000 C 
ATOM      6  O   UNL     1       0.429   9.911  23.263  0.00  0.00    +0.000 OA
ATOM      7  C   UNL     1       0.038   9.949  19.623  0.00  0.00    +0.000 C 
ATOM      8  C   UNL     1       1.258   9.686  18.743  0.00  0.00    +0.000 C 
ENDROOT
BRANCH   5   9
ATOM      9  C   UNL     1      -0.573  11.589  21.996  0.00  0.00    +0.000 A 
ATOM     10  C   UNL     1      -0.026  12.830  21.719  0.00  0.00    +0.000 A 
ATOM     11  C   UNL     1      -1.105  13.745  21.615  0.00  0.00    +0.000 A 
ATOM     12  C   UNL     1      -2.231  13.006  21.886  0.00  0.00    +0.000 A 
ATOM     13  O   UNL     1      -1.926  11.716  22.170  0.00  0.00    +0.000 OA
BRANCH  12  14
ATOM     14  N   UNL     1      -3.622  13.332  21.885  0.00  0.00    +0.000 N 
ATOM     15  O   UNL     1      -4.166  13.408  20.774  0.00  0.00    +0.000 OA
ATOM     16  O   UNL     1      -4.178  13.486  22.978  0.00  0.00    +0.000 OA
ENDBRANCH  12  14
ENDBRANCH   5   9
BRANCH   1  17
ATOM     17  C   UNL     1       2.757   7.843  17.846  0.00  0.00    +0.000 C 
BRANCH  17  18
ATOM     18  C   UNL     1       3.520   6.653  18.417  0.00  0.00    +0.000 C 
BRANCH  18  24
ATOM     19  C   UNL     1       5.312   6.624  15.774  0.00  0.00    +0.000 C 
ATOM     20  C   UNL     1       4.746   5.469  16.515  0.00  0.00    +0.000 A 
ATOM     21  C   UNL     1       4.904   4.127  16.266  0.00  0.00    +0.000 A 
ATOM     22  N   UNL     1       4.223   3.366  17.172  0.00  0.00    +0.000 NA
ATOM     23  C   UNL     1       3.612   4.206  17.990  0.00  0.00    +0.000 A 
ATOM     24  N   UNL     1       3.942   5.521  17.631  0.00  0.00    +0.000 N 
BRANCH  23  25
ATOM     25  C   UNL     1       2.801   3.768  19.146  0.00  0.00    +0.000 A 
ATOM     26  C   UNL     1       1.423   3.977  19.285  0.00  0.00    +0.000 A 
ATOM     27  C   UNL     1       0.749   3.569  20.437  0.00  0.00    +0.000 A 
ATOM     28  C   UNL     1       1.467   2.910  21.417  0.00  0.00    +0.000 A 
ATOM     29  N   UNL     1       2.784   2.646  21.320  0.00  0.00    +0.000 NA
ATOM     30  C   UNL     1       3.411   3.073  20.190  0.00  0.00    +0.000 A 
ENDBRANCH  23  25
ENDBRANCH  18  24
ENDBRANCH  17  18
ENDBRANCH   1  17
TORSDOF 6
ENDMDL
MODEL 5
REMARK VINA RESULT:      -8.2      1.135      1.378
REMARK  Name = 
REMARK  7 active torsions:
REMARK  status: ('A' for Active; 'I' for Inactive)
REMARK    1  A    between atoms: C_1  and  C_2
REMARK    2  A    between atoms: C_5  and  C_6
REMARK    3  A    between atoms: N_12  and  C_13
REMARK    4  A    between atoms: C_13  and  C_14
REMARK    5  A    between atoms: C_14  and  C_15
REMARK    6  A    between atoms: C_19  and  C_21
REMARK    7  A    between atoms: C_24  and  N_25
REMARK                            x       y       z     vdW  Elec       q    Type
REMARK                         _______ _______ _______ _____ _____    ______ ____
ROOT
ATOM      1  C   UNL     1       2.132   7.710  18.413  0.00  0.00    +0.000 C 
ATOM      2  C   UNL     1       1.972   7.773  19.944  0.00  0.00    +0.000 C 
ATOM      3  C   UNL     1       0.857   8.747  20.306  0.00  0.00    +0.000 C 
ATOM      4  N   UNL     1       1.099  10.061  19.718  0.00  0.00    +0.000 N 
ATOM      5  C   UNL     1       1.032  11.189  20.546  0.00  0.00    +0.000 C 
ATOM      6  O   UNL     1       0.952  11.074  21.770  0.00  0.00    +0.000 OA
ATOM      7  C   UNL     1       1.369  10.076  18.274  0.00  0.00    +0.000 C 
ATOM      8  C   UNL     1       2.489   9.105  17.908  0.00  0.00    +0.000 C 
ENDROOT
BRANCH   5   9
ATOM      9  C   UNL     1       1.094  12.497  19.933  0.00  0.00    +0.000 A 
ATOM     10  C   UNL     1       2.093  13.088  19.176  0.00  0.00    +0.000 A 
ATOM     11  C   UNL     1       1.610  14.360  18.774  0.00  0.00    +0.000 A 
ATOM     12  C   UNL     1       0.372  14.476  19.357  0.00  0.00    +0.000 A 
ATOM     13  O   UNL     1       0.065  13.386  20.102  0.00  0.00    +0.000 OA
BRANCH  12  14
ATOM     14  N   UNL     1      -0.634  15.488  19.290  0.00  0.00    +0.000 N 
ATOM     15  O   UNL     1      -1.501  15.458  20.175  0.00  0.00    +0.000 OA
ATOM     16  O   UNL     1      -0.552  16.324  18.383  0.00  0.00    +0.000 OA
ENDBRANCH  12  14
ENDBRANCH   5   9
BRANCH   1  17
ATOM     17  C   UNL     1       3.144   6.652  17.939  0.00  0.00    +0.000 C 
BRANCH  17  18
ATOM     18  C   UNL     1       2.538   5.274  18.184  0.00  0.00    +0.000 C 
BRANCH  18  24
ATOM     19  C   UNL     1       1.339   3.938  20.825  0.00  0.00    +0.000 C 
ATOM     20  C   UNL     1       2.632   3.652  20.154  0.00  0.00    +0.000 A 
ATOM     21  C   UNL     1       3.581   2.715  20.482  0.00  0.00    +0.000 A 
ATOM     22  N   UNL     1       4.642   2.753  19.623  0.00  0.00    +0.000 NA
ATOM     23  C   UNL     1       4.392   3.720  18.756  0.00  0.00    +0.000 A 
ATOM     24  N   UNL     1       3.135   4.277  19.036  0.00  0.00    +0.000 N 
BRANCH  23  25
ATOM     25  C   UNL     1       5.288   4.051  17.628  0.00  0.00    +0.000 A 
ATOM     26  C   UNL     1       5.006   3.804  16.278  0.00  0.00    +0.000 A 
ATOM     27  C   UNL     1       5.937   4.108  15.285  0.00  0.00    +0.000 A 
ATOM     28  C   UNL     1       7.126   4.705  15.660  0.00  0.00    +0.000 A 
ATOM     29  N   UNL     1       7.435   5.001  16.937  0.00  0.00    +0.000 NA
ATOM     30  C   UNL     1       6.510   4.675  17.881  0.00  0.00    +0.000 A 
ENDBRANCH  23  25
ENDBRANCH  18  24
ENDBRANCH  17  18
ENDBRANCH   1  17
TORSDOF 6
ENDMDL
MODEL 6
REMARK VINA RESULT:      -8.2      3.240      4.666
REMARK  Name = 
REMARK  7 active torsions:
REMARK  status: ('A' for Active; 'I' for Inactive)
REMARK    1  A    between atoms: C_1  and  C_2
REMARK    2  A    between atoms: C_5  and  C_6
REMARK    3  A    between atoms: N_12  and  C_13
REMARK    4  A    between atoms: C_13  and  C_14
REMARK    5  A    between atoms: C_14  and  C_15
REMARK    6  A    between atoms: C_19  and  C_21
REMARK    7  A    between atoms: C_24  and  N_25
REMARK                            x       y       z     vdW  Elec       q    Type
REMARK                         _______ _______ _______ _____ _____    ______ ____
ROOT
ATOM      1  C   UNL     1       1.804   8.197  18.911  0.00  0.00    +0.000 C 
ATOM      2  C   UNL     1       2.246   7.837  20.342  0.00  0.00    +0.000 C 
ATOM      3  C   UNL     1       1.052   7.925  21.287  0.00  0.00    +0.000 C 
ATOM      4  N   UNL     1       0.422   9.239  21.213  0.00  0.00    +0.000 N 
ATOM      5  C   UNL     1       0.181   9.936  22.404  0.00  0.00    +0.000 C 
ATOM      6  O   UNL     1       0.647   9.542  23.475  0.00  0.00    +0.000 OA
ATOM      7  C   UNL     1       0.068   9.705  19.864  0.00  0.00    +0.000 C 
ATOM      8  C   UNL     1       1.261   9.623  18.917  0.00  0.00    +0.000 C 
ENDROOT
BRANCH   5   9
ATOM      9  C   UNL     1      -0.600  11.151  22.344  0.00  0.00    +0.000 A 
ATOM     10  C   UNL     1      -0.275  12.405  21.853  0.00  0.00    +0.000 A 
ATOM     11  C   UNL     1      -1.432  13.215  21.987  0.00  0.00    +0.000 A 
ATOM     12  C   UNL     1      -2.365  12.413  22.598  0.00  0.00    +0.000 A 
ATOM     13  O   UNL     1      -1.865  11.183  22.870  0.00  0.00    +0.000 OA
BRANCH  12  14
ATOM     14  N   UNL     1      -3.732  12.622  22.953  0.00  0.00    +0.000 N 
ATOM     15  O   UNL     1      -4.420  13.250  22.136  0.00  0.00    +0.000 OA
ATOM     16  O   UNL     1      -4.129  12.146  24.023  0.00  0.00    +0.000 OA
ENDBRANCH  12  14
ENDBRANCH   5   9
BRANCH   1  17
ATOM     17  C   UNL     1       2.909   8.007  17.856  0.00  0.00    +0.000 C 
BRANCH  17  18
ATOM     18  C   UNL     1       3.168   6.512  17.704  0.00  0.00    +0.000 C 
BRANCH  18  24
ATOM     19  C   UNL     1       6.201   7.329  17.128  0.00  0.00    +0.000 C 
ATOM     20  C   UNL     1       5.691   6.206  17.954  0.00  0.00    +0.000 A 
ATOM     21  C   UNL     1       6.401   5.297  18.700  0.00  0.00    +0.000 A 
ATOM     22  N   UNL     1       5.575   4.407  19.325  0.00  0.00    +0.000 NA
ATOM     23  C   UNL     1       4.341   4.725  18.973  0.00  0.00    +0.000 A 
ATOM     24  N   UNL     1       4.373   5.859  18.148  0.00  0.00    +0.000 N 
BRANCH  23  25
ATOM     25  C   UNL     1       3.145   4.020  19.481  0.00  0.00    +0.000 A 
ATOM     26  C   UNL     1       2.475   4.327  20.672  0.00  0.00    +0.000 A 
ATOM     27  C   UNL     1       1.380   3.573  21.094  0.00  0.00    +0.000 A 
ATOM     28  C   UNL     1       0.942   2.543  20.283  0.00  0.00    +0.000 A 
ATOM     29  N   UNL     1       1.522   2.226  19.110  0.00  0.00    +0.000 NA
ATOM     30  C   UNL     1       2.597   2.973  18.737  0.00  0.00    +0.000 A 
ENDBRANCH  23  25
ENDBRANCH  18  24
ENDBRANCH  17  18
ENDBRANCH   1  17
TORSDOF 6
ENDMDL
MODEL 7
REMARK VINA RESULT:      -8.1      2.452      3.668
REMARK  Name = 
REMARK  7 active torsions:
REMARK  status: ('A' for Active; 'I' for Inactive)
REMARK    1  A    between atoms: C_1  and  C_2
REMARK    2  A    between atoms: C_5  and  C_6
REMARK    3  A    between atoms: N_12  and  C_13
REMARK    4  A    between atoms: C_13  and  C_14
REMARK    5  A    between atoms: C_14  and  C_15
REMARK    6  A    between atoms: C_19  and  C_21
REMARK    7  A    between atoms: C_24  and  N_25
REMARK                            x       y       z     vdW  Elec       q    Type
REMARK                         _______ _______ _______ _____ _____    ______ ____
ROOT
ATOM      1  C   UNL     1       1.961   8.425  19.166  0.00  0.00    +0.000 C 
ATOM      2  C   UNL     1       1.484   9.321  18.007  0.00  0.00    +0.000 C 
ATOM      3  C   UNL     1       1.570  10.787  18.421  0.00  0.00    +0.000 C 
ATOM      4  N   UNL     1       0.827  11.027  19.654  0.00  0.00    +0.000 N 
ATOM      5  C   UNL     1      -0.098  12.079  19.684  0.00  0.00    +0.000 C 
ATOM      6  O   UNL     1      -0.416  12.676  18.653  0.00  0.00    +0.000 OA
ATOM      7  C   UNL     1       1.147  10.138  20.779  0.00  0.00    +0.000 C 
ATOM      8  C   UNL     1       1.056   8.670  20.370  0.00  0.00    +0.000 C 
ENDROOT
BRANCH   5   9
ATOM      9  C   UNL     1      -0.701  12.428  20.952  0.00  0.00    +0.000 A 
ATOM     10  C   UNL     1      -0.200  13.166  22.011  0.00  0.00    +0.000 A 
ATOM     11  C   UNL     1      -1.232  13.254  22.980  0.00  0.00    +0.000 A 
ATOM     12  C   UNL     1      -2.273  12.520  22.465  0.00  0.00    +0.000 A 
ATOM     13  O   UNL     1      -1.953  11.971  21.268  0.00  0.00    +0.000 OA
BRANCH  12  14
ATOM     14  N   UNL     1      -3.600  12.271  22.930  0.00  0.00    +0.000 N 
ATOM     15  O   UNL     1      -3.709  11.916  24.112  0.00  0.00    +0.000 OA
ATOM     16  O   UNL     1      -4.532  12.449  22.137  0.00  0.00    +0.000 OA
ENDBRANCH  12  14
ENDBRANCH   5   9
BRANCH   1  17
ATOM     17  C   UNL     1       2.039   6.932  18.801  0.00  0.00    +0.000 C 
BRANCH  17  18
ATOM     18  C   UNL     1       2.817   6.215  19.900  0.00  0.00    +0.000 C 
BRANCH  18  24
ATOM     19  C   UNL     1       1.223   3.590  20.775  0.00  0.00    +0.000 C 
ATOM     20  C   UNL     1       2.562   3.686  20.143  0.00  0.00    +0.000 A 
ATOM     21  C   UNL     1       3.398   2.672  19.744  0.00  0.00    +0.000 A 
ATOM     22  N   UNL     1       4.553   3.158  19.202  0.00  0.00    +0.000 NA
ATOM     23  C   UNL     1       4.476   4.476  19.267  0.00  0.00    +0.000 A 
ATOM     24  N   UNL     1       3.237   4.840  19.815  0.00  0.00    +0.000 N 
BRANCH  23  25
ATOM     25  C   UNL     1       5.521   5.378  18.736  0.00  0.00    +0.000 A 
ATOM     26  C   UNL     1       5.371   6.215  17.623  0.00  0.00    +0.000 A 
ATOM     27  C   UNL     1       6.433   6.997  17.167  0.00  0.00    +0.000 A 
ATOM     28  C   UNL     1       7.622   6.963  17.870  0.00  0.00    +0.000 A 
ATOM     29  N   UNL     1       7.811   6.208  18.969  0.00  0.00    +0.000 NA
ATOM     30  C   UNL     1       6.759   5.445  19.376  0.00  0.00    +0.000 A 
ENDBRANCH  23  25
ENDBRANCH  18  24
ENDBRANCH  17  18
ENDBRANCH   1  17
TORSDOF 6
ENDMDL
MODEL 8
REMARK VINA RESULT:      -8.1      1.114      1.566
REMARK  Name = 
REMARK  7 active torsions:
REMARK  status: ('A' for Active; 'I' for Inactive)
REMARK    1  A    between atoms: C_1  and  C_2
REMARK    2  A    between atoms: C_5  and  C_6
REMARK    3  A    between atoms: N_12  and  C_13
REMARK    4  A    between atoms: C_13  and  C_14
REMARK    5  A    between atoms: C_14  and  C_15
REMARK    6  A    between atoms: C_19  and  C_21
REMARK    7  A    between atoms: C_24  and  N_25
REMARK                            x       y       z     vdW  Elec       q    Type
REMARK                         _______ _______ _______ _____ _____    ______ ____
ROOT
ATOM      1  C   UNL     1       1.719   7.935  18.717  0.00  0.00    +0.000 C 
ATOM      2  C   UNL     1       1.591   8.178  20.233  0.00  0.00    +0.000 C 
ATOM      3  C   UNL     1       0.604   9.312  20.491  0.00  0.00    +0.000 C 
ATOM      4  N   UNL     1       0.991  10.517  19.765  0.00  0.00    +0.000 N 
ATOM      5  C   UNL     1       1.071  11.726  20.467  0.00  0.00    +0.000 C 
ATOM      6  O   UNL     1       0.996  11.753  21.697  0.00  0.00    +0.000 OA
ATOM      7  C   UNL     1       1.240  10.347  18.326  0.00  0.00    +0.000 C 
ATOM      8  C   UNL     1       2.231   9.216  18.064  0.00  0.00    +0.000 C 
ENDROOT
BRANCH   5   9
ATOM      9  C   UNL     1       1.278  12.946  19.717  0.00  0.00    +0.000 A 
ATOM     10  C   UNL     1       0.381  13.931  19.339  0.00  0.00    +0.000 A 
ATOM     11  C   UNL     1       1.127  14.935  18.670  0.00  0.00    +0.000 A 
ATOM     12  C   UNL     1       2.418  14.467  18.642  0.00  0.00    +0.000 A 
ATOM     13  O   UNL     1       2.519  13.246  19.221  0.00  0.00    +0.000 OA
BRANCH  12  14
ATOM     14  N   UNL     1       3.638  15.033  18.163  0.00  0.00    +0.000 N 
ATOM     15  O   UNL     1       4.654  14.791  18.831  0.00  0.00    +0.000 OA
ATOM     16  O   UNL     1       3.597  15.692  17.118  0.00  0.00    +0.000 OA
ENDBRANCH  12  14
ENDBRANCH   5   9
BRANCH   1  17
ATOM     17  C   UNL     1       2.591   6.719  18.357  0.00  0.00    +0.000 C 
BRANCH  17  18
ATOM     18  C   UNL     1       2.971   6.008  19.652  0.00  0.00    +0.000 C 
BRANCH  18  24
ATOM     19  C   UNL     1       1.276   3.571  20.830  0.00  0.00    +0.000 C 
ATOM     20  C   UNL     1       2.612   3.536  20.185  0.00  0.00    +0.000 A 
ATOM     21  C   UNL     1       3.400   2.447  19.899  0.00  0.00    +0.000 A 
ATOM     22  N   UNL     1       4.569   2.818  19.299  0.00  0.00    +0.000 NA
ATOM     23  C   UNL     1       4.548   4.138  19.213  0.00  0.00    +0.000 A 
ATOM     24  N   UNL     1       3.332   4.614  19.723  0.00  0.00    +0.000 N 
BRANCH  23  25
ATOM     25  C   UNL     1       5.625   4.927  18.577  0.00  0.00    +0.000 A 
ATOM     26  C   UNL     1       6.693   5.523  19.258  0.00  0.00    +0.000 A 
ATOM     27  C   UNL     1       7.638   6.292  18.577  0.00  0.00    +0.000 A 
ATOM     28  C   UNL     1       7.521   6.410  17.205  0.00  0.00    +0.000 A 
ATOM     29  N   UNL     1       6.538   5.826  16.493  0.00  0.00    +0.000 NA
ATOM     30  C   UNL     1       5.626   5.098  17.192  0.00  0.00    +0.000 A 
ENDBRANCH  23  25
ENDBRANCH  18  24
ENDBRANCH  17  18
ENDBRANCH   1  17
TORSDOF 6
ENDMDL
MODEL 9
REMARK VINA RESULT:      -8.1      1.364      1.376
REMARK  Name = 
REMARK  7 active torsions:
REMARK  status: ('A' for Active; 'I' for Inactive)
REMARK    1  A    between atoms: C_1  and  C_2
REMARK    2  A    between atoms: C_5  and  C_6
REMARK    3  A    between atoms: N_12  and  C_13
REMARK    4  A    between atoms: C_13  and  C_14
REMARK    5  A    between atoms: C_14  and  C_15
REMARK    6  A    between atoms: C_19  and  C_21
REMARK    7  A    between atoms: C_24  and  N_25
REMARK                            x       y       z     vdW  Elec       q    Type
REMARK                         _______ _______ _______ _____ _____    ______ ____
ROOT
ATOM      1  C   UNL     1       1.831   7.767  18.966  0.00  0.00    +0.000 C 
ATOM      2  C   UNL     1       1.881   7.575  20.493  0.00  0.00    +0.000 C 
ATOM      3  C   UNL     1       0.650   8.207  21.133  0.00  0.00    +0.000 C 
ATOM      4  N   UNL     1       0.525   9.611  20.752  0.00  0.00    +0.000 N 
ATOM      5  C   UNL     1       0.343  10.565  21.760  0.00  0.00    +0.000 C 
ATOM      6  O   UNL     1       0.464  10.264  22.950  0.00  0.00    +0.000 OA
ATOM      7  C   UNL     1       0.578   9.890  19.310  0.00  0.00    +0.000 C 
ATOM      8  C   UNL     1       1.812   9.263  18.667  0.00  0.00    +0.000 C 
ENDROOT
BRANCH   5   9
ATOM      9  C   UNL     1       0.042  11.926  21.374  0.00  0.00    +0.000 A 
ATOM     10  C   UNL     1      -1.145  12.495  20.943  0.00  0.00    +0.000 A 
ATOM     11  C   UNL     1      -0.897  13.879  20.755  0.00  0.00    +0.000 A 
ATOM     12  C   UNL     1       0.437  14.047  21.036  0.00  0.00    +0.000 A 
ATOM     13  O   UNL     1       1.032  12.873  21.359  0.00  0.00    +0.000 OA
BRANCH  12  14
ATOM     14  N   UNL     1       1.275  15.203  21.084  0.00  0.00    +0.000 N 
ATOM     15  O   UNL     1       0.761  16.268  20.712  0.00  0.00    +0.000 OA
ATOM     16  O   UNL     1       2.426  15.063  21.511  0.00  0.00    +0.000 OA
ENDBRANCH  12  14
ENDBRANCH   5   9
BRANCH   1  17
ATOM     17  C   UNL     1       2.964   7.045  18.214  0.00  0.00    +0.000 C 
BRANCH  17  18
ATOM     18  C   UNL     1       2.540   5.597  17.995  0.00  0.00    +0.000 C 
BRANCH  18  24
ATOM     19  C   UNL     1       1.147   4.182  20.496  0.00  0.00    +0.000 C 
ATOM     20  C   UNL     1       2.433   3.835  19.841  0.00  0.00    +0.000 A 
ATOM     21  C   UNL     1       3.289   2.799  20.124  0.00  0.00    +0.000 A 
ATOM     22  N   UNL     1       4.377   2.809  19.299  0.00  0.00    +0.000 NA
ATOM     23  C   UNL     1       4.238   3.853  18.500  0.00  0.00    +0.000 A 
ATOM     24  N   UNL     1       3.023   4.494  18.786  0.00  0.00    +0.000 N 
BRANCH  23  25
ATOM     25  C   UNL     1       5.195   4.186  17.424  0.00  0.00    +0.000 A 
ATOM     26  C   UNL     1       4.936   4.070  16.053  0.00  0.00    +0.000 A 
ATOM     27  C   UNL     1       5.922   4.363  15.109  0.00  0.00    +0.000 A 
ATOM     28  C   UNL     1       7.146   4.818  15.561  0.00  0.00    +0.000 A 
ATOM     29  N   UNL     1       7.439   4.986  16.864  0.00  0.00    +0.000 NA
ATOM     30  C   UNL     1       6.459   4.675  17.756  0.00  0.00    +0.000 A 
ENDBRANCH  23  25
ENDBRANCH  18  24
ENDBRANCH  17  18
ENDBRANCH   1  17
TORSDOF 6
ENDMDL
