MODEL 1
REMARK VINA RESULT:      -8.2      0.000      0.000
REMARK  Name = 
REMARK  7 active torsions:
REMARK  status: ('A' for Active; 'I' for Inactive)
REMARK    1  A    between atoms: C_1  and  O_2
REMARK    2  A    between atoms: O_2  and  C_3
REMARK    3  A    between atoms: C_5  and  C_6
REMARK    4  A    between atoms: C_10  and  C_11
REMARK    5  A    between atoms: C_12  and  C_13
REMARK    6  A    between atoms: C_18  and  O_19
REMARK    7  A    between atoms: C_22  and  O_23
REMARK                            x       y       z     vdW  Elec       q    Type
REMARK                         _______ _______ _______ _____ _____    ______ ____
ROOT
ATOM      1  C   UNL     1       2.545   6.989  19.466  0.00  0.00    +0.000 A 
ATOM      2  O   UNL     1       1.941   7.370  20.654  0.00  0.00    +0.000 OA
ATOM      3  C   UNL     1       1.237   8.549  20.677  0.00  0.00    +0.000 A 
ATOM      4  C   UNL     1       0.542   8.863  21.845  0.00  0.00    +0.000 A 
ATOM      5  C   UNL     1      -0.238  10.033  21.929  0.00  0.00    +0.000 A 
ATOM      6  C   UNL     1      -1.013  10.301  23.191  0.00  0.00    +0.000 C 
ATOM      7  C   UNL     1      -0.300  10.904  20.821  0.00  0.00    +0.000 A 
ATOM      8  C   UNL     1      -1.129  12.161  20.802  0.00  0.00    +0.000 C 
ATOM      9  C   UNL     1       0.429  10.590  19.661  0.00  0.00    +0.000 A 
ATOM     10  C   UNL     1       1.177   9.413  19.591  0.00  0.00    +0.000 A 
ATOM     11  C   UNL     1       1.878   9.043  18.357  0.00  0.00    +0.000 A 
ATOM     12  O   UNL     1       1.895   9.749  17.353  0.00  0.00    +0.000 OA
ATOM     13  C   UNL     1       2.554   7.725  18.342  0.00  0.00    +0.000 A 
ENDROOT
BRANCH   1  16
ATOM     14  C   UNL     1       5.133   4.226  19.280  0.00  0.00    +0.000 A 
ATOM     15  C   UNL     1       4.523   5.489  19.217  0.00  0.00    +0.000 A 
ATOM     16  C   UNL     1       3.167   5.659  19.524  0.00  0.00    +0.000 A 
ATOM     17  C   UNL     1       2.406   4.545  19.890  0.00  0.00    +0.000 A 
ATOM     18  C   UNL     1       2.997   3.282  19.954  0.00  0.00    +0.000 A 
ATOM     19  C   UNL     1       4.356   3.123  19.654  0.00  0.00    +0.000 A 
BRANCH  14  21
ATOM     20  C   UNL     1       6.826   4.734  17.664  0.00  0.00    +0.000 C 
ATOM     21  O   UNL     1       6.462   4.260  18.953  0.00  0.00    +0.000 OA
ENDBRANCH  14  21
BRANCH  19  22
ATOM     22  O   UNL     1       4.890   1.866  19.740  0.00  0.00    +0.000 OA
ATOM     23  H   UNL     1       4.329   1.247  19.246  0.00  0.00    +0.000 HD
ENDBRANCH  19  22
ENDBRANCH   1  16
BRANCH  13  24
ATOM     24  O   UNL     1       3.139   7.324  17.155  0.00  0.00    +0.000 OA
ATOM     25  H   UNL     1       3.960   7.855  17.088  0.00  0.00    +0.000 HD
ENDBRANCH  13  24
TORSDOF 4
ENDMDL
MODEL 2
REMARK VINA RESULT:      -8.1      3.322      7.620
REMARK  Name = 
REMARK  7 active torsions:
REMARK  status: ('A' for Active; 'I' for Inactive)
REMARK    1  A    between atoms: C_1  and  O_2
REMARK    2  A    between atoms: O_2  and  C_3
REMARK    3  A    between atoms: C_5  and  C_6
REMARK    4  A    between atoms: C_10  and  C_11
REMARK    5  A    between atoms: C_12  and  C_13
REMARK    6  A    between atoms: C_18  and  O_19
REMARK    7  A    between atoms: C_22  and  O_23
REMARK                            x       y       z     vdW  Elec       q    Type
REMARK                         _______ _______ _______ _____ _____    ______ ____
ROOT
ATOM      1  C   UNL     1       5.001   4.352  18.132  0.00  0.00    +0.000 A 
ATOM      2  O   UNL     1       4.622   3.920  16.870  0.00  0.00    +0.000 OA
ATOM      3  C   UNL     1       5.435   4.229  15.806  0.00  0.00    +0.000 A 
ATOM      4  C   UNL     1       5.101   3.694  14.563  0.00  0.00    +0.000 A 
ATOM      5  C   UNL     1       5.911   3.929  13.434  0.00  0.00    +0.000 A 
ATOM      6  C   UNL     1       5.539   3.285  12.126  0.00  0.00    +0.000 C 
ATOM      7  C   UNL     1       7.064   4.731  13.565  0.00  0.00    +0.000 A 
ATOM      8  C   UNL     1       8.007   5.015  12.427  0.00  0.00    +0.000 C 
ATOM      9  C   UNL     1       7.372   5.288  14.818  0.00  0.00    +0.000 A 
ATOM     10  C   UNL     1       6.568   5.023  15.929  0.00  0.00    +0.000 A 
ATOM     11  C   UNL     1       6.927   5.539  17.254  0.00  0.00    +0.000 A 
ATOM     12  O   UNL     1       7.899   6.261  17.455  0.00  0.00    +0.000 OA
ATOM     13  C   UNL     1       6.076   5.116  18.389  0.00  0.00    +0.000 A 
ENDROOT
BRANCH   1  16
ATOM     14  C   UNL     1       2.153   4.151  20.626  0.00  0.00    +0.000 A 
ATOM     15  C   UNL     1       3.007   4.609  19.609  0.00  0.00    +0.000 A 
ATOM     16  C   UNL     1       4.123   3.865  19.205  0.00  0.00    +0.000 A 
ATOM     17  C   UNL     1       4.395   2.648  19.836  0.00  0.00    +0.000 A 
ATOM     18  C   UNL     1       3.559   2.180  20.849  0.00  0.00    +0.000 A 
ATOM     19  C   UNL     1       2.439   2.926  21.240  0.00  0.00    +0.000 A 
BRANCH  14  21
ATOM     20  C   UNL     1       1.375   6.404  20.848  0.00  0.00    +0.000 C 
ATOM     21  O   UNL     1       1.115   5.008  20.875  0.00  0.00    +0.000 OA
ENDBRANCH  14  21
BRANCH  19  22
ATOM     22  O   UNL     1       1.645   2.419  22.234  0.00  0.00    +0.000 OA
ATOM     23  H   UNL     1       0.747   2.776  22.137  0.00  0.00    +0.000 HD
ENDBRANCH  19  22
ENDBRANCH   1  16
BRANCH  13  24
ATOM     24  O   UNL     1       6.457   5.519  19.655  0.00  0.00    +0.000 OA
ATOM     25  H   UNL     1       6.300   6.487  19.668  0.00  0.00    +0.000 HD
ENDBRANCH  13  24
TORSDOF 4
ENDMDL
MODEL 3
REMARK VINA RESULT:      -8.1      0.788      2.066
REMARK  Name = 
REMARK  7 active torsions:
REMARK  status: ('A' for Active; 'I' for Inactive)
REMARK    1  A    between atoms: C_1  and  O_2
REMARK    2  A    between atoms: O_2  and  C_3
REMARK    3  A    between atoms: C_5  and  C_6
REMARK    4  A    between atoms: C_10  and  C_11
REMARK    5  A    between atoms: C_12  and  C_13
REMARK    6  A    between atoms: C_18  and  O_19
REMARK    7  A    between atoms: C_22  and  O_23
REMARK                            x       y       z     vdW  Elec       q    Type
REMARK                         _______ _______ _______ _____ _____    ______ ____
ROOT
ATOM      1  C   UNL     1       2.546   7.009  19.467  0.00  0.00    +0.000 A 
ATOM      2  O   UNL     1       1.937   7.393  20.652  0.00  0.00    +0.000 OA
ATOM      3  C   UNL     1       1.235   8.574  20.670  0.00  0.00    +0.000 A 
ATOM      4  C   UNL     1       0.535   8.891  21.834  0.00  0.00    +0.000 A 
ATOM      5  C   UNL     1      -0.244  10.063  21.912  0.00  0.00    +0.000 A 
ATOM      6  C   UNL     1      -1.023  10.334  23.170  0.00  0.00    +0.000 C 
ATOM      7  C   UNL     1      -0.300  10.931  20.802  0.00  0.00    +0.000 A 
ATOM      8  C   UNL     1      -1.126  12.190  20.777  0.00  0.00    +0.000 C 
ATOM      9  C   UNL     1       0.434  10.614  19.645  0.00  0.00    +0.000 A 
ATOM     10  C   UNL     1       1.181   9.436  19.582  0.00  0.00    +0.000 A 
ATOM     11  C   UNL     1       1.886   9.062  18.351  0.00  0.00    +0.000 A 
ATOM     12  O   UNL     1       1.909   9.766  17.346  0.00  0.00    +0.000 OA
ATOM     13  C   UNL     1       2.561   7.743  18.342  0.00  0.00    +0.000 A 
ENDROOT
BRANCH   1  16
ATOM     14  C   UNL     1       3.004   3.287  20.015  0.00  0.00    +0.000 A 
ATOM     15  C   UNL     1       2.428   4.567  19.960  0.00  0.00    +0.000 A 
ATOM     16  C   UNL     1       3.165   5.678  19.531  0.00  0.00    +0.000 A 
ATOM     17  C   UNL     1       4.503   5.509  19.162  0.00  0.00    +0.000 A 
ATOM     18  C   UNL     1       5.090   4.245  19.215  0.00  0.00    +0.000 A 
ATOM     19  C   UNL     1       4.343   3.137  19.635  0.00  0.00    +0.000 A 
BRANCH  14  21
ATOM     20  C   UNL     1       1.411   2.568  21.651  0.00  0.00    +0.000 C 
ATOM     21  O   UNL     1       2.129   2.328  20.449  0.00  0.00    +0.000 OA
ENDBRANCH  14  21
BRANCH  19  22
ATOM     22  O   UNL     1       4.963   1.916  19.660  0.00  0.00    +0.000 OA
ATOM     23  H   UNL     1       4.304   1.228  19.845  0.00  0.00    +0.000 HD
ENDBRANCH  19  22
ENDBRANCH   1  16
BRANCH  13  24
ATOM     24  O   UNL     1       3.150   7.338  17.158  0.00  0.00    +0.000 OA
ATOM     25  H   UNL     1       3.862   6.722  17.432  0.00  0.00    +0.000 HD
ENDBRANCH  13  24
TORSDOF 4
ENDMDL
MODEL 4
REMARK VINA RESULT:      -8.0      2.081      3.768
REMARK  Name = 
REMARK  7 active torsions:
REMARK  status: ('A' for Active; 'I' for Inactive)
REMARK    1  A    between atoms: C_1  and  O_2
REMARK    2  A    between atoms: O_2  and  C_3
REMARK    3  A    between atoms: C_5  and  C_6
REMARK    4  A    between atoms: C_10  and  C_11
REMARK    5  A    between atoms: C_12  and  C_13
REMARK    6  A    between atoms: C_18  and  O_19
REMARK    7  A    between atoms: C_22  and  O_23
REMARK                            x       y       z     vdW  Elec       q    Type
REMARK                         _______ _______ _______ _____ _____    ______ ____
ROOT
ATOM      1  C   UNL     1       3.640   5.971  18.542  0.00  0.00    +0.000 A 
ATOM      2  O   UNL     1       3.046   7.215  18.397  0.00  0.00    +0.000 OA
ATOM      3  C   UNL     1       2.152   7.625  19.356  0.00  0.00    +0.000 A 
ATOM      4  C   UNL     1       1.650   8.922  19.257  0.00  0.00    +0.000 A 
ATOM      5  C   UNL     1       0.764   9.430  20.228  0.00  0.00    +0.000 A 
ATOM      6  C   UNL     1       0.291  10.853  20.107  0.00  0.00    +0.000 C 
ATOM      7  C   UNL     1       0.369   8.605  21.302  0.00  0.00    +0.000 A 
ATOM      8  C   UNL     1      -0.549   9.065  22.404  0.00  0.00    +0.000 C 
ATOM      9  C   UNL     1       0.861   7.290  21.374  0.00  0.00    +0.000 A 
ATOM     10  C   UNL     1       1.756   6.816  20.413  0.00  0.00    +0.000 A 
ATOM     11  C   UNL     1       2.331   5.471  20.525  0.00  0.00    +0.000 A 
ATOM     12  O   UNL     1       2.029   4.680  21.414  0.00  0.00    +0.000 OA
ATOM     13  C   UNL     1       3.354   5.096  19.522  0.00  0.00    +0.000 A 
ENDROOT
BRANCH   1  16
ATOM     14  C   UNL     1       6.825   6.188  16.498  0.00  0.00    +0.000 A 
ATOM     15  C   UNL     1       5.833   6.455  17.457  0.00  0.00    +0.000 A 
ATOM     16  C   UNL     1       4.663   5.687  17.526  0.00  0.00    +0.000 A 
ATOM     17  C   UNL     1       4.478   4.643  16.616  0.00  0.00    +0.000 A 
ATOM     18  C   UNL     1       5.452   4.368  15.656  0.00  0.00    +0.000 A 
ATOM     19  C   UNL     1       6.623   5.134  15.600  0.00  0.00    +0.000 A 
BRANCH  14  21
ATOM     20  C   UNL     1       7.857   8.063  17.572  0.00  0.00    +0.000 C 
ATOM     21  O   UNL     1       7.896   7.036  16.591  0.00  0.00    +0.000 OA
ENDBRANCH  14  21
BRANCH  19  22
ATOM     22  O   UNL     1       7.552   4.818  14.645  0.00  0.00    +0.000 OA
ATOM     23  H   UNL     1       7.823   5.627  14.183  0.00  0.00    +0.000 HD
ENDBRANCH  19  22
ENDBRANCH   1  16
BRANCH  13  24
ATOM     24  O   UNL     1       3.971   3.868  19.671  0.00  0.00    +0.000 OA
ATOM     25  H   UNL     1       4.876   4.079  19.986  0.00  0.00    +0.000 HD
ENDBRANCH  13  24
TORSDOF 4
ENDMDL
MODEL 5
REMARK VINA RESULT:      -7.6      5.010      7.158
REMARK  Name = 
REMARK  7 active torsions:
REMARK  status: ('A' for Active; 'I' for Inactive)
REMARK    1  A    between atoms: C_1  and  O_2
REMARK    2  A    between atoms: O_2  and  C_3
REMARK    3  A    between atoms: C_5  and  C_6
REMARK    4  A    between atoms: C_10  and  C_11
REMARK    5  A    between atoms: C_12  and  C_13
REMARK    6  A    between atoms: C_18  and  O_19
REMARK    7  A    between atoms: C_22  and  O_23
REMARK                            x       y       z     vdW  Elec       q    Type
REMARK                         _______ _______ _______ _____ _____    ______ ____
ROOT
ATOM      1  C   UNL     1       5.705   4.181  16.349  0.00  0.00    +0.000 A 
ATOM      2  O   UNL     1       4.474   3.554  16.463  0.00  0.00    +0.000 OA
ATOM      3  C   UNL     1       3.879   3.509  17.700  0.00  0.00    +0.000 A 
ATOM      4  C   UNL     1       2.593   2.975  17.778  0.00  0.00    +0.000 A 
ATOM      5  C   UNL     1       1.901   2.936  19.004  0.00  0.00    +0.000 A 
ATOM      6  C   UNL     1       0.495   2.401  19.028  0.00  0.00    +0.000 C 
ATOM      7  C   UNL     1       2.527   3.428  20.169  0.00  0.00    +0.000 A 
ATOM      8  C   UNL     1       1.860   3.457  21.518  0.00  0.00    +0.000 C 
ATOM      9  C   UNL     1       3.835   3.936  20.081  0.00  0.00    +0.000 A 
ATOM     10  C   UNL     1       4.494   3.986  18.850  0.00  0.00    +0.000 A 
ATOM     11  C   UNL     1       5.828   4.585  18.739  0.00  0.00    +0.000 A 
ATOM     12  O   UNL     1       6.455   5.018  19.702  0.00  0.00    +0.000 OA
ATOM     13  C   UNL     1       6.401   4.693  17.378  0.00  0.00    +0.000 A 
ENDROOT
BRANCH   1  16
ATOM     14  C   UNL     1       6.065   3.579  12.624  0.00  0.00    +0.000 A 
ATOM     15  C   UNL     1       5.619   3.492  13.953  0.00  0.00    +0.000 A 
ATOM     16  C   UNL     1       6.190   4.275  14.965  0.00  0.00    +0.000 A 
ATOM     17  C   UNL     1       7.230   5.151  14.643  0.00  0.00    +0.000 A 
ATOM     18  C   UNL     1       7.686   5.247  13.328  0.00  0.00    +0.000 A 
ATOM     19  C   UNL     1       7.103   4.468  12.321  0.00  0.00    +0.000 A 
BRANCH  14  21
ATOM     20  C   UNL     1       4.138   3.188  11.257  0.00  0.00    +0.000 C 
ATOM     21  O   UNL     1       5.383   2.745  11.779  0.00  0.00    +0.000 OA
ENDBRANCH  14  21
BRANCH  19  22
ATOM     22  O   UNL     1       7.580   4.605  11.046  0.00  0.00    +0.000 OA
ATOM     23  H   UNL     1       8.419   5.093  11.070  0.00  0.00    +0.000 HD
ENDBRANCH  19  22
ENDBRANCH   1  16
BRANCH  13  24
ATOM     24  O   UNL     1       7.617   5.339  17.249  0.00  0.00    +0.000 OA
ATOM     25  H   UNL     1       7.385   6.281  17.100  0.00  0.00    +0.000 HD
ENDBRANCH  13  24
TORSDOF 4
ENDMDL
MODEL 6
REMARK VINA RESULT:      -7.5      4.614      7.501
REMARK  Name = 
REMARK  7 active torsions:
REMARK  status: ('A' for Active; 'I' for Inactive)
REMARK    1  A    between atoms: C_1  and  O_2
REMARK    2  A    between atoms: O_2  and  C_3
REMARK    3  A    between atoms: C_5  and  C_6
REMARK    4  A    between atoms: C_10  and  C_11
REMARK    5  A    between atoms: C_12  and  C_13
REMARK    6  A    between atoms: C_18  and  O_19
REMARK    7  A    between atoms: C_22  and  O_23
REMARK                            x       y       z     vdW  Elec       q    Type
REMARK                         _______ _______ _______ _____ _____    ______ ____
ROOT
ATOM      1  C   UNL     1       4.902   4.356  18.139  0.00  0.00    +0.000 A 
ATOM      2  O   UNL     1       4.547   3.917  16.872  0.00  0.00    +0.000 OA
ATOM      3  C   UNL     1       5.369   4.237  15.819  0.00  0.00    +0.000 A 
ATOM      4  C   UNL     1       5.059   3.695  14.572  0.00  0.00    +0.000 A 
ATOM      5  C   UNL     1       5.880   3.942  13.453  0.00  0.00    +0.000 A 
ATOM      6  C   UNL     1       5.534   3.291  12.142  0.00  0.00    +0.000 C 
ATOM      7  C   UNL     1       7.019   4.762  13.598  0.00  0.00    +0.000 A 
ATOM      8  C   UNL     1       7.972   5.059  12.472  0.00  0.00    +0.000 C 
ATOM      9  C   UNL     1       7.302   5.325  14.854  0.00  0.00    +0.000 A 
ATOM     10  C   UNL     1       6.487   5.049  15.955  0.00  0.00    +0.000 A 
ATOM     11  C   UNL     1       6.822   5.572  17.284  0.00  0.00    +0.000 A 
ATOM     12  O   UNL     1       7.780   6.309  17.497  0.00  0.00    +0.000 OA
ATOM     13  C   UNL     1       5.962   5.137  18.409  0.00  0.00    +0.000 A 
ENDROOT
BRANCH   1  16
ATOM     14  C   UNL     1       3.611   2.356  21.089  0.00  0.00    +0.000 A 
ATOM     15  C   UNL     1       4.441   2.835  20.061  0.00  0.00    +0.000 A 
ATOM     16  C   UNL     1       4.018   3.857  19.201  0.00  0.00    +0.000 A 
ATOM     17  C   UNL     1       2.741   4.400  19.364  0.00  0.00    +0.000 A 
ATOM     18  C   UNL     1       1.904   3.933  20.377  0.00  0.00    +0.000 A 
ATOM     19  C   UNL     1       2.338   2.918  21.239  0.00  0.00    +0.000 A 
BRANCH  14  21
ATOM     20  C   UNL     1       5.479   0.898  21.429  0.00  0.00    +0.000 C 
ATOM     21  O   UNL     1       4.199   1.366  21.829  0.00  0.00    +0.000 OA
ENDBRANCH  14  21
BRANCH  19  22
ATOM     22  O   UNL     1       1.482   2.501  22.223  0.00  0.00    +0.000 OA
ATOM     23  H   UNL     1       1.195   3.269  22.743  0.00  0.00    +0.000 HD
ENDBRANCH  19  22
ENDBRANCH   1  16
BRANCH  13  24
ATOM     24  O   UNL     1       6.321   5.547  19.679  0.00  0.00    +0.000 OA
ATOM     25  H   UNL     1       7.252   5.841  19.593  0.00  0.00    +0.000 HD
ENDBRANCH  13  24
TORSDOF 4
ENDMDL
MODEL 7
REMARK VINA RESULT:      -7.3      2.015      3.457
REMARK  Name = 
REMARK  7 active torsions:
REMARK  status: ('A' for Active; 'I' for Inactive)
REMARK    1  A    between atoms: C_1  and  O_2
REMARK    2  A    between atoms: O_2  and  C_3
REMARK    3  A    between atoms: C_5  and  C_6
REMARK    4  A    between atoms: C_10  and  C_11
REMARK    5  A    between atoms: C_12  and  C_13
REMARK    6  A    between atoms: C_18  and  O_19
REMARK    7  A    between atoms: C_22  and  O_23
REMARK                            x       y       z     vdW  Elec       q    Type
REMARK                         _______ _______ _______ _____ _____    ______ ____
ROOT
ATOM      1  C   UNL     1       3.376   6.875  18.355  0.00  0.00    +0.000 A 
ATOM      2  O   UNL     1       2.928   8.105  17.899  0.00  0.00    +0.000 OA
ATOM      3  C   UNL     1       2.006   8.784  18.659  0.00  0.00    +0.000 A 
ATOM      4  C   UNL     1       1.650  10.067  18.246  0.00  0.00    +0.000 A 
ATOM      5  C   UNL     1       0.745  10.843  18.998  0.00  0.00    +0.000 A 
ATOM      6  C   UNL     1       0.433  12.242  18.540  0.00  0.00    +0.000 C 
ATOM      7  C   UNL     1       0.182  10.304  20.173  0.00  0.00    +0.000 A 
ATOM      8  C   UNL     1      -0.769  11.063  21.059  0.00  0.00    +0.000 C 
ATOM      9  C   UNL     1       0.528   8.997  20.562  0.00  0.00    +0.000 A 
ATOM     10  C   UNL     1       1.445   8.255  19.814  0.00  0.00    +0.000 A 
ATOM     11  C   UNL     1       1.867   6.922  20.256  0.00  0.00    +0.000 A 
ATOM     12  O   UNL     1       1.415   6.368  21.254  0.00  0.00    +0.000 OA
ATOM     13  C   UNL     1       2.923   6.257  19.459  0.00  0.00    +0.000 A 
ENDROOT
BRANCH   1  16
ATOM     14  C   UNL     1       6.732   6.364  16.669  0.00  0.00    +0.000 A 
ATOM     15  C   UNL     1       5.699   6.912  17.448  0.00  0.00    +0.000 A 
ATOM     16  C   UNL     1       4.444   6.297  17.527  0.00  0.00    +0.000 A 
ATOM     17  C   UNL     1       4.214   5.120  16.808  0.00  0.00    +0.000 A 
ATOM     18  C   UNL     1       5.228   4.565  16.028  0.00  0.00    +0.000 A 
ATOM     19  C   UNL     1       6.484   5.182  15.962  0.00  0.00    +0.000 A 
BRANCH  14  21
ATOM     20  C   UNL     1       7.933   8.213  17.603  0.00  0.00    +0.000 C 
ATOM     21  O   UNL     1       7.886   7.099  16.723  0.00  0.00    +0.000 OA
ENDBRANCH  14  21
BRANCH  19  22
ATOM     22  O   UNL     1       7.449   4.593  15.190  0.00  0.00    +0.000 OA
ATOM     23  H   UNL     1       7.866   3.875  15.693  0.00  0.00    +0.000 HD
ENDBRANCH  19  22
ENDBRANCH   1  16
BRANCH  13  24
ATOM     24  O   UNL     1       3.397   5.042  19.918  0.00  0.00    +0.000 OA
ATOM     25  H   UNL     1       2.658   4.414  19.772  0.00  0.00    +0.000 HD
ENDBRANCH  13  24
TORSDOF 4
ENDMDL
MODEL 8
REMARK VINA RESULT:      -7.2      2.270      4.106
REMARK  Name = 
REMARK  7 active torsions:
REMARK  status: ('A' for Active; 'I' for Inactive)
REMARK    1  A    between atoms: C_1  and  O_2
REMARK    2  A    between atoms: O_2  and  C_3
REMARK    3  A    between atoms: C_5  and  C_6
REMARK    4  A    between atoms: C_10  and  C_11
REMARK    5  A    between atoms: C_12  and  C_13
REMARK    6  A    between atoms: C_18  and  O_19
REMARK    7  A    between atoms: C_22  and  O_23
REMARK                            x       y       z     vdW  Elec       q    Type
REMARK                         _______ _______ _______ _____ _____    ______ ____
ROOT
ATOM      1  C   UNL     1       3.900   6.026  18.402  0.00  0.00    +0.000 A 
ATOM      2  O   UNL     1       3.242   7.238  18.259  0.00  0.00    +0.000 OA
ATOM      3  C   UNL     1       2.317   7.592  19.212  0.00  0.00    +0.000 A 
ATOM      4  C   UNL     1       1.747   8.861  19.117  0.00  0.00    +0.000 A 
ATOM      5  C   UNL     1       0.824   9.312  20.081  0.00  0.00    +0.000 A 
ATOM      6  C   UNL     1       0.277  10.709  19.965  0.00  0.00    +0.000 C 
ATOM      7  C   UNL     1       0.463   8.459  21.145  0.00  0.00    +0.000 A 
ATOM      8  C   UNL     1      -0.489   8.860  22.240  0.00  0.00    +0.000 C 
ATOM      9  C   UNL     1       1.024   7.172  21.212  0.00  0.00    +0.000 A 
ATOM     10  C   UNL     1       1.954   6.754  20.258  0.00  0.00    +0.000 A 
ATOM     11  C   UNL     1       2.600   5.441  20.366  0.00  0.00    +0.000 A 
ATOM     12  O   UNL     1       2.331   4.628  21.246  0.00  0.00    +0.000 OA
ATOM     13  C   UNL     1       3.651   5.129  19.371  0.00  0.00    +0.000 A 
ENDROOT
BRANCH   1  16
ATOM     14  C   UNL     1       5.645   4.950  15.213  0.00  0.00    +0.000 A 
ATOM     15  C   UNL     1       4.656   5.157  16.189  0.00  0.00    +0.000 A 
ATOM     16  C   UNL     1       4.948   5.806  17.395  0.00  0.00    +0.000 A 
ATOM     17  C   UNL     1       6.253   6.246  17.634  0.00  0.00    +0.000 A 
ATOM     18  C   UNL     1       7.247   6.045  16.676  0.00  0.00    +0.000 A 
ATOM     19  C   UNL     1       6.944   5.404  15.468  0.00  0.00    +0.000 A 
BRANCH  14  21
ATOM     20  C   UNL     1       6.093   3.598  13.289  0.00  0.00    +0.000 C 
ATOM     21  O   UNL     1       5.169   4.308  14.101  0.00  0.00    +0.000 OA
ENDBRANCH  14  21
BRANCH  19  22
ATOM     22  O   UNL     1       7.953   5.240  14.558  0.00  0.00    +0.000 OA
ATOM     23  H   UNL     1       7.668   5.592  13.699  0.00  0.00    +0.000 HD
ENDBRANCH  19  22
ENDBRANCH   1  16
BRANCH  13  24
ATOM     24  O   UNL     1       4.332   3.935  19.518  0.00  0.00    +0.000 OA
ATOM     25  H   UNL     1       4.327   3.761  20.483  0.00  0.00    +0.000 HD
ENDBRANCH  13  24
TORSDOF 4
ENDMDL
MODEL 9
REMARK VINA RESULT:      -7.1      1.156      1.522
REMARK  Name = 
REMARK  7 active torsions:
REMARK  status: ('A' for Active; 'I' for Inactive)
REMARK    1  A    between atoms: C_1  and  O_2
REMARK    2  A    between atoms: O_2  and  C_3
REMARK    3  A    between atoms: C_5  and  C_6
REMARK    4  A    between atoms: C_10  and  C_11
REMARK    5  A    between atoms: C_12  and  C_13
REMARK    6  A    between atoms: C_18  and  O_19
REMARK    7  A    between atoms: C_22  and  O_23
REMARK                            x       y       z     vdW  Elec       q    Type
REMARK                         _______ _______ _______ _____ _____    ______ ____
ROOT
ATOM      1  C   UNL     1       2.300   6.827  18.966  0.00  0.00    +0.000 A 
ATOM      2  O   UNL     1       1.722   7.059  20.204  0.00  0.00    +0.000 OA
ATOM      3  C   UNL     1       1.295   8.332  20.495  0.00  0.00    +0.000 A 
ATOM      4  C   UNL     1       0.615   8.526  21.696  0.00  0.00    +0.000 A 
ATOM      5  C   UNL     1       0.108   9.794  22.043  0.00  0.00    +0.000 A 
ATOM      6  C   UNL     1      -0.666   9.941  23.325  0.00  0.00    +0.000 C 
ATOM      7  C   UNL     1       0.308  10.882  21.167  0.00  0.00    +0.000 A 
ATOM      8  C   UNL     1      -0.221  12.266  21.434  0.00  0.00    +0.000 C 
ATOM      9  C   UNL     1       1.021  10.678  19.973  0.00  0.00    +0.000 A 
ATOM     10  C   UNL     1       1.495   9.408  19.639  0.00  0.00    +0.000 A 
ATOM     11  C   UNL     1       2.172   9.174  18.359  0.00  0.00    +0.000 A 
ATOM     12  O   UNL     1       2.407  10.065  17.548  0.00  0.00    +0.000 OA
ATOM     13  C   UNL     1       2.541   7.775  18.044  0.00  0.00    +0.000 A 
ENDROOT
BRANCH   1  16
ATOM     14  C   UNL     1       3.997   3.442  19.134  0.00  0.00    +0.000 A 
ATOM     15  C   UNL     1       3.697   4.797  19.351  0.00  0.00    +0.000 A 
ATOM     16  C   UNL     1       2.609   5.412  18.719  0.00  0.00    +0.000 A 
ATOM     17  C   UNL     1       1.815   4.662  17.847  0.00  0.00    +0.000 A 
ATOM     18  C   UNL     1       2.101   3.316  17.618  0.00  0.00    +0.000 A 
ATOM     19  C   UNL     1       3.185   2.707  18.261  0.00  0.00    +0.000 A 
BRANCH  14  21
ATOM     20  C   UNL     1       4.940   1.894  20.698  0.00  0.00    +0.000 C 
ATOM     21  O   UNL     1       5.089   3.018  19.843  0.00  0.00    +0.000 OA
ENDBRANCH  14  21
BRANCH  19  22
ATOM     22  O   UNL     1       3.420   1.382  18.010  0.00  0.00    +0.000 OA
ATOM     23  H   UNL     1       4.031   1.302  17.260  0.00  0.00    +0.000 HD
ENDBRANCH  19  22
ENDBRANCH   1  16
BRANCH  13  24
ATOM     24  O   UNL     1       3.095   7.527  16.802  0.00  0.00    +0.000 OA
ATOM     25  H   UNL     1       3.598   8.341  16.586  0.00  0.00    +0.000 HD
ENDBRANCH  13  24
TORSDOF 4
ENDMDL
