MODEL 1
REMARK VINA RESULT:      -7.2      0.000      0.000
REMARK  Name = 
REMARK  8 active torsions:
REMARK  status: ('A' for Active; 'I' for Inactive)
REMARK    1  A    between atoms: C_1  and  O_2
REMARK    2  A    between atoms: O_2  and  N_3
REMARK    3  A    between atoms: C_6  and  C_7
REMARK    4  A    between atoms: C_6  and  C_8
REMARK    5  A    between atoms: C_11  and  C_12
REMARK    6  A    between atoms: N_18  and  C_19
REMARK    7  A    between atoms: C_28  and  S_29
REMARK    8  A    between atoms: S_29  and  C_30
REMARK                            x       y       z     vdW  Elec       q    Type
REMARK                         _______ _______ _______ _____ _____    ______ ____
ROOT
ATOM      1  N   UNL     1       5.265   2.569  19.580  0.00  0.00    +0.000 NA
ATOM      2  C   UNL     1       4.184   3.263  19.373  0.00  0.00    +0.000 C 
ATOM      3  C   UNL     1       2.772   2.691  19.511  0.00  0.00    +0.000 C 
ATOM      4  C   UNL     1       1.819   3.690  20.196  0.00  0.00    +0.000 C 
ATOM      5  C   UNL     1       0.410   3.076  20.267  0.00  0.00    +0.000 C 
ATOM      6  C   UNL     1       2.289   3.994  21.633  0.00  0.00    +0.000 C 
ATOM      7  C   UNL     1       1.741   4.990  19.369  0.00  0.00    +0.000 C 
ATOM      8  C   UNL     1       3.094   5.537  19.001  0.00  0.00    +0.000 A 
ATOM      9  C   UNL     1       3.368   6.836  18.605  0.00  0.00    +0.000 A 
ATOM     10  S   UNL     1       5.006   7.001  18.144  0.00  0.00    +0.000 S 
ATOM     11  C   UNL     1       5.398   5.390  18.570  0.00  0.00    +0.000 A 
ATOM     12  C   UNL     1       4.280   4.680  18.977  0.00  0.00    +0.000 A 
ENDROOT
BRANCH   9  13
ATOM     13  C   UNL     1       2.379   7.984  18.515  0.00  0.00    +0.000 A 
ATOM     14  C   UNL     1       1.950   8.578  17.303  0.00  0.00    +0.000 A 
ATOM     15  C   UNL     1       0.958   9.450  17.663  0.00  0.00    +0.000 A 
ATOM     16  N   UNL     1       0.864   9.409  19.034  0.00  0.00    +0.000 N 
ATOM     17  C   UNL     1      -0.090  10.105  19.811  0.00  0.00    +0.000 C 
ATOM     18  O   UNL     1      -1.179  10.348  19.310  0.00  0.00    +0.000 OA
ATOM     19  N   UNL     1       0.444  10.572  21.005  0.00  0.00    +0.000 N 
ATOM     20  N   UNL     1       1.799   8.575  19.578  0.00  0.00    +0.000 NA
ATOM     21  H   UNL     1       1.449  10.475  21.118  0.00  0.00    +0.000 HD
BRANCH  19  22
ATOM     22  C   UNL     1      -0.250  11.484  21.837  0.00  0.00    +0.000 A 
ATOM     23  C   UNL     1      -1.224  11.060  22.747  0.00  0.00    +0.000 A 
ATOM     24  C   UNL     1      -1.946  11.978  23.516  0.00  0.00    +0.000 A 
ATOM     25  C   UNL     1      -1.699  13.337  23.370  0.00  0.00    +0.000 A 
ATOM     26 CL   UNL     1      -2.614  14.473  24.284  0.00  0.00    +0.000 Cl
ATOM     27  C   UNL     1      -0.718  13.779  22.484  0.00  0.00    +0.000 A 
ATOM     28  C   UNL     1       0.020  12.854  21.727  0.00  0.00    +0.000 A 
ENDBRANCH  19  22
ENDBRANCH   9  13
BRANCH   1  30
ATOM     29  C   UNL     1       5.472   0.960  21.226  0.00  0.00    +0.000 C 
ATOM     30  O   UNL     1       4.954   1.241  19.935  0.00  0.00    +0.000 OA
ENDBRANCH   1  30
BRANCH  11  31
ATOM     31  S   UNL     1       7.065   4.844  18.382  0.00  0.00    +0.000 S 
ATOM     32  C   UNL     1       7.091   4.538  16.600  0.00  0.00    +0.000 C 
ENDBRANCH  11  31
TORSDOF 4
ENDMDL
MODEL 2
REMARK VINA RESULT:      -6.6      4.419     10.218
REMARK  Name = 
REMARK  8 active torsions:
REMARK  status: ('A' for Active; 'I' for Inactive)
REMARK    1  A    between atoms: C_1  and  O_2
REMARK    2  A    between atoms: O_2  and  N_3
REMARK    3  A    between atoms: C_6  and  C_7
REMARK    4  A    between atoms: C_6  and  C_8
REMARK    5  A    between atoms: C_11  and  C_12
REMARK    6  A    between atoms: N_18  and  C_19
REMARK    7  A    between atoms: C_28  and  S_29
REMARK    8  A    between atoms: S_29  and  C_30
REMARK                            x       y       z     vdW  Elec       q    Type
REMARK                         _______ _______ _______ _____ _____    ______ ____
ROOT
ATOM      1  N   UNL     1      -0.581  16.255  23.803  0.00  0.00    +0.000 NA
ATOM      2  C   UNL     1      -0.762  15.023  23.426  0.00  0.00    +0.000 C 
ATOM      3  C   UNL     1      -1.802  14.092  24.052  0.00  0.00    +0.000 C 
ATOM      4  C   UNL     1      -2.516  13.240  22.985  0.00  0.00    +0.000 C 
ATOM      5  C   UNL     1      -3.516  12.297  23.678  0.00  0.00    +0.000 C 
ATOM      6  C   UNL     1      -3.296  14.138  22.003  0.00  0.00    +0.000 C 
ATOM      7  C   UNL     1      -1.485  12.380  22.226  0.00  0.00    +0.000 C 
ATOM      8  C   UNL     1      -0.304  13.174  21.734  0.00  0.00    +0.000 A 
ATOM      9  C   UNL     1       0.575  12.792  20.734  0.00  0.00    +0.000 A 
ATOM     10  S   UNL     1       1.854  13.915  20.584  0.00  0.00    +0.000 S 
ATOM     11  C   UNL     1       1.202  14.975  21.759  0.00  0.00    +0.000 A 
ATOM     12  C   UNL     1       0.061  14.452  22.346  0.00  0.00    +0.000 A 
ENDROOT
BRANCH   9  13
ATOM     13  C   UNL     1       0.498  11.531  19.892  0.00  0.00    +0.000 A 
ATOM     14  C   UNL     1      -0.364  11.362  18.781  0.00  0.00    +0.000 A 
ATOM     15  C   UNL     1      -0.004  10.164  18.226  0.00  0.00    +0.000 A 
ATOM     16  N   UNL     1       0.981   9.632  19.024  0.00  0.00    +0.000 N 
ATOM     17  C   UNL     1       1.686   8.434  18.766  0.00  0.00    +0.000 C 
ATOM     18  O   UNL     1       1.839   8.090  17.602  0.00  0.00    +0.000 OA
ATOM     19  N   UNL     1       1.951   7.719  19.927  0.00  0.00    +0.000 N 
ATOM     20  N   UNL     1       1.236  10.424  20.106  0.00  0.00    +0.000 NA
ATOM     21  H   UNL     1       1.514   8.063  20.778  0.00  0.00    +0.000 HD
BRANCH  19  22
ATOM     22  C   UNL     1       2.440   6.391  19.902  0.00  0.00    +0.000 A 
ATOM     23  C   UNL     1       1.752   5.336  20.511  0.00  0.00    +0.000 A 
ATOM     24  C   UNL     1       2.279   4.042  20.533  0.00  0.00    +0.000 A 
ATOM     25  C   UNL     1       3.514   3.797  19.946  0.00  0.00    +0.000 A 
ATOM     26 CL   UNL     1       4.187   2.213  20.007  0.00  0.00    +0.000 Cl
ATOM     27  C   UNL     1       4.207   4.829  19.315  0.00  0.00    +0.000 A 
ATOM     28  C   UNL     1       3.666   6.125  19.278  0.00  0.00    +0.000 A 
ENDBRANCH  19  22
ENDBRANCH   9  13
BRANCH   1  30
ATOM     29  C   UNL     1      -0.737  17.283  25.867  0.00  0.00    +0.000 C 
ATOM     30  O   UNL     1      -1.456  16.598  24.852  0.00  0.00    +0.000 OA
ENDBRANCH   1  30
BRANCH  11  31
ATOM     31  S   UNL     1       2.050  16.482  22.107  0.00  0.00    +0.000 S 
ATOM     32  C   UNL     1       2.003  17.249  20.470  0.00  0.00    +0.000 C 
ENDBRANCH  11  31
TORSDOF 4
ENDMDL
MODEL 3
REMARK VINA RESULT:      -6.6      4.991     10.561
REMARK  Name = 
REMARK  8 active torsions:
REMARK  status: ('A' for Active; 'I' for Inactive)
REMARK    1  A    between atoms: C_1  and  O_2
REMARK    2  A    between atoms: O_2  and  N_3
REMARK    3  A    between atoms: C_6  and  C_7
REMARK    4  A    between atoms: C_6  and  C_8
REMARK    5  A    between atoms: C_11  and  C_12
REMARK    6  A    between atoms: N_18  and  C_19
REMARK    7  A    between atoms: C_28  and  S_29
REMARK    8  A    between atoms: S_29  and  C_30
REMARK                            x       y       z     vdW  Elec       q    Type
REMARK                         _______ _______ _______ _____ _____    ______ ____
ROOT
ATOM      1  N   UNL     1      -0.931  16.084  19.795  0.00  0.00    +0.000 NA
ATOM      2  C   UNL     1      -0.182  15.046  19.561  0.00  0.00    +0.000 C 
ATOM      3  C   UNL     1       1.054  15.081  18.658  0.00  0.00    +0.000 C 
ATOM      4  C   UNL     1       2.215  14.261  19.253  0.00  0.00    +0.000 C 
ATOM      5  C   UNL     1       3.409  14.301  18.284  0.00  0.00    +0.000 C 
ATOM      6  C   UNL     1       2.666  14.856  20.604  0.00  0.00    +0.000 C 
ATOM      7  C   UNL     1       1.781  12.792  19.430  0.00  0.00    +0.000 C 
ATOM      8  C   UNL     1       0.460  12.648  20.138  0.00  0.00    +0.000 A 
ATOM      9  C   UNL     1      -0.009  11.504  20.763  0.00  0.00    +0.000 A 
ATOM     10  S   UNL     1      -1.611  11.726  21.318  0.00  0.00    +0.000 S 
ATOM     11  C   UNL     1      -1.662  13.368  20.839  0.00  0.00    +0.000 A 
ATOM     12  C   UNL     1      -0.507  13.745  20.172  0.00  0.00    +0.000 A 
ENDROOT
BRANCH   9  13
ATOM     13  C   UNL     1       0.729  10.186  20.915  0.00  0.00    +0.000 A 
ATOM     14  C   UNL     1       1.017   9.569  22.157  0.00  0.00    +0.000 A 
ATOM     15  C   UNL     1       1.542   8.347  21.837  0.00  0.00    +0.000 A 
ATOM     16  N   UNL     1       1.614   8.287  20.465  0.00  0.00    +0.000 N 
ATOM     17  C   UNL     1       2.030   7.164  19.715  0.00  0.00    +0.000 C 
ATOM     18  O   UNL     1       1.844   6.051  20.186  0.00  0.00    +0.000 OA
ATOM     19  N   UNL     1       2.770   7.523  18.596  0.00  0.00    +0.000 N 
ATOM     20  N   UNL     1       1.200   9.453  19.888  0.00  0.00    +0.000 NA
ATOM     21  H   UNL     1       3.025   8.504  18.519  0.00  0.00    +0.000 HD
BRANCH  19  22
ATOM     22  C   UNL     1       3.480   6.573  17.822  0.00  0.00    +0.000 A 
ATOM     23  C   UNL     1       3.179   5.207  17.869  0.00  0.00    +0.000 A 
ATOM     24  C   UNL     1       3.931   4.274  17.149  0.00  0.00    +0.000 A 
ATOM     25  C   UNL     1       5.001   4.707  16.376  0.00  0.00    +0.000 A 
ATOM     26 CL   UNL     1       5.955   3.558  15.521  0.00  0.00    +0.000 Cl
ATOM     27  C   UNL     1       5.305   6.066  16.299  0.00  0.00    +0.000 A 
ATOM     28  C   UNL     1       4.536   7.003  17.009  0.00  0.00    +0.000 A 
ENDBRANCH  19  22
ENDBRANCH   9  13
BRANCH   1  30
ATOM     29  C   UNL     1      -1.553  17.951  18.586  0.00  0.00    +0.000 C 
ATOM     30  O   UNL     1      -0.456  17.217  19.108  0.00  0.00    +0.000 OA
ENDBRANCH   1  30
BRANCH  11  31
ATOM     31  S   UNL     1      -3.119  14.304  21.172  0.00  0.00    +0.000 S 
ATOM     32  C   UNL     1      -4.353  13.248  20.376  0.00  0.00    +0.000 C 
ENDBRANCH  11  31
TORSDOF 4
ENDMDL
MODEL 4
REMARK VINA RESULT:      -6.5      4.809     10.592
REMARK  Name = 
REMARK  8 active torsions:
REMARK  status: ('A' for Active; 'I' for Inactive)
REMARK    1  A    between atoms: C_1  and  O_2
REMARK    2  A    between atoms: O_2  and  N_3
REMARK    3  A    between atoms: C_6  and  C_7
REMARK    4  A    between atoms: C_6  and  C_8
REMARK    5  A    between atoms: C_11  and  C_12
REMARK    6  A    between atoms: N_18  and  C_19
REMARK    7  A    between atoms: C_28  and  S_29
REMARK    8  A    between atoms: S_29  and  C_30
REMARK                            x       y       z     vdW  Elec       q    Type
REMARK                         _______ _______ _______ _____ _____    ______ ____
ROOT
ATOM      1  N   UNL     1      -4.797  13.905  20.154  0.00  0.00    +0.000 NA
ATOM      2  C   UNL     1      -3.613  13.541  20.554  0.00  0.00    +0.000 C 
ATOM      3  C   UNL     1      -2.841  14.251  21.668  0.00  0.00    +0.000 C 
ATOM      4  C   UNL     1      -2.127  13.247  22.592  0.00  0.00    +0.000 C 
ATOM      5  C   UNL     1      -1.337  14.019  23.663  0.00  0.00    +0.000 C 
ATOM      6  C   UNL     1      -3.150  12.339  23.306  0.00  0.00    +0.000 C 
ATOM      7  C   UNL     1      -1.133  12.397  21.774  0.00  0.00    +0.000 C 
ATOM      8  C   UNL     1      -1.744  11.808  20.531  0.00  0.00    +0.000 A 
ATOM      9  C   UNL     1      -1.249  10.735  19.809  0.00  0.00    +0.000 A 
ATOM     10  S   UNL     1      -2.166  10.479  18.389  0.00  0.00    +0.000 S 
ATOM     11  C   UNL     1      -3.293  11.710  18.769  0.00  0.00    +0.000 A 
ATOM     12  C   UNL     1      -2.941  12.391  19.923  0.00  0.00    +0.000 A 
ENDROOT
BRANCH   9  13
ATOM     13  C   UNL     1      -0.029   9.898  20.151  0.00  0.00    +0.000 A 
ATOM     14  C   UNL     1       0.637   9.927  21.400  0.00  0.00    +0.000 A 
ATOM     15  C   UNL     1       1.566   8.924  21.335  0.00  0.00    +0.000 A 
ATOM     16  N   UNL     1       1.483   8.381  20.074  0.00  0.00    +0.000 N 
ATOM     17  C   UNL     1       2.219   7.266  19.613  0.00  0.00    +0.000 C 
ATOM     18  O   UNL     1       2.558   6.419  20.427  0.00  0.00    +0.000 OA
ATOM     19  N   UNL     1       2.604   7.402  18.285  0.00  0.00    +0.000 N 
ATOM     20  N   UNL     1       0.565   9.035  19.303  0.00  0.00    +0.000 NA
ATOM     21  H   UNL     1       2.430   8.307  17.856  0.00  0.00    +0.000 HD
BRANCH  19  22
ATOM     22  C   UNL     1       3.533   6.526  17.674  0.00  0.00    +0.000 A 
ATOM     23  C   UNL     1       4.710   6.993  17.079  0.00  0.00    +0.000 A 
ATOM     24  C   UNL     1       5.586   6.123  16.424  0.00  0.00    +0.000 A 
ATOM     25  C   UNL     1       5.281   4.769  16.355  0.00  0.00    +0.000 A 
ATOM     26 CL   UNL     1       6.336   3.700  15.513  0.00  0.00    +0.000 Cl
ATOM     27  C   UNL     1       4.124   4.280  16.959  0.00  0.00    +0.000 A 
ATOM     28  C   UNL     1       3.255   5.154  17.634  0.00  0.00    +0.000 A 
ENDBRANCH  19  22
ENDBRANCH   9  13
BRANCH   1  30
ATOM     29  C   UNL     1      -6.391  14.670  21.641  0.00  0.00    +0.000 C 
ATOM     30  O   UNL     1      -5.252  15.027  20.874  0.00  0.00    +0.000 OA
ENDBRANCH   1  30
BRANCH  11  31
ATOM     31  S   UNL     1      -4.646  11.990  17.672  0.00  0.00    +0.000 S 
ATOM     32  C   UNL     1      -5.873  10.883  18.408  0.00  0.00    +0.000 C 
ENDBRANCH  11  31
TORSDOF 4
ENDMDL
MODEL 5
REMARK VINA RESULT:      -6.2      4.955     10.760
REMARK  Name = 
REMARK  8 active torsions:
REMARK  status: ('A' for Active; 'I' for Inactive)
REMARK    1  A    between atoms: C_1  and  O_2
REMARK    2  A    between atoms: O_2  and  N_3
REMARK    3  A    between atoms: C_6  and  C_7
REMARK    4  A    between atoms: C_6  and  C_8
REMARK    5  A    between atoms: C_11  and  C_12
REMARK    6  A    between atoms: N_18  and  C_19
REMARK    7  A    between atoms: C_28  and  S_29
REMARK    8  A    between atoms: S_29  and  C_30
REMARK                            x       y       z     vdW  Elec       q    Type
REMARK                         _______ _______ _______ _____ _____    ______ ____
ROOT
ATOM      1  N   UNL     1      -1.589  16.303  19.822  0.00  0.00    +0.000 NA
ATOM      2  C   UNL     1      -0.748  15.323  19.666  0.00  0.00    +0.000 C 
ATOM      3  C   UNL     1       0.572  15.455  18.902  0.00  0.00    +0.000 C 
ATOM      4  C   UNL     1       1.717  14.711  19.616  0.00  0.00    +0.000 C 
ATOM      5  C   UNL     1       3.003  14.845  18.782  0.00  0.00    +0.000 C 
ATOM      6  C   UNL     1       1.977  15.321  21.010  0.00  0.00    +0.000 C 
ATOM      7  C   UNL     1       1.372  13.213  19.741  0.00  0.00    +0.000 C 
ATOM      8  C   UNL     1      -0.004  12.969  20.301  0.00  0.00    +0.000 A 
ATOM      9  C   UNL     1      -0.455  11.789  20.868  0.00  0.00    +0.000 A 
ATOM     10  S   UNL     1      -2.119  11.891  21.247  0.00  0.00    +0.000 S 
ATOM     11  C   UNL     1      -2.234  13.532  20.771  0.00  0.00    +0.000 A 
ATOM     12  C   UNL     1      -1.044  13.995  20.234  0.00  0.00    +0.000 A 
ENDROOT
BRANCH   9  13
ATOM     13  C   UNL     1       0.354  10.524  21.094  0.00  0.00    +0.000 A 
ATOM     14  C   UNL     1       0.710  10.020  22.369  0.00  0.00    +0.000 A 
ATOM     15  C   UNL     1       1.287   8.803  22.124  0.00  0.00    +0.000 A 
ATOM     16  N   UNL     1       1.321   8.642  20.759  0.00  0.00    +0.000 N 
ATOM     17  C   UNL     1       1.771   7.485  20.082  0.00  0.00    +0.000 C 
ATOM     18  O   UNL     1       1.656   6.404  20.643  0.00  0.00    +0.000 OA
ATOM     19  N   UNL     1       2.458   7.792  18.915  0.00  0.00    +0.000 N 
ATOM     20  N   UNL     1       0.831   9.738  20.109  0.00  0.00    +0.000 NA
ATOM     21  H   UNL     1       2.660   8.775  18.755  0.00  0.00    +0.000 HD
BRANCH  19  22
ATOM     22  C   UNL     1       3.192   6.821  18.192  0.00  0.00    +0.000 A 
ATOM     23  C   UNL     1       4.386   7.133  17.535  0.00  0.00    +0.000 A 
ATOM     24  C   UNL     1       5.066   6.179  16.772  0.00  0.00    +0.000 A 
ATOM     25  C   UNL     1       4.543   4.897  16.656  0.00  0.00    +0.000 A 
ATOM     26 CL   UNL     1       5.354   3.730  15.684  0.00  0.00    +0.000 Cl
ATOM     27  C   UNL     1       3.365   4.559  17.320  0.00  0.00    +0.000 A 
ATOM     28  C   UNL     1       2.694   5.514  18.102  0.00  0.00    +0.000 A 
ENDBRANCH  19  22
ENDBRANCH   9  13
BRANCH   1  30
ATOM     29  C   UNL     1      -2.229  18.231  18.721  0.00  0.00    +0.000 C 
ATOM     30  O   UNL     1      -1.125  17.475  19.194  0.00  0.00    +0.000 OA
ENDBRANCH   1  30
BRANCH  11  31
ATOM     31  S   UNL     1      -3.782  14.359  20.949  0.00  0.00    +0.000 S 
ATOM     32  C   UNL     1      -4.547  13.316  22.213  0.00  0.00    +0.000 C 
ENDBRANCH  11  31
TORSDOF 4
ENDMDL
MODEL 6
REMARK VINA RESULT:      -6.1      5.395     10.413
REMARK  Name = 
REMARK  8 active torsions:
REMARK  status: ('A' for Active; 'I' for Inactive)
REMARK    1  A    between atoms: C_1  and  O_2
REMARK    2  A    between atoms: O_2  and  N_3
REMARK    3  A    between atoms: C_6  and  C_7
REMARK    4  A    between atoms: C_6  and  C_8
REMARK    5  A    between atoms: C_11  and  C_12
REMARK    6  A    between atoms: N_18  and  C_19
REMARK    7  A    between atoms: C_28  and  S_29
REMARK    8  A    between atoms: S_29  and  C_30
REMARK                            x       y       z     vdW  Elec       q    Type
REMARK                         _______ _______ _______ _____ _____    ______ ____
ROOT
ATOM      1  N   UNL     1      -5.720  13.053  18.034  0.00  0.00    +0.000 NA
ATOM      2  C   UNL     1      -4.835  12.103  18.127  0.00  0.00    +0.000 C 
ATOM      3  C   UNL     1      -4.775  10.908  17.175  0.00  0.00    +0.000 C 
ATOM      4  C   UNL     1      -3.323  10.558  16.794  0.00  0.00    +0.000 C 
ATOM      5  C   UNL     1      -3.326   9.326  15.872  0.00  0.00    +0.000 C 
ATOM      6  C   UNL     1      -2.660  11.728  16.039  0.00  0.00    +0.000 C 
ATOM      7  C   UNL     1      -2.518  10.212  18.064  0.00  0.00    +0.000 C 
ATOM      8  C   UNL     1      -2.670  11.237  19.156  0.00  0.00    +0.000 A 
ATOM      9  C   UNL     1      -1.819  11.411  20.234  0.00  0.00    +0.000 A 
ATOM     10  S   UNL     1      -2.431  12.588  21.312  0.00  0.00    +0.000 S 
ATOM     11  C   UNL     1      -3.769  12.961  20.311  0.00  0.00    +0.000 A 
ATOM     12  C   UNL     1      -3.821  12.139  19.197  0.00  0.00    +0.000 A 
ENDROOT
BRANCH   9  13
ATOM     13  C   UNL     1      -0.534  10.650  20.507  0.00  0.00    +0.000 A 
ATOM     14  C   UNL     1       0.313  10.881  21.619  0.00  0.00    +0.000 A 
ATOM     15  C   UNL     1       1.254   9.889  21.565  0.00  0.00    +0.000 A 
ATOM     16  N   UNL     1       1.000   9.155  20.431  0.00  0.00    +0.000 N 
ATOM     17  C   UNL     1       1.695   7.989  20.038  0.00  0.00    +0.000 C 
ATOM     18  O   UNL     1       2.182   7.283  20.910  0.00  0.00    +0.000 OA
ATOM     19  N   UNL     1       1.870   7.919  18.662  0.00  0.00    +0.000 N 
ATOM     20  N   UNL     1      -0.046   9.671  19.721  0.00  0.00    +0.000 NA
ATOM     21  H   UNL     1       1.602   8.743  18.131  0.00  0.00    +0.000 HD
BRANCH  19  22
ATOM     22  C   UNL     1       2.726   6.967  18.056  0.00  0.00    +0.000 A 
ATOM     23  C   UNL     1       2.429   5.600  18.056  0.00  0.00    +0.000 A 
ATOM     24  C   UNL     1       3.315   4.666  17.510  0.00  0.00    +0.000 A 
ATOM     25  C   UNL     1       4.516   5.100  16.964  0.00  0.00    +0.000 A 
ATOM     26 CL   UNL     1       5.628   3.950  16.329  0.00  0.00    +0.000 Cl
ATOM     27  C   UNL     1       4.822   6.460  16.936  0.00  0.00    +0.000 A 
ATOM     28  C   UNL     1       3.921   7.398  17.467  0.00  0.00    +0.000 A 
ENDBRANCH  19  22
ENDBRANCH   9  13
BRANCH   1  30
ATOM     29  C   UNL     1      -7.150  14.056  16.522  0.00  0.00    +0.000 C 
ATOM     30  O   UNL     1      -6.599  12.823  16.959  0.00  0.00    +0.000 OA
ENDBRANCH   1  30
BRANCH  11  31
ATOM     31  S   UNL     1      -4.887  14.225  20.825  0.00  0.00    +0.000 S 
ATOM     32  C   UNL     1      -4.481  14.298  22.586  0.00  0.00    +0.000 C 
ENDBRANCH  11  31
TORSDOF 4
ENDMDL
MODEL 7
REMARK VINA RESULT:      -6.1      4.713     10.529
REMARK  Name = 
REMARK  8 active torsions:
REMARK  status: ('A' for Active; 'I' for Inactive)
REMARK    1  A    between atoms: C_1  and  O_2
REMARK    2  A    between atoms: O_2  and  N_3
REMARK    3  A    between atoms: C_6  and  C_7
REMARK    4  A    between atoms: C_6  and  C_8
REMARK    5  A    between atoms: C_11  and  C_12
REMARK    6  A    between atoms: N_18  and  C_19
REMARK    7  A    between atoms: C_28  and  S_29
REMARK    8  A    between atoms: S_29  and  C_30
REMARK                            x       y       z     vdW  Elec       q    Type
REMARK                         _______ _______ _______ _____ _____    ______ ____
ROOT
ATOM      1  N   UNL     1       0.006  16.403  22.883  0.00  0.00    +0.000 NA
ATOM      2  C   UNL     1       0.267  15.696  21.822  0.00  0.00    +0.000 C 
ATOM      3  C   UNL     1       0.994  16.251  20.596  0.00  0.00    +0.000 C 
ATOM      4  C   UNL     1       2.007  15.237  20.030  0.00  0.00    +0.000 C 
ATOM      5  C   UNL     1       2.673  15.833  18.777  0.00  0.00    +0.000 C 
ATOM      6  C   UNL     1       3.108  14.930  21.066  0.00  0.00    +0.000 C 
ATOM      7  C   UNL     1       1.277  13.941  19.621  0.00  0.00    +0.000 C 
ATOM      8  C   UNL     1       0.366  13.412  20.697  0.00  0.00    +0.000 A 
ATOM      9  C   UNL     1      -0.122  12.119  20.788  0.00  0.00    +0.000 A 
ATOM     10  S   UNL     1      -1.233  11.977  22.079  0.00  0.00    +0.000 S 
ATOM     11  C   UNL     1      -0.996  13.590  22.601  0.00  0.00    +0.000 A 
ATOM     12  C   UNL     1      -0.148  14.284  21.754  0.00  0.00    +0.000 A 
ENDROOT
BRANCH   9  13
ATOM     13  C   UNL     1       0.202  10.960  19.864  0.00  0.00    +0.000 A 
ATOM     14  C   UNL     1      -0.251  10.851  18.526  0.00  0.00    +0.000 A 
ATOM     15  C   UNL     1       0.391   9.755  18.018  0.00  0.00    +0.000 A 
ATOM     16  N   UNL     1       1.134   9.215  19.040  0.00  0.00    +0.000 N 
ATOM     17  C   UNL     1       2.010   8.112  18.921  0.00  0.00    +0.000 C 
ATOM     18  O   UNL     1       2.552   7.915  17.842  0.00  0.00    +0.000 OA
ATOM     19  N   UNL     1       1.981   7.293  20.043  0.00  0.00    +0.000 N 
ATOM     20  N   UNL     1       0.955   9.897  20.209  0.00  0.00    +0.000 NA
ATOM     21  H   UNL     1       1.268   7.503  20.736  0.00  0.00    +0.000 HD
BRANCH  19  22
ATOM     22  C   UNL     1       2.597   6.018  20.064  0.00  0.00    +0.000 A 
ATOM     23  C   UNL     1       3.771   5.751  19.353  0.00  0.00    +0.000 A 
ATOM     24  C   UNL     1       4.332   4.471  19.333  0.00  0.00    +0.000 A 
ATOM     25  C   UNL     1       3.708   3.440  20.024  0.00  0.00    +0.000 A 
ATOM     26 CL   UNL     1       4.371   1.852  19.968  0.00  0.00    +0.000 Cl
ATOM     27  C   UNL     1       2.548   3.689  20.756  0.00  0.00    +0.000 A 
ATOM     28  C   UNL     1       1.998   4.981  20.791  0.00  0.00    +0.000 A 
ENDBRANCH  19  22
ENDBRANCH   9  13
BRANCH   1  30
ATOM     29  C   UNL     1       1.118  18.133  23.936  0.00  0.00    +0.000 C 
ATOM     30  O   UNL     1       0.472  17.724  22.740  0.00  0.00    +0.000 OA
ENDBRANCH   1  30
BRANCH  11  31
ATOM     31  S   UNL     1      -1.864  14.157  24.028  0.00  0.00    +0.000 S 
ATOM     32  C   UNL     1      -3.364  13.154  23.896  0.00  0.00    +0.000 C 
ENDBRANCH  11  31
TORSDOF 4
ENDMDL
MODEL 8
REMARK VINA RESULT:      -6.1      4.666     10.325
REMARK  Name = 
REMARK  8 active torsions:
REMARK  status: ('A' for Active; 'I' for Inactive)
REMARK    1  A    between atoms: C_1  and  O_2
REMARK    2  A    between atoms: O_2  and  N_3
REMARK    3  A    between atoms: C_6  and  C_7
REMARK    4  A    between atoms: C_6  and  C_8
REMARK    5  A    between atoms: C_11  and  C_12
REMARK    6  A    between atoms: N_18  and  C_19
REMARK    7  A    between atoms: C_28  and  S_29
REMARK    8  A    between atoms: S_29  and  C_30
REMARK                            x       y       z     vdW  Elec       q    Type
REMARK                         _______ _______ _______ _____ _____    ______ ____
ROOT
ATOM      1  N   UNL     1       0.148  15.574  23.086  0.00  0.00    +0.000 NA
ATOM      2  C   UNL     1       0.599  15.028  21.994  0.00  0.00    +0.000 C 
ATOM      3  C   UNL     1       1.480  15.764  20.983  0.00  0.00    +0.000 C 
ATOM      4  C   UNL     1       2.611  14.861  20.453  0.00  0.00    +0.000 C 
ATOM      5  C   UNL     1       3.434  15.641  19.412  0.00  0.00    +0.000 C 
ATOM      6  C   UNL     1       3.553  14.438  21.599  0.00  0.00    +0.000 C 
ATOM      7  C   UNL     1       2.009  13.619  19.764  0.00  0.00    +0.000 C 
ATOM      8  C   UNL     1       0.968  12.926  20.602  0.00  0.00    +0.000 A 
ATOM      9  C   UNL     1       0.528  11.623  20.441  0.00  0.00    +0.000 A 
ATOM     10  S   UNL     1      -0.760  11.277  21.510  0.00  0.00    +0.000 S 
ATOM     11  C   UNL     1      -0.676  12.807  22.274  0.00  0.00    +0.000 A 
ATOM     12  C   UNL     1       0.261  13.630  21.672  0.00  0.00    +0.000 A 
ENDROOT
BRANCH   9  13
ATOM     13  C   UNL     1       1.041  10.610  19.432  0.00  0.00    +0.000 A 
ATOM     14  C   UNL     1       1.197  10.869  18.048  0.00  0.00    +0.000 A 
ATOM     15  C   UNL     1       1.823   9.760  17.545  0.00  0.00    +0.000 A 
ATOM     16  N   UNL     1       1.962   8.871  18.584  0.00  0.00    +0.000 N 
ATOM     17  C   UNL     1       2.626   7.625  18.512  0.00  0.00    +0.000 C 
ATOM     18  O   UNL     1       3.543   7.502  17.713  0.00  0.00    +0.000 OA
ATOM     19  N   UNL     1       1.992   6.647  19.269  0.00  0.00    +0.000 N 
ATOM     20  N   UNL     1       1.400   9.348  19.734  0.00  0.00    +0.000 NA
ATOM     21  H   UNL     1       1.091   6.897  19.666  0.00  0.00    +0.000 HD
BRANCH  19  22
ATOM     22  C   UNL     1       2.338   5.277  19.175  0.00  0.00    +0.000 A 
ATOM     23  C   UNL     1       3.050   4.622  20.186  0.00  0.00    +0.000 A 
ATOM     24  C   UNL     1       3.439   3.287  20.050  0.00  0.00    +0.000 A 
ATOM     25  C   UNL     1       3.122   2.596  18.887  0.00  0.00    +0.000 A 
ATOM     26 CL   UNL     1       3.636   0.964  18.697  0.00  0.00    +0.000 Cl
ATOM     27  C   UNL     1       2.396   3.224  17.876  0.00  0.00    +0.000 A 
ATOM     28  C   UNL     1       1.988   4.560  18.023  0.00  0.00    +0.000 A 
ENDBRANCH  19  22
ENDBRANCH   9  13
BRANCH   1  30
ATOM     29  C   UNL     1       0.885  17.202  24.550  0.00  0.00    +0.000 C 
ATOM     30  O   UNL     1       0.573  16.913  23.196  0.00  0.00    +0.000 OA
ENDBRANCH   1  30
BRANCH  11  31
ATOM     31  S   UNL     1      -1.776  13.150  23.610  0.00  0.00    +0.000 S 
ATOM     32  C   UNL     1      -3.251  12.282  23.025  0.00  0.00    +0.000 C 
ENDBRANCH  11  31
TORSDOF 4
ENDMDL
MODEL 9
REMARK VINA RESULT:      -6.1      4.777     10.880
REMARK  Name = 
REMARK  8 active torsions:
REMARK  status: ('A' for Active; 'I' for Inactive)
REMARK    1  A    between atoms: C_1  and  O_2
REMARK    2  A    between atoms: O_2  and  N_3
REMARK    3  A    between atoms: C_6  and  C_7
REMARK    4  A    between atoms: C_6  and  C_8
REMARK    5  A    between atoms: C_11  and  C_12
REMARK    6  A    between atoms: N_18  and  C_19
REMARK    7  A    between atoms: C_28  and  S_29
REMARK    8  A    between atoms: S_29  and  C_30
REMARK                            x       y       z     vdW  Elec       q    Type
REMARK                         _______ _______ _______ _____ _____    ______ ____
ROOT
ATOM      1  N   UNL     1      -2.180  16.878  24.313  0.00  0.00    +0.000 NA
ATOM      2  C   UNL     1      -2.173  15.636  23.925  0.00  0.00    +0.000 C 
ATOM      3  C   UNL     1      -2.889  14.512  24.677  0.00  0.00    +0.000 C 
ATOM      4  C   UNL     1      -3.588  13.538  23.710  0.00  0.00    +0.000 C 
ATOM      5  C   UNL     1      -4.251  12.410  24.521  0.00  0.00    +0.000 C 
ATOM      6  C   UNL     1      -4.683  14.263  22.902  0.00  0.00    +0.000 C 
ATOM      7  C   UNL     1      -2.549  12.906  22.761  0.00  0.00    +0.000 C 
ATOM      8  C   UNL     1      -1.647  13.923  22.113  0.00  0.00    +0.000 A 
ATOM      9  C   UNL     1      -0.889  13.729  20.970  0.00  0.00    +0.000 A 
ATOM     10  S   UNL     1       0.099  15.088  20.655  0.00  0.00    +0.000 S 
ATOM     11  C   UNL     1      -0.545  15.991  21.959  0.00  0.00    +0.000 A 
ATOM     12  C   UNL     1      -1.445  15.246  22.704  0.00  0.00    +0.000 A 
ENDROOT
BRANCH   9  13
ATOM     13  C   UNL     1      -0.855  12.482  20.105  0.00  0.00    +0.000 A 
ATOM     14  C   UNL     1      -1.789  12.192  19.080  0.00  0.00    +0.000 A 
ATOM     15  C   UNL     1      -1.305  11.072  18.461  0.00  0.00    +0.000 A 
ATOM     16  N   UNL     1      -0.173  10.693  19.143  0.00  0.00    +0.000 N 
ATOM     17  C   UNL     1       0.679   9.623  18.784  0.00  0.00    +0.000 C 
ATOM     18  O   UNL     1       0.765   9.321  17.602  0.00  0.00    +0.000 OA
ATOM     19  N   UNL     1       1.168   8.946  19.894  0.00  0.00    +0.000 N 
ATOM     20  N   UNL     1       0.064  11.502  20.216  0.00  0.00    +0.000 NA
ATOM     21  H   UNL     1       0.772   9.207  20.793  0.00  0.00    +0.000 HD
BRANCH  19  22
ATOM     22  C   UNL     1       1.853   7.711  19.785  0.00  0.00    +0.000 A 
ATOM     23  C   UNL     1       2.801   7.477  18.783  0.00  0.00    +0.000 A 
ATOM     24  C   UNL     1       3.421   6.231  18.649  0.00  0.00    +0.000 A 
ATOM     25  C   UNL     1       3.087   5.203  19.521  0.00  0.00    +0.000 A 
ATOM     26 CL   UNL     1       3.817   3.655  19.334  0.00  0.00    +0.000 Cl
ATOM     27  C   UNL     1       2.160   5.421  20.539  0.00  0.00    +0.000 A 
ATOM     28  C   UNL     1       1.552   6.680  20.684  0.00  0.00    +0.000 A 
ENDBRANCH  19  22
ENDBRANCH   9  13
BRANCH   1  30
ATOM     29  C   UNL     1      -3.899  18.044  25.324  0.00  0.00    +0.000 C 
ATOM     30  O   UNL     1      -2.917  17.034  25.502  0.00  0.00    +0.000 OA
ENDBRANCH   1  30
BRANCH  11  31
ATOM     31  S   UNL     1       0.034  17.636  22.220  0.00  0.00    +0.000 S 
ATOM     32  C   UNL     1       1.351  17.314  23.418  0.00  0.00    +0.000 C 
ENDBRANCH  11  31
TORSDOF 4
ENDMDL
