MODEL 1
REMARK VINA RESULT:      -9.5      0.000      0.000
REMARK  Name = 
REMARK  6 active torsions:
REMARK  status: ('A' for Active; 'I' for Inactive)
REMARK    1  A    between atoms: S_2  and  C_4
REMARK    2  A    between atoms: S_2  and  C_10
REMARK    3  A    between atoms: C_12  and  N_13
REMARK    4  A    between atoms: C_16  and  C_17
REMARK    5  A    between atoms: N_27  and  C_28
REMARK    6  A    between atoms: C_31  and  O_32
REMARK                            x       y       z     vdW  Elec       q    Type
REMARK                         _______ _______ _______ _____ _____    ______ ____
ROOT
ATOM      1  C   UNL     1       2.101   8.054  18.028  0.00  0.00    +0.000 A 
ATOM      2  C   UNL     1       3.446   8.014  17.685  0.00  0.00    +0.000 A 
ATOM      3  C   UNL     1       4.041   6.772  17.511  0.00  0.00    +0.000 A 
ATOM      4  N   UNL     1       3.343   5.615  17.681  0.00  0.00    +0.000 NA
ATOM      5  C   UNL     1       2.040   5.673  18.020  0.00  0.00    +0.000 A 
ATOM      6  N   UNL     1       1.271   4.532  18.247  0.00  0.00    +0.000 N 
ATOM      7  C   UNL     1       1.376   6.880  18.158  0.00  0.00    +0.000 A 
ATOM      8  H   UNL     1       0.667   4.367  17.446  0.00  0.00    +0.000 HD
ENDROOT
BRANCH   3   9
ATOM      9  N   UNL     1       5.405   6.756  17.139  0.00  0.00    +0.000 N 
ATOM     10  C   UNL     1       5.993   5.906  16.271  0.00  0.00    +0.000 A 
ATOM     11  C   UNL     1       5.381   5.461  15.082  0.00  0.00    +0.000 A 
ATOM     12  C   UNL     1       6.289   4.624  14.468  0.00  0.00    +0.000 A 
ATOM     13  N   UNL     1       7.381   4.649  15.300  0.00  0.00    +0.000 N 
ATOM     14  N   UNL     1       7.244   5.455  16.370  0.00  0.00    +0.000 NA
ATOM     15  H   UNL     1       5.998   7.064  17.900  0.00  0.00    +0.000 HD
ATOM     16  H   UNL     1       8.248   4.138  15.196  0.00  0.00    +0.000 HD
BRANCH  12  17
ATOM     17  C   UNL     1       6.184   3.849  13.236  0.00  0.00    +0.000 A 
ATOM     18  C   UNL     1       4.947   3.460  12.709  0.00  0.00    +0.000 A 
ATOM     19  C   UNL     1       4.882   2.674  11.554  0.00  0.00    +0.000 A 
ATOM     20  C   UNL     1       6.052   2.271  10.912  0.00  0.00    +0.000 A 
ATOM     21  C   UNL     1       7.288   2.664  11.415  0.00  0.00    +0.000 A 
ATOM     22  C   UNL     1       7.352   3.446  12.568  0.00  0.00    +0.000 A 
ENDBRANCH  12  17
ENDBRANCH   3   9
BRANCH   6  23
ATOM     23  C   UNL     1       1.853   3.314  18.809  0.00  0.00    +0.000 C 
ATOM     24  C   UNL     1       2.861   2.698  17.818  0.00  0.00    +0.000 C 
ATOM     25  C   UNL     1       3.756   1.636  18.450  0.00  0.00    +0.000 C 
ATOM     26  C   UNL     1       4.490   2.185  19.668  0.00  0.00    +0.000 C 
ATOM     27  C   UNL     1       3.495   2.699  20.701  0.00  0.00    +0.000 C 
ATOM     28  C   UNL     1       2.574   3.755  20.106  0.00  0.00    +0.000 C 
BRANCH  26  29
ATOM     29  O   UNL     1       5.306   1.175  20.244  0.00  0.00    +0.000 OA
ATOM     30  H   UNL     1       5.801   1.565  20.986  0.00  0.00    +0.000 HD
ENDBRANCH  26  29
ENDBRANCH   6  23
BRANCH   1  32
ATOM     31  O   UNL     1       0.062   9.549  17.559  0.00  0.00    +0.000 OA
ATOM     32  S   UNL     1       1.294   9.593  18.325  0.00  0.00    +0.000 S 
ATOM     33  O   UNL     1       2.270  10.649  18.098  0.00  0.00    +0.000 OA
BRANCH  32  34
ATOM     34  C   UNL     1       0.865   9.685  20.052  0.00  0.00    +0.000 A 
ATOM     35  C   UNL     1       1.478   8.825  20.970  0.00  0.00    +0.000 A 
ATOM     36  C   UNL     1       1.079   8.849  22.309  0.00  0.00    +0.000 A 
ATOM     37  C   UNL     1       0.075   9.725  22.725  0.00  0.00    +0.000 A 
ATOM     38  C   UNL     1      -0.531  10.585  21.806  0.00  0.00    +0.000 A 
ATOM     39  C   UNL     1      -0.140  10.567  20.466  0.00  0.00    +0.000 A 
ENDBRANCH  32  34
ENDBRANCH   1  32
TORSDOF 6
ENDMDL
MODEL 2
REMARK VINA RESULT:      -9.4      0.083      1.158
REMARK  Name = 
REMARK  6 active torsions:
REMARK  status: ('A' for Active; 'I' for Inactive)
REMARK    1  A    between atoms: S_2  and  C_4
REMARK    2  A    between atoms: S_2  and  C_10
REMARK    3  A    between atoms: C_12  and  N_13
REMARK    4  A    between atoms: C_16  and  C_17
REMARK    5  A    between atoms: N_27  and  C_28
REMARK    6  A    between atoms: C_31  and  O_32
REMARK                            x       y       z     vdW  Elec       q    Type
REMARK                         _______ _______ _______ _____ _____    ______ ____
ROOT
ATOM      1  C   UNL     1       2.071   8.083  18.052  0.00  0.00    +0.000 A 
ATOM      2  C   UNL     1       3.418   8.056  17.715  0.00  0.00    +0.000 A 
ATOM      3  C   UNL     1       4.022   6.820  17.532  0.00  0.00    +0.000 A 
ATOM      4  N   UNL     1       3.331   5.656  17.687  0.00  0.00    +0.000 NA
ATOM      5  C   UNL     1       2.026   5.703  18.020  0.00  0.00    +0.000 A 
ATOM      6  N   UNL     1       1.263   4.555  18.233  0.00  0.00    +0.000 N 
ATOM      7  C   UNL     1       1.354   6.904  18.167  0.00  0.00    +0.000 A 
ATOM      8  H   UNL     1       0.664   4.394  17.427  0.00  0.00    +0.000 HD
ENDROOT
BRANCH   3   9
ATOM      9  N   UNL     1       5.389   6.815  17.166  0.00  0.00    +0.000 N 
ATOM     10  C   UNL     1       5.991   5.961  16.313  0.00  0.00    +0.000 A 
ATOM     11  C   UNL     1       5.390   5.492  15.128  0.00  0.00    +0.000 A 
ATOM     12  C   UNL     1       6.312   4.658  14.530  0.00  0.00    +0.000 A 
ATOM     13  N   UNL     1       7.399   4.708  15.366  0.00  0.00    +0.000 N 
ATOM     14  N   UNL     1       7.247   5.528  16.424  0.00  0.00    +0.000 NA
ATOM     15  H   UNL     1       5.974   7.142  17.925  0.00  0.00    +0.000 HD
ATOM     16  H   UNL     1       8.273   4.207  15.274  0.00  0.00    +0.000 HD
BRANCH  12  17
ATOM     17  C   UNL     1       6.222   3.864  13.308  0.00  0.00    +0.000 A 
ATOM     18  C   UNL     1       7.359   3.484  12.585  0.00  0.00    +0.000 A 
ATOM     19  C   UNL     1       7.235   2.768  11.392  0.00  0.00    +0.000 A 
ATOM     20  C   UNL     1       5.975   2.420  10.908  0.00  0.00    +0.000 A 
ATOM     21  C   UNL     1       4.837   2.777  11.623  0.00  0.00    +0.000 A 
ATOM     22  C   UNL     1       4.960   3.493  12.813  0.00  0.00    +0.000 A 
ENDBRANCH  12  17
ENDBRANCH   3   9
BRANCH   6  23
ATOM     23  C   UNL     1       1.850   3.335  18.786  0.00  0.00    +0.000 C 
ATOM     24  C   UNL     1       2.895   2.756  17.810  0.00  0.00    +0.000 C 
ATOM     25  C   UNL     1       3.791   1.697  18.446  0.00  0.00    +0.000 C 
ATOM     26  C   UNL     1       4.482   2.232  19.694  0.00  0.00    +0.000 C 
ATOM     27  C   UNL     1       3.450   2.708  20.709  0.00  0.00    +0.000 C 
ATOM     28  C   UNL     1       2.528   3.761  20.111  0.00  0.00    +0.000 C 
BRANCH  26  29
ATOM     29  O   UNL     1       5.298   1.223  20.271  0.00  0.00    +0.000 OA
ATOM     30  H   UNL     1       5.975   0.966  19.620  0.00  0.00    +0.000 HD
ENDBRANCH  26  29
ENDBRANCH   6  23
BRANCH   1  32
ATOM     31  O   UNL     1       0.058   9.597  17.538  0.00  0.00    +0.000 OA
ATOM     32  S   UNL     1       1.254   9.615  18.360  0.00  0.00    +0.000 S 
ATOM     33  O   UNL     1       2.240  10.675  18.210  0.00  0.00    +0.000 OA
BRANCH  32  34
ATOM     34  C   UNL     1       0.747   9.654  20.068  0.00  0.00    +0.000 A 
ATOM     35  C   UNL     1      -0.271  10.524  20.474  0.00  0.00    +0.000 A 
ATOM     36  C   UNL     1      -0.609  10.604  21.827  0.00  0.00    +0.000 A 
ATOM     37  C   UNL     1       0.066   9.823  22.766  0.00  0.00    +0.000 A 
ATOM     38  C   UNL     1       1.079   8.952  22.355  0.00  0.00    +0.000 A 
ATOM     39  C   UNL     1       1.424   8.865  21.005  0.00  0.00    +0.000 A 
ENDBRANCH  32  34
ENDBRANCH   1  32
TORSDOF 6
ENDMDL
MODEL 3
REMARK VINA RESULT:      -9.3      4.716      8.418
REMARK  Name = 
REMARK  6 active torsions:
REMARK  status: ('A' for Active; 'I' for Inactive)
REMARK    1  A    between atoms: S_2  and  C_4
REMARK    2  A    between atoms: S_2  and  C_10
REMARK    3  A    between atoms: C_12  and  N_13
REMARK    4  A    between atoms: C_16  and  C_17
REMARK    5  A    between atoms: N_27  and  C_28
REMARK    6  A    between atoms: C_31  and  O_32
REMARK                            x       y       z     vdW  Elec       q    Type
REMARK                         _______ _______ _______ _____ _____    ______ ____
ROOT
ATOM      1  C   UNL     1      -1.512  11.151  18.499  0.00  0.00    +0.000 A 
ATOM      2  C   UNL     1      -0.896  10.188  19.287  0.00  0.00    +0.000 A 
ATOM      3  C   UNL     1       0.170  10.580  20.084  0.00  0.00    +0.000 A 
ATOM      4  N   UNL     1       0.621  11.865  20.095  0.00  0.00    +0.000 NA
ATOM      5  C   UNL     1       0.014  12.784  19.319  0.00  0.00    +0.000 A 
ATOM      6  N   UNL     1       0.442  14.110  19.250  0.00  0.00    +0.000 N 
ATOM      7  C   UNL     1      -1.087  12.469  18.541  0.00  0.00    +0.000 A 
ATOM      8  H   UNL     1      -0.190  14.697  19.787  0.00  0.00    +0.000 HD
ENDROOT
BRANCH   3   9
ATOM      9  N   UNL     1       0.769   9.588  20.897  0.00  0.00    +0.000 N 
ATOM     10  C   UNL     1       1.326   8.433  20.478  0.00  0.00    +0.000 A 
ATOM     11  C   UNL     1       2.093   8.320  19.301  0.00  0.00    +0.000 A 
ATOM     12  C   UNL     1       2.492   7.002  19.223  0.00  0.00    +0.000 A 
ATOM     13  N   UNL     1       1.973   6.429  20.358  0.00  0.00    +0.000 N 
ATOM     14  N   UNL     1       1.308   7.285  21.156  0.00  0.00    +0.000 NA
ATOM     15  H   UNL     1       0.327   9.542  21.807  0.00  0.00    +0.000 HD
ATOM     16  H   UNL     1       2.036   5.461  20.644  0.00  0.00    +0.000 HD
BRANCH  12  17
ATOM     17  C   UNL     1       3.267   6.304  18.202  0.00  0.00    +0.000 A 
ATOM     18  C   UNL     1       3.179   4.918  18.023  0.00  0.00    +0.000 A 
ATOM     19  C   UNL     1       3.973   4.273  17.071  0.00  0.00    +0.000 A 
ATOM     20  C   UNL     1       4.862   5.006  16.285  0.00  0.00    +0.000 A 
ATOM     21  C   UNL     1       4.949   6.385  16.440  0.00  0.00    +0.000 A 
ATOM     22  C   UNL     1       4.157   7.028  17.392  0.00  0.00    +0.000 A 
ENDBRANCH  12  17
ENDBRANCH   3   9
BRANCH   6  23
ATOM     23  C   UNL     1       1.852  14.470  19.396  0.00  0.00    +0.000 C 
ATOM     24  C   UNL     1       2.567  14.389  18.032  0.00  0.00    +0.000 C 
ATOM     25  C   UNL     1       3.933  15.069  18.027  0.00  0.00    +0.000 C 
ATOM     26  C   UNL     1       3.830  16.522  18.476  0.00  0.00    +0.000 C 
ATOM     27  C   UNL     1       3.221  16.604  19.871  0.00  0.00    +0.000 C 
ATOM     28  C   UNL     1       1.859  15.926  19.921  0.00  0.00    +0.000 C 
BRANCH  26  29
ATOM     29  O   UNL     1       5.115  17.126  18.474  0.00  0.00    +0.000 OA
ATOM     30  H   UNL     1       5.288  17.483  19.363  0.00  0.00    +0.000 HD
ENDBRANCH  26  29
ENDBRANCH   6  23
BRANCH   1  32
ATOM     31  O   UNL     1      -3.135   9.323  17.701  0.00  0.00    +0.000 OA
ATOM     32  S   UNL     1      -2.834  10.714  17.416  0.00  0.00    +0.000 S 
ATOM     33  O   UNL     1      -2.454  11.130  16.074  0.00  0.00    +0.000 OA
BRANCH  32  34
ATOM     34  C   UNL     1      -4.264  11.686  17.846  0.00  0.00    +0.000 A 
ATOM     35  C   UNL     1      -4.487  12.048  19.179  0.00  0.00    +0.000 A 
ATOM     36  C   UNL     1      -5.650  12.742  19.519  0.00  0.00    +0.000 A 
ATOM     37  C   UNL     1      -6.583  13.072  18.534  0.00  0.00    +0.000 A 
ATOM     38  C   UNL     1      -6.354  12.713  17.203  0.00  0.00    +0.000 A 
ATOM     39  C   UNL     1      -5.194  12.018  16.854  0.00  0.00    +0.000 A 
ENDBRANCH  32  34
ENDBRANCH   1  32
TORSDOF 6
ENDMDL
MODEL 4
REMARK VINA RESULT:      -9.2      4.723      8.437
REMARK  Name = 
REMARK  6 active torsions:
REMARK  status: ('A' for Active; 'I' for Inactive)
REMARK    1  A    between atoms: S_2  and  C_4
REMARK    2  A    between atoms: S_2  and  C_10
REMARK    3  A    between atoms: C_12  and  N_13
REMARK    4  A    between atoms: C_16  and  C_17
REMARK    5  A    between atoms: N_27  and  C_28
REMARK    6  A    between atoms: C_31  and  O_32
REMARK                            x       y       z     vdW  Elec       q    Type
REMARK                         _______ _______ _______ _____ _____    ______ ____
ROOT
ATOM      1  C   UNL     1      -1.470  11.175  18.391  0.00  0.00    +0.000 A 
ATOM      2  C   UNL     1      -0.877  10.219  19.205  0.00  0.00    +0.000 A 
ATOM      3  C   UNL     1       0.215  10.600  19.974  0.00  0.00    +0.000 A 
ATOM      4  N   UNL     1       0.711  11.868  19.933  0.00  0.00    +0.000 NA
ATOM      5  C   UNL     1       0.125  12.780  19.133  0.00  0.00    +0.000 A 
ATOM      6  N   UNL     1       0.598  14.087  19.010  0.00  0.00    +0.000 N 
ATOM      7  C   UNL     1      -0.997  12.477  18.381  0.00  0.00    +0.000 A 
ATOM      8  H   UNL     1      -0.005  14.715  19.535  0.00  0.00    +0.000 HD
ENDROOT
BRANCH   3   9
ATOM      9  N   UNL     1       0.790   9.617  20.813  0.00  0.00    +0.000 N 
ATOM     10  C   UNL     1       1.351   8.454  20.422  0.00  0.00    +0.000 A 
ATOM     11  C   UNL     1       2.143   8.322  19.264  0.00  0.00    +0.000 A 
ATOM     12  C   UNL     1       2.537   7.000  19.213  0.00  0.00    +0.000 A 
ATOM     13  N   UNL     1       1.991   6.445  20.343  0.00  0.00    +0.000 N 
ATOM     14  N   UNL     1       1.311   7.315  21.115  0.00  0.00    +0.000 NA
ATOM     15  H   UNL     1       0.328   9.585  21.713  0.00  0.00    +0.000 HD
ATOM     16  H   UNL     1       2.042   5.480  20.644  0.00  0.00    +0.000 HD
BRANCH  12  17
ATOM     17  C   UNL     1       3.332   6.285  18.220  0.00  0.00    +0.000 A 
ATOM     18  C   UNL     1       4.257   6.940  17.398  0.00  0.00    +0.000 A 
ATOM     19  C   UNL     1       4.965   6.234  16.422  0.00  0.00    +0.000 A 
ATOM     20  C   UNL     1       4.759   4.864  16.257  0.00  0.00    +0.000 A 
ATOM     21  C   UNL     1       3.855   4.197  17.076  0.00  0.00    +0.000 A 
ATOM     22  C   UNL     1       3.147   4.902  18.049  0.00  0.00    +0.000 A 
ENDBRANCH  12  17
ENDBRANCH   3   9
BRANCH   6  23
ATOM     23  C   UNL     1       2.022  14.401  19.125  0.00  0.00    +0.000 C 
ATOM     24  C   UNL     1       2.600  14.767  17.743  0.00  0.00    +0.000 C 
ATOM     25  C   UNL     1       3.971  15.433  17.820  0.00  0.00    +0.000 C 
ATOM     26  C   UNL     1       3.938  16.666  18.715  0.00  0.00    +0.000 C 
ATOM     27  C   UNL     1       3.469  16.293  20.116  0.00  0.00    +0.000 C 
ATOM     28  C   UNL     1       2.106  15.615  20.082  0.00  0.00    +0.000 C 
BRANCH  26  29
ATOM     29  O   UNL     1       5.228  17.258  18.778  0.00  0.00    +0.000 OA
ATOM     30  H   UNL     1       5.196  18.114  18.316  0.00  0.00    +0.000 HD
ENDBRANCH  26  29
ENDBRANCH   6  23
BRANCH   1  32
ATOM     31  O   UNL     1      -3.084   9.342  17.588  0.00  0.00    +0.000 OA
ATOM     32  S   UNL     1      -2.822  10.748  17.343  0.00  0.00    +0.000 S 
ATOM     33  O   UNL     1      -2.501  11.219  16.003  0.00  0.00    +0.000 OA
BRANCH  32  34
ATOM     34  C   UNL     1      -4.254  11.674  17.859  0.00  0.00    +0.000 A 
ATOM     35  C   UNL     1      -5.231  12.028  16.923  0.00  0.00    +0.000 A 
ATOM     36  C   UNL     1      -6.311  12.819  17.320  0.00  0.00    +0.000 A 
ATOM     37  C   UNL     1      -6.413  13.254  18.642  0.00  0.00    +0.000 A 
ATOM     38  C   UNL     1      -5.438  12.894  19.576  0.00  0.00    +0.000 A 
ATOM     39  C   UNL     1      -4.354  12.103  19.188  0.00  0.00    +0.000 A 
ENDBRANCH  32  34
ENDBRANCH   1  32
TORSDOF 6
ENDMDL
MODEL 5
REMARK VINA RESULT:      -8.8      4.581      8.176
REMARK  Name = 
REMARK  6 active torsions:
REMARK  status: ('A' for Active; 'I' for Inactive)
REMARK    1  A    between atoms: S_2  and  C_4
REMARK    2  A    between atoms: S_2  and  C_10
REMARK    3  A    between atoms: C_12  and  N_13
REMARK    4  A    between atoms: C_16  and  C_17
REMARK    5  A    between atoms: N_27  and  C_28
REMARK    6  A    between atoms: C_31  and  O_32
REMARK                            x       y       z     vdW  Elec       q    Type
REMARK                         _______ _______ _______ _____ _____    ______ ____
ROOT
ATOM      1  C   UNL     1      -1.279  11.174  18.432  0.00  0.00    +0.000 A 
ATOM      2  C   UNL     1      -0.727  10.199  19.252  0.00  0.00    +0.000 A 
ATOM      3  C   UNL     1       0.426  10.514  19.957  0.00  0.00    +0.000 A 
ATOM      4  N   UNL     1       1.020  11.735  19.849  0.00  0.00    +0.000 NA
ATOM      5  C   UNL     1       0.473  12.666  19.043  0.00  0.00    +0.000 A 
ATOM      6  N   UNL     1       1.042  13.925  18.853  0.00  0.00    +0.000 N 
ATOM      7  C   UNL     1      -0.705  12.431  18.354  0.00  0.00    +0.000 A 
ATOM      8  H   UNL     1       0.517  14.616  19.382  0.00  0.00    +0.000 HD
ENDROOT
BRANCH   3   9
ATOM      9  N   UNL     1       0.960   9.514  20.805  0.00  0.00    +0.000 N 
ATOM     10  C   UNL     1       1.439   8.311  20.427  0.00  0.00    +0.000 A 
ATOM     11  C   UNL     1       2.194   8.106  19.255  0.00  0.00    +0.000 A 
ATOM     12  C   UNL     1       2.505   6.762  19.224  0.00  0.00    +0.000 A 
ATOM     13  N   UNL     1       1.952   6.265  20.378  0.00  0.00    +0.000 N 
ATOM     14  N   UNL     1       1.346   7.191  21.146  0.00  0.00    +0.000 NA
ATOM     15  H   UNL     1       0.518   9.530  21.716  0.00  0.00    +0.000 HD
ATOM     16  H   UNL     1       1.952   5.306  20.699  0.00  0.00    +0.000 HD
BRANCH  12  17
ATOM     17  C   UNL     1       3.230   5.978  18.229  0.00  0.00    +0.000 A 
ATOM     18  C   UNL     1       2.870   4.663  17.915  0.00  0.00    +0.000 A 
ATOM     19  C   UNL     1       3.617   3.922  16.995  0.00  0.00    +0.000 A 
ATOM     20  C   UNL     1       4.730   4.488  16.376  0.00  0.00    +0.000 A 
ATOM     21  C   UNL     1       5.091   5.800  16.666  0.00  0.00    +0.000 A 
ATOM     22  C   UNL     1       4.347   6.538  17.585  0.00  0.00    +0.000 A 
ENDBRANCH  12  17
ENDBRANCH   3   9
BRANCH   6  23
ATOM     23  C   UNL     1       2.491  14.125  18.893  0.00  0.00    +0.000 C 
ATOM     24  C   UNL     1       2.935  15.038  17.732  0.00  0.00    +0.000 C 
ATOM     25  C   UNL     1       4.355  15.573  17.895  0.00  0.00    +0.000 C 
ATOM     26  C   UNL     1       4.524  16.299  19.224  0.00  0.00    +0.000 C 
ATOM     27  C   UNL     1       4.189  15.369  20.384  0.00  0.00    +0.000 C 
ATOM     28  C   UNL     1       2.782  14.804  20.253  0.00  0.00    +0.000 C 
BRANCH  26  29
ATOM     29  O   UNL     1       5.856  16.774  19.355  0.00  0.00    +0.000 OA
ATOM     30  H   UNL     1       6.461  16.087  19.024  0.00  0.00    +0.000 HD
ENDBRANCH  26  29
ENDBRANCH   6  23
BRANCH   1  32
ATOM     31  O   UNL     1      -2.834   9.379  17.445  0.00  0.00    +0.000 OA
ATOM     32  S   UNL     1      -2.709  10.825  17.460  0.00  0.00    +0.000 S 
ATOM     33  O   UNL     1      -2.585  11.571  16.217  0.00  0.00    +0.000 OA
BRANCH  32  34
ATOM     34  C   UNL     1      -4.137  11.491  18.294  0.00  0.00    +0.000 A 
ATOM     35  C   UNL     1      -5.411  11.316  17.743  0.00  0.00    +0.000 A 
ATOM     36  C   UNL     1      -6.515  11.907  18.360  0.00  0.00    +0.000 A 
ATOM     37  C   UNL     1      -6.347  12.668  19.518  0.00  0.00    +0.000 A 
ATOM     38  C   UNL     1      -5.073  12.836  20.068  0.00  0.00    +0.000 A 
ATOM     39  C   UNL     1      -3.963  12.250  19.457  0.00  0.00    +0.000 A 
ENDBRANCH  32  34
ENDBRANCH   1  32
TORSDOF 6
ENDMDL
MODEL 6
REMARK VINA RESULT:      -8.7      5.007      8.750
REMARK  Name = 
REMARK  6 active torsions:
REMARK  status: ('A' for Active; 'I' for Inactive)
REMARK    1  A    between atoms: S_2  and  C_4
REMARK    2  A    between atoms: S_2  and  C_10
REMARK    3  A    between atoms: C_12  and  N_13
REMARK    4  A    between atoms: C_16  and  C_17
REMARK    5  A    between atoms: N_27  and  C_28
REMARK    6  A    between atoms: C_31  and  O_32
REMARK                            x       y       z     vdW  Elec       q    Type
REMARK                         _______ _______ _______ _____ _____    ______ ____
ROOT
ATOM      1  C   UNL     1       1.072  13.387  19.078  0.00  0.00    +0.000 A 
ATOM      2  C   UNL     1       1.425  12.394  19.982  0.00  0.00    +0.000 A 
ATOM      3  C   UNL     1       0.564  11.317  20.141  0.00  0.00    +0.000 A 
ATOM      4  N   UNL     1      -0.605  11.227  19.446  0.00  0.00    +0.000 NA
ATOM      5  C   UNL     1      -0.932  12.204  18.577  0.00  0.00    +0.000 A 
ATOM      6  N   UNL     1      -2.127  12.200  17.857  0.00  0.00    +0.000 N 
ATOM      7  C   UNL     1      -0.092  13.278  18.336  0.00  0.00    +0.000 A 
ATOM      8  H   UNL     1      -1.942  11.925  16.896  0.00  0.00    +0.000 HD
ENDROOT
BRANCH   3   9
ATOM      9  N   UNL     1       0.953  10.306  21.050  0.00  0.00    +0.000 N 
ATOM     10  C   UNL     1       1.259   9.027  20.749  0.00  0.00    +0.000 A 
ATOM     11  C   UNL     1       1.975   8.648  19.596  0.00  0.00    +0.000 A 
ATOM     12  C   UNL     1       2.095   7.274  19.648  0.00  0.00    +0.000 A 
ATOM     13  N   UNL     1       1.480   6.930  20.826  0.00  0.00    +0.000 N 
ATOM     14  N   UNL     1       1.011   7.977  21.532  0.00  0.00    +0.000 NA
ATOM     15  H   UNL     1       0.519  10.438  21.956  0.00  0.00    +0.000 HD
ATOM     16  H   UNL     1       1.345   6.001  21.204  0.00  0.00    +0.000 HD
BRANCH  12  17
ATOM     17  C   UNL     1       2.702   6.338  18.707  0.00  0.00    +0.000 A 
ATOM     18  C   UNL     1       2.217   5.036  18.540  0.00  0.00    +0.000 A 
ATOM     19  C   UNL     1       2.852   4.148  17.668  0.00  0.00    +0.000 A 
ATOM     20  C   UNL     1       3.978   4.552  16.951  0.00  0.00    +0.000 A 
ATOM     21  C   UNL     1       4.462   5.847  17.095  0.00  0.00    +0.000 A 
ATOM     22  C   UNL     1       3.829   6.733  17.966  0.00  0.00    +0.000 A 
ENDBRANCH  12  17
ENDBRANCH   3   9
BRANCH   6  23
ATOM     23  C   UNL     1      -3.354  11.626  18.410  0.00  0.00    +0.000 C 
ATOM     24  C   UNL     1      -3.890  12.513  19.552  0.00  0.00    +0.000 C 
ATOM     25  C   UNL     1      -5.326  12.182  19.949  0.00  0.00    +0.000 C 
ATOM     26  C   UNL     1      -6.262  12.255  18.748  0.00  0.00    +0.000 C 
ATOM     27  C   UNL     1      -5.799  11.300  17.655  0.00  0.00    +0.000 C 
ATOM     28  C   UNL     1      -4.364  11.590  17.238  0.00  0.00    +0.000 C 
BRANCH  26  29
ATOM     29  O   UNL     1      -7.588  11.931  19.142  0.00  0.00    +0.000 OA
ATOM     30  H   UNL     1      -8.053  11.553  18.375  0.00  0.00    +0.000 HD
ENDBRANCH  26  29
ENDBRANCH   6  23
BRANCH   1  32
ATOM     31  O   UNL     1       2.966  14.515  17.754  0.00  0.00    +0.000 OA
ATOM     32  S   UNL     1       2.087  14.814  18.870  0.00  0.00    +0.000 S 
ATOM     33  O   UNL     1       2.636  15.153  20.174  0.00  0.00    +0.000 OA
BRANCH  32  34
ATOM     34  C   UNL     1       1.049  16.185  18.401  0.00  0.00    +0.000 A 
ATOM     35  C   UNL     1       1.533  17.157  17.519  0.00  0.00    +0.000 A 
ATOM     36  C   UNL     1       0.743  18.268  17.218  0.00  0.00    +0.000 A 
ATOM     37  C   UNL     1      -0.521  18.407  17.795  0.00  0.00    +0.000 A 
ATOM     38  C   UNL     1      -1.003  17.431  18.672  0.00  0.00    +0.000 A 
ATOM     39  C   UNL     1      -0.219  16.317  18.979  0.00  0.00    +0.000 A 
ENDBRANCH  32  34
ENDBRANCH   1  32
TORSDOF 6
ENDMDL
MODEL 7
REMARK VINA RESULT:      -8.7      4.948      8.720
REMARK  Name = 
REMARK  6 active torsions:
REMARK  status: ('A' for Active; 'I' for Inactive)
REMARK    1  A    between atoms: S_2  and  C_4
REMARK    2  A    between atoms: S_2  and  C_10
REMARK    3  A    between atoms: C_12  and  N_13
REMARK    4  A    between atoms: C_16  and  C_17
REMARK    5  A    between atoms: N_27  and  C_28
REMARK    6  A    between atoms: C_31  and  O_32
REMARK                            x       y       z     vdW  Elec       q    Type
REMARK                         _______ _______ _______ _____ _____    ______ ____
ROOT
ATOM      1  C   UNL     1       1.083  13.285  19.177  0.00  0.00    +0.000 A 
ATOM      2  C   UNL     1       1.396  12.261  20.061  0.00  0.00    +0.000 A 
ATOM      3  C   UNL     1       0.514  11.195  20.166  0.00  0.00    +0.000 A 
ATOM      4  N   UNL     1      -0.638  11.144  19.440  0.00  0.00    +0.000 NA
ATOM      5  C   UNL     1      -0.927  12.150  18.592  0.00  0.00    +0.000 A 
ATOM      6  N   UNL     1      -2.103  12.187  17.843  0.00  0.00    +0.000 N 
ATOM      7  C   UNL     1      -0.064  13.217  18.404  0.00  0.00    +0.000 A 
ATOM      8  H   UNL     1      -1.898  11.936  16.879  0.00  0.00    +0.000 HD
ENDROOT
BRANCH   3   9
ATOM      9  N   UNL     1       0.863  10.151  21.056  0.00  0.00    +0.000 N 
ATOM     10  C   UNL     1       1.241   8.900  20.720  0.00  0.00    +0.000 A 
ATOM     11  C   UNL     1       2.066   8.605  19.617  0.00  0.00    +0.000 A 
ATOM     12  C   UNL     1       2.232   7.236  19.612  0.00  0.00    +0.000 A 
ATOM     13  N   UNL     1       1.533   6.811  20.715  0.00  0.00    +0.000 N 
ATOM     14  N   UNL     1       0.968   7.804  21.428  0.00  0.00    +0.000 NA
ATOM     15  H   UNL     1       0.351  10.222  21.926  0.00  0.00    +0.000 HD
ATOM     16  H   UNL     1       1.403   5.860  21.034  0.00  0.00    +0.000 HD
BRANCH  12  17
ATOM     17  C   UNL     1       2.950   6.370  18.682  0.00  0.00    +0.000 A 
ATOM     18  C   UNL     1       3.886   6.875  17.771  0.00  0.00    +0.000 A 
ATOM     19  C   UNL     1       4.519   6.025  16.859  0.00  0.00    +0.000 A 
ATOM     20  C   UNL     1       4.226   4.662  16.849  0.00  0.00    +0.000 A 
ATOM     21  C   UNL     1       3.310   4.144  17.758  0.00  0.00    +0.000 A 
ATOM     22  C   UNL     1       2.678   4.991  18.667  0.00  0.00    +0.000 A 
ENDBRANCH  12  17
ENDBRANCH   3   9
BRANCH   6  23
ATOM     23  C   UNL     1      -3.352  11.618  18.348  0.00  0.00    +0.000 C 
ATOM     24  C   UNL     1      -3.881  12.458  19.529  0.00  0.00    +0.000 C 
ATOM     25  C   UNL     1      -5.331  12.146  19.888  0.00  0.00    +0.000 C 
ATOM     26  C   UNL     1      -6.247  12.309  18.681  0.00  0.00    +0.000 C 
ATOM     27  C   UNL     1      -5.794  11.401  17.544  0.00  0.00    +0.000 C 
ATOM     28  C   UNL     1      -4.346  11.673  17.162  0.00  0.00    +0.000 C 
BRANCH  26  29
ATOM     29  O   UNL     1      -7.587  12.001  19.040  0.00  0.00    +0.000 OA
ATOM     30  H   UNL     1      -7.760  12.369  19.925  0.00  0.00    +0.000 HD
ENDBRANCH  26  29
ENDBRANCH   6  23
BRANCH   1  32
ATOM     31  O   UNL     1       3.010  14.429  17.917  0.00  0.00    +0.000 OA
ATOM     32  S   UNL     1       2.126  14.700  19.036  0.00  0.00    +0.000 S 
ATOM     33  O   UNL     1       2.668  14.977  20.358  0.00  0.00    +0.000 OA
BRANCH  32  34
ATOM     34  C   UNL     1       1.118  16.107  18.613  0.00  0.00    +0.000 A 
ATOM     35  C   UNL     1      -0.220  16.155  19.019  0.00  0.00    +0.000 A 
ATOM     36  C   UNL     1      -1.024  17.223  18.617  0.00  0.00    +0.000 A 
ATOM     37  C   UNL     1      -0.495  18.236  17.815  0.00  0.00    +0.000 A 
ATOM     38  C   UNL     1       0.843  18.188  17.416  0.00  0.00    +0.000 A 
ATOM     39  C   UNL     1       1.654  17.122  17.812  0.00  0.00    +0.000 A 
ENDBRANCH  32  34
ENDBRANCH   1  32
TORSDOF 6
ENDMDL
MODEL 8
REMARK VINA RESULT:      -8.6      4.936      8.886
REMARK  Name = 
REMARK  6 active torsions:
REMARK  status: ('A' for Active; 'I' for Inactive)
REMARK    1  A    between atoms: S_2  and  C_4
REMARK    2  A    between atoms: S_2  and  C_10
REMARK    3  A    between atoms: C_12  and  N_13
REMARK    4  A    between atoms: C_16  and  C_17
REMARK    5  A    between atoms: N_27  and  C_28
REMARK    6  A    between atoms: C_31  and  O_32
REMARK                            x       y       z     vdW  Elec       q    Type
REMARK                         _______ _______ _______ _____ _____    ______ ____
ROOT
ATOM      1  C   UNL     1      -1.815  11.176  18.169  0.00  0.00    +0.000 A 
ATOM      2  C   UNL     1      -1.159  10.310  19.035  0.00  0.00    +0.000 A 
ATOM      3  C   UNL     1      -0.217  10.843  19.904  0.00  0.00    +0.000 A 
ATOM      4  N   UNL     1       0.078  12.173  19.911  0.00  0.00    +0.000 NA
ATOM      5  C   UNL     1      -0.565  12.996  19.059  0.00  0.00    +0.000 A 
ATOM      6  N   UNL     1      -0.291  14.362  18.983  0.00  0.00    +0.000 N 
ATOM      7  C   UNL     1      -1.551  12.535  18.204  0.00  0.00    +0.000 A 
ATOM      8  H   UNL     1      -1.031  14.881  19.449  0.00  0.00    +0.000 HD
ENDROOT
BRANCH   3   9
ATOM      9  N   UNL     1       0.422   9.948  20.793  0.00  0.00    +0.000 N 
ATOM     10  C   UNL     1       1.053   8.801  20.466  0.00  0.00    +0.000 A 
ATOM     11  C   UNL     1       1.845   8.651  19.311  0.00  0.00    +0.000 A 
ATOM     12  C   UNL     1       2.321   7.356  19.333  0.00  0.00    +0.000 A 
ATOM     13  N   UNL     1       1.815   6.835  20.498  0.00  0.00    +0.000 N 
ATOM     14  N   UNL     1       1.088   7.705  21.224  0.00  0.00    +0.000 NA
ATOM     15  H   UNL     1      -0.032   9.941  21.698  0.00  0.00    +0.000 HD
ATOM     16  H   UNL     1       1.929   5.894  20.854  0.00  0.00    +0.000 HD
BRANCH  12  17
ATOM     17  C   UNL     1       3.153   6.634  18.375  0.00  0.00    +0.000 A 
ATOM     18  C   UNL     1       4.014   7.298  17.493  0.00  0.00    +0.000 A 
ATOM     19  C   UNL     1       4.759   6.580  16.554  0.00  0.00    +0.000 A 
ATOM     20  C   UNL     1       4.656   5.191  16.487  0.00  0.00    +0.000 A 
ATOM     21  C   UNL     1       3.817   4.517  17.368  0.00  0.00    +0.000 A 
ATOM     22  C   UNL     1       3.072   5.233  18.304  0.00  0.00    +0.000 A 
ENDBRANCH  12  17
ENDBRANCH   3   9
BRANCH   6  23
ATOM     23  C   UNL     1       1.049  14.890  19.232  0.00  0.00    +0.000 C 
ATOM     24  C   UNL     1       1.394  15.980  18.197  0.00  0.00    +0.000 C 
ATOM     25  C   UNL     1       2.612  16.815  18.583  0.00  0.00    +0.000 C 
ATOM     26  C   UNL     1       2.438  17.442  19.961  0.00  0.00    +0.000 C 
ATOM     27  C   UNL     1       2.203  16.362  21.010  0.00  0.00    +0.000 C 
ATOM     28  C   UNL     1       1.001  15.498  20.656  0.00  0.00    +0.000 C 
BRANCH  26  29
ATOM     29  O   UNL     1       3.589  18.202  20.300  0.00  0.00    +0.000 OA
ATOM     30  H   UNL     1       3.425  18.645  21.151  0.00  0.00    +0.000 HD
ENDBRANCH  26  29
ENDBRANCH   6  23
BRANCH   1  32
ATOM     31  O   UNL     1      -2.957   9.116  17.137  0.00  0.00    +0.000 OA
ATOM     32  S   UNL     1      -2.980  10.560  16.996  0.00  0.00    +0.000 S 
ATOM     33  O   UNL     1      -2.682  11.185  15.716  0.00  0.00    +0.000 OA
BRANCH  32  34
ATOM     34  C   UNL     1      -4.603  11.132  17.457  0.00  0.00    +0.000 A 
ATOM     35  C   UNL     1      -5.183  12.209  16.777  0.00  0.00    +0.000 A 
ATOM     36  C   UNL     1      -6.422  12.701  17.194  0.00  0.00    +0.000 A 
ATOM     37  C   UNL     1      -7.074  12.122  18.284  0.00  0.00    +0.000 A 
ATOM     38  C   UNL     1      -6.495  11.044  18.957  0.00  0.00    +0.000 A 
ATOM     39  C   UNL     1      -5.256  10.546  18.547  0.00  0.00    +0.000 A 
ENDBRANCH  32  34
ENDBRANCH   1  32
TORSDOF 6
ENDMDL
MODEL 9
REMARK VINA RESULT:      -8.6      4.680      8.387
REMARK  Name = 
REMARK  6 active torsions:
REMARK  status: ('A' for Active; 'I' for Inactive)
REMARK    1  A    between atoms: S_2  and  C_4
REMARK    2  A    between atoms: S_2  and  C_10
REMARK    3  A    between atoms: C_12  and  N_13
REMARK    4  A    between atoms: C_16  and  C_17
REMARK    5  A    between atoms: N_27  and  C_28
REMARK    6  A    between atoms: C_31  and  O_32
REMARK                            x       y       z     vdW  Elec       q    Type
REMARK                         _______ _______ _______ _____ _____    ______ ____
ROOT
ATOM      1  C   UNL     1      -2.046  11.060  18.251  0.00  0.00    +0.000 A 
ATOM      2  C   UNL     1      -1.297  10.278  19.119  0.00  0.00    +0.000 A 
ATOM      3  C   UNL     1      -0.308  10.897  19.871  0.00  0.00    +0.000 A 
ATOM      4  N   UNL     1      -0.057  12.231  19.762  0.00  0.00    +0.000 NA
ATOM      5  C   UNL     1      -0.790  12.973  18.909  0.00  0.00    +0.000 A 
ATOM      6  N   UNL     1      -0.568  14.337  18.716  0.00  0.00    +0.000 N 
ATOM      7  C   UNL     1      -1.825  12.425  18.170  0.00  0.00    +0.000 A 
ATOM      8  H   UNL     1      -1.286  14.868  19.203  0.00  0.00    +0.000 HD
ENDROOT
BRANCH   3   9
ATOM      9  N   UNL     1       0.428  10.085  20.766  0.00  0.00    +0.000 N 
ATOM     10  C   UNL     1       1.057   8.929  20.472  0.00  0.00    +0.000 A 
ATOM     11  C   UNL     1       1.752   8.705  19.267  0.00  0.00    +0.000 A 
ATOM     12  C   UNL     1       2.260   7.424  19.344  0.00  0.00    +0.000 A 
ATOM     13  N   UNL     1       1.870   6.985  20.585  0.00  0.00    +0.000 N 
ATOM     14  N   UNL     1       1.185   7.895  21.304  0.00  0.00    +0.000 NA
ATOM     15  H   UNL     1       0.053  10.139  21.705  0.00  0.00    +0.000 HD
ATOM     16  H   UNL     1       2.037   6.077  21.000  0.00  0.00    +0.000 HD
BRANCH  12  17
ATOM     17  C   UNL     1       3.026   6.647  18.375  0.00  0.00    +0.000 A 
ATOM     18  C   UNL     1       2.873   5.261  18.249  0.00  0.00    +0.000 A 
ATOM     19  C   UNL     1       3.658   4.538  17.347  0.00  0.00    +0.000 A 
ATOM     20  C   UNL     1       4.604   5.192  16.558  0.00  0.00    +0.000 A 
ATOM     21  C   UNL     1       4.757   6.571  16.661  0.00  0.00    +0.000 A 
ATOM     22  C   UNL     1       3.974   7.291  17.562  0.00  0.00    +0.000 A 
ENDBRANCH  12  17
ENDBRANCH   3   9
BRANCH   6  23
ATOM     23  C   UNL     1       0.770  14.918  18.820  0.00  0.00    +0.000 C 
ATOM     24  C   UNL     1       1.094  15.253  20.290  0.00  0.00    +0.000 C 
ATOM     25  C   UNL     1       2.574  15.537  20.532  0.00  0.00    +0.000 C 
ATOM     26  C   UNL     1       3.444  14.379  20.057  0.00  0.00    +0.000 C 
ATOM     27  C   UNL     1       3.208  14.110  18.576  0.00  0.00    +0.000 C 
ATOM     28  C   UNL     1       1.739  13.833  18.290  0.00  0.00    +0.000 C 
BRANCH  26  29
ATOM     29  O   UNL     1       4.815  14.674  20.283  0.00  0.00    +0.000 OA
ATOM     30  H   UNL     1       4.871  15.501  20.793  0.00  0.00    +0.000 HD
ENDBRANCH  26  29
ENDBRANCH   6  23
BRANCH   1  32
ATOM     31  O   UNL     1      -3.374   8.945  17.639  0.00  0.00    +0.000 OA
ATOM     32  S   UNL     1      -3.278  10.332  17.221  0.00  0.00    +0.000 S 
ATOM     33  O   UNL     1      -2.952  10.669  15.844  0.00  0.00    +0.000 OA
BRANCH  32  34
ATOM     34  C   UNL     1      -4.840  11.119  17.563  0.00  0.00    +0.000 A 
ATOM     35  C   UNL     1      -5.244  12.225  16.808  0.00  0.00    +0.000 A 
ATOM     36  C   UNL     1      -6.432  12.884  17.133  0.00  0.00    +0.000 A 
ATOM     37  C   UNL     1      -7.209  12.440  18.204  0.00  0.00    +0.000 A 
ATOM     38  C   UNL     1      -6.806  11.331  18.952  0.00  0.00    +0.000 A 
ATOM     39  C   UNL     1      -5.618  10.667  18.635  0.00  0.00    +0.000 A 
ENDBRANCH  32  34
ENDBRANCH   1  32
TORSDOF 6
ENDMDL
