MODEL 1
REMARK VINA RESULT:      -7.9      0.000      0.000
REMARK  Name = 
REMARK  4 active torsions:
REMARK  status: ('A' for Active; 'I' for Inactive)
REMARK    1  A    between atoms: C_1  and  O_2
REMARK    2  A    between atoms: O_2  and  C_3
REMARK    3  A    between atoms: C_6  and  N_7
REMARK    4  A    between atoms: C_22  and  O_23
REMARK                            x       y       z     vdW  Elec       q    Type
REMARK                         _______ _______ _______ _____ _____    ______ ____
ROOT
ATOM      1  C   UNL     1       2.355   3.160  19.595  0.00  0.00    +0.000 A 
ATOM      2  C   UNL     1       3.232   2.207  19.088  0.00  0.00    +0.000 A 
ATOM      3  C   UNL     1       4.297   2.576  18.271  0.00  0.00    +0.000 A 
ATOM      4  C   UNL     1       4.543   3.914  17.905  0.00  0.00    +0.000 A 
ATOM      5  C   UNL     1       3.634   4.869  18.448  0.00  0.00    +0.000 A 
ATOM      6  S   UNL     1       3.587   6.573  18.185  0.00  0.00    +0.000 S 
ATOM      7  C   UNL     1       2.225   6.722  19.147  0.00  0.00    +0.000 A 
ATOM      8  N   UNL     1       1.625   7.945  19.330  0.00  0.00    +0.000 N 
ATOM      9  C   UNL     1       1.795   9.067  18.562  0.00  0.00    +0.000 C 
ATOM     10  O   UNL     1       2.561   9.155  17.597  0.00  0.00    +0.000 OA
ATOM     11  N   UNL     1       1.038  10.174  18.949  0.00  0.00    +0.000 N 
ATOM     12  C   UNL     1       0.120  10.229  20.080  0.00  0.00    +0.000 C 
ATOM     13  C   UNL     1       0.690  11.121  21.170  0.00  0.00    +0.000 C 
ATOM     14  C   UNL     1       1.099  12.494  20.647  0.00  0.00    +0.000 C 
ATOM     15  C   UNL     1       1.990  12.385  19.407  0.00  0.00    +0.000 C 
ATOM     16  C   UNL     1       1.366  11.472  18.352  0.00  0.00    +0.000 C 
ATOM     17  N   UNL     1       1.791   5.633  19.711  0.00  0.00    +0.000 NA
ATOM     18  C   UNL     1       2.560   4.531  19.278  0.00  0.00    +0.000 A 
ATOM     19  H   UNL     1       0.850   7.868  19.950  0.00  0.00    +0.000 HD
ENDROOT
BRANCH   4  20
ATOM     20  N   UNL     1       5.607   4.211  17.083  0.00  0.00    +0.000 N 
ATOM     21  C   UNL     1       6.898   4.708  17.577  0.00  0.00    +0.000 C 
ATOM     22  C   UNL     1       7.285   5.971  16.796  0.00  0.00    +0.000 C 
ATOM     23  O   UNL     1       7.279   5.746  15.375  0.00  0.00    +0.000 OA
ATOM     24  C   UNL     1       5.988   5.313  14.941  0.00  0.00    +0.000 C 
ATOM     25  C   UNL     1       5.567   4.015  15.627  0.00  0.00    +0.000 C 
ENDBRANCH   4  20
BRANCH   1  27
ATOM     26  C   UNL     1       1.491   2.589  21.732  0.00  0.00    +0.000 C 
ATOM     27  O   UNL     1       1.249   2.815  20.347  0.00  0.00    +0.000 OA
ENDBRANCH   1  27
BRANCH  14  28
ATOM     28  O   UNL     1      -0.057  13.283  20.368  0.00  0.00    +0.000 OA
ATOM     29  H   UNL     1      -0.810  12.703  20.178  0.00  0.00    +0.000 HD
ENDBRANCH  14  28
TORSDOF 3
ENDMDL
MODEL 2
REMARK VINA RESULT:      -7.7      1.234      1.519
REMARK  Name = 
REMARK  4 active torsions:
REMARK  status: ('A' for Active; 'I' for Inactive)
REMARK    1  A    between atoms: C_1  and  O_2
REMARK    2  A    between atoms: O_2  and  C_3
REMARK    3  A    between atoms: C_6  and  N_7
REMARK    4  A    between atoms: C_22  and  O_23
REMARK                            x       y       z     vdW  Elec       q    Type
REMARK                         _______ _______ _______ _____ _____    ______ ____
ROOT
ATOM      1  C   UNL     1       2.806   4.247  20.538  0.00  0.00    +0.000 A 
ATOM      2  C   UNL     1       3.696   3.369  19.927  0.00  0.00    +0.000 A 
ATOM      3  C   UNL     1       4.432   3.758  18.811  0.00  0.00    +0.000 A 
ATOM      4  C   UNL     1       4.317   5.038  18.236  0.00  0.00    +0.000 A 
ATOM      5  C   UNL     1       3.405   5.919  18.889  0.00  0.00    +0.000 A 
ATOM      6  S   UNL     1       2.966   7.527  18.449  0.00  0.00    +0.000 S 
ATOM      7  C   UNL     1       1.884   7.622  19.723  0.00  0.00    +0.000 A 
ATOM      8  N   UNL     1       1.125   8.750  19.917  0.00  0.00    +0.000 N 
ATOM      9  C   UNL     1       0.878   9.742  19.004  0.00  0.00    +0.000 C 
ATOM     10  O   UNL     1       1.348   9.786  17.862  0.00  0.00    +0.000 OA
ATOM     11  N   UNL     1       0.042  10.767  19.449  0.00  0.00    +0.000 N 
ATOM     12  C   UNL     1      -0.558  10.867  20.774  0.00  0.00    +0.000 C 
ATOM     13  C   UNL     1       0.083  12.004  21.552  0.00  0.00    +0.000 C 
ATOM     14  C   UNL     1       0.076  13.318  20.777  0.00  0.00    +0.000 C 
ATOM     15  C   UNL     1       0.634  13.144  19.363  0.00  0.00    +0.000 C 
ATOM     16  C   UNL     1      -0.045  11.984  18.635  0.00  0.00    +0.000 C 
ATOM     17  N   UNL     1       1.822   6.587  20.510  0.00  0.00    +0.000 NA
ATOM     18  C   UNL     1       2.658   5.561  20.017  0.00  0.00    +0.000 A 
ATOM     19  H   UNL     1       0.558   8.658  20.731  0.00  0.00    +0.000 HD
ENDROOT
BRANCH   4  20
ATOM     20  N   UNL     1       5.065   5.356  17.124  0.00  0.00    +0.000 N 
ATOM     21  C   UNL     1       5.090   4.537  15.905  0.00  0.00    +0.000 C 
ATOM     22  C   UNL     1       6.547   4.251  15.519  0.00  0.00    +0.000 C 
ATOM     23  O   UNL     1       7.317   5.461  15.396  0.00  0.00    +0.000 OA
ATOM     24  C   UNL     1       7.301   6.192  16.623  0.00  0.00    +0.000 C 
ATOM     25  C   UNL     1       5.880   6.575  17.034  0.00  0.00    +0.000 C 
ENDBRANCH   4  20
BRANCH   1  27
ATOM     26  C   UNL     1       1.430   2.568  21.502  0.00  0.00    +0.000 C 
ATOM     27  O   UNL     1       2.010   3.864  21.601  0.00  0.00    +0.000 OA
ENDBRANCH   1  27
BRANCH  14  28
ATOM     28  O   UNL     1      -1.243  13.862  20.735  0.00  0.00    +0.000 OA
ATOM     29  H   UNL     1      -1.238  14.693  20.238  0.00  0.00    +0.000 HD
ENDBRANCH  14  28
TORSDOF 3
ENDMDL
MODEL 3
REMARK VINA RESULT:      -7.3      1.755      4.569
REMARK  Name = 
REMARK  4 active torsions:
REMARK  status: ('A' for Active; 'I' for Inactive)
REMARK    1  A    between atoms: C_1  and  O_2
REMARK    2  A    between atoms: O_2  and  C_3
REMARK    3  A    between atoms: C_6  and  N_7
REMARK    4  A    between atoms: C_22  and  O_23
REMARK                            x       y       z     vdW  Elec       q    Type
REMARK                         _______ _______ _______ _____ _____    ______ ____
ROOT
ATOM      1  C   UNL     1       5.259   6.096  16.968  0.00  0.00    +0.000 A 
ATOM      2  C   UNL     1       5.572   4.744  17.055  0.00  0.00    +0.000 A 
ATOM      3  C   UNL     1       4.788   3.874  17.807  0.00  0.00    +0.000 A 
ATOM      4  C   UNL     1       3.653   4.303  18.522  0.00  0.00    +0.000 A 
ATOM      5  C   UNL     1       3.350   5.692  18.406  0.00  0.00    +0.000 A 
ATOM      6  S   UNL     1       2.085   6.581  19.169  0.00  0.00    +0.000 S 
ATOM      7  C   UNL     1       2.614   8.007  18.471  0.00  0.00    +0.000 A 
ATOM      8  N   UNL     1       1.979   9.197  18.737  0.00  0.00    +0.000 N 
ATOM      9  C   UNL     1       1.127   9.459  19.778  0.00  0.00    +0.000 C 
ATOM     10  O   UNL     1       0.767   8.634  20.623  0.00  0.00    +0.000 OA
ATOM     11  N   UNL     1       0.643  10.767  19.835  0.00  0.00    +0.000 N 
ATOM     12  C   UNL     1       0.952  11.836  18.894  0.00  0.00    +0.000 C 
ATOM     13  C   UNL     1      -0.273  12.166  18.058  0.00  0.00    +0.000 C 
ATOM     14  C   UNL     1      -1.506  12.442  18.913  0.00  0.00    +0.000 C 
ATOM     15  C   UNL     1      -1.739  11.335  19.944  0.00  0.00    +0.000 C 
ATOM     16  C   UNL     1      -0.471  11.046  20.747  0.00  0.00    +0.000 C 
ATOM     17  N   UNL     1       3.632   7.917  17.665  0.00  0.00    +0.000 NA
ATOM     18  C   UNL     1       4.113   6.590  17.651  0.00  0.00    +0.000 A 
ATOM     19  H   UNL     1       2.396   9.941  18.222  0.00  0.00    +0.000 HD
ENDROOT
BRANCH   4  20
ATOM     20  N   UNL     1       2.927   3.394  19.258  0.00  0.00    +0.000 N 
ATOM     21  C   UNL     1       1.597   2.910  18.863  0.00  0.00    +0.000 C 
ATOM     22  C   UNL     1       0.631   3.067  20.045  0.00  0.00    +0.000 C 
ATOM     23  O   UNL     1       1.129   2.426  21.233  0.00  0.00    +0.000 OA
ATOM     24  C   UNL     1       2.399   2.968  21.601  0.00  0.00    +0.000 C 
ATOM     25  C   UNL     1       3.435   2.782  20.494  0.00  0.00    +0.000 C 
ENDBRANCH   4  20
BRANCH   1  27
ATOM     26  C   UNL     1       7.201   7.463  17.000  0.00  0.00    +0.000 C 
ATOM     27  O   UNL     1       6.060   6.994  16.289  0.00  0.00    +0.000 OA
ENDBRANCH   1  27
BRANCH  14  28
ATOM     28  O   UNL     1      -1.390  13.711  19.555  0.00  0.00    +0.000 OA
ATOM     29  H   UNL     1      -1.411  14.416  18.890  0.00  0.00    +0.000 HD
ENDBRANCH  14  28
TORSDOF 3
ENDMDL
MODEL 4
REMARK VINA RESULT:      -6.8      0.984      1.409
REMARK  Name = 
REMARK  4 active torsions:
REMARK  status: ('A' for Active; 'I' for Inactive)
REMARK    1  A    between atoms: C_1  and  O_2
REMARK    2  A    between atoms: O_2  and  C_3
REMARK    3  A    between atoms: C_6  and  N_7
REMARK    4  A    between atoms: C_22  and  O_23
REMARK                            x       y       z     vdW  Elec       q    Type
REMARK                         _______ _______ _______ _____ _____    ______ ____
ROOT
ATOM      1  C   UNL     1       2.827   3.442  18.914  0.00  0.00    +0.000 A 
ATOM      2  C   UNL     1       3.673   2.628  18.169  0.00  0.00    +0.000 A 
ATOM      3  C   UNL     1       4.523   3.168  17.207  0.00  0.00    +0.000 A 
ATOM      4  C   UNL     1       4.571   4.547  16.927  0.00  0.00    +0.000 A 
ATOM      5  C   UNL     1       3.699   5.358  17.713  0.00  0.00    +0.000 A 
ATOM      6  S   UNL     1       3.446   7.061  17.620  0.00  0.00    +0.000 S 
ATOM      7  C   UNL     1       2.287   6.993  18.826  0.00  0.00    +0.000 A 
ATOM      8  N   UNL     1       1.625   8.128  19.228  0.00  0.00    +0.000 N 
ATOM      9  C   UNL     1       1.540   9.315  18.548  0.00  0.00    +0.000 C 
ATOM     10  O   UNL     1       2.094   9.554  17.470  0.00  0.00    +0.000 OA
ATOM     11  N   UNL     1       0.773  10.302  19.167  0.00  0.00    +0.000 N 
ATOM     12  C   UNL     1       0.089  10.177  20.448  0.00  0.00    +0.000 C 
ATOM     13  C   UNL     1       0.774  11.043  21.492  0.00  0.00    +0.000 C 
ATOM     14  C   UNL     1       0.947  12.487  21.030  0.00  0.00    +0.000 C 
ATOM     15  C   UNL     1       1.589  12.563  19.644  0.00  0.00    +0.000 C 
ATOM     16  C   UNL     1       0.861  11.669  18.642  0.00  0.00    +0.000 C 
ATOM     17  N   UNL     1       2.071   5.825  19.358  0.00  0.00    +0.000 NA
ATOM     18  C   UNL     1       2.841   4.847  18.692  0.00  0.00    +0.000 A 
ATOM     19  H   UNL     1       0.993   7.923  19.970  0.00  0.00    +0.000 HD
ENDROOT
BRANCH   4  20
ATOM     20  N   UNL     1       5.425   5.016  15.954  0.00  0.00    +0.000 N 
ATOM     21  C   UNL     1       5.223   4.780  14.519  0.00  0.00    +0.000 C 
ATOM     22  C   UNL     1       6.516   4.216  13.913  0.00  0.00    +0.000 C 
ATOM     23  O   UNL     1       7.650   5.058  14.187  0.00  0.00    +0.000 OA
ATOM     24  C   UNL     1       7.830   5.212  15.597  0.00  0.00    +0.000 C 
ATOM     25  C   UNL     1       6.604   5.839  16.258  0.00  0.00    +0.000 C 
ENDBRANCH   4  20
BRANCH   1  27
ATOM     26  C   UNL     1       0.631   2.625  19.303  0.00  0.00    +0.000 C 
ATOM     27  O   UNL     1       1.922   2.927  19.822  0.00  0.00    +0.000 OA
ENDBRANCH   1  27
BRANCH  14  28
ATOM     28  O   UNL     1      -0.308  13.165  21.043  0.00  0.00    +0.000 OA
ATOM     29  H   UNL     1      -0.218  14.011  21.507  0.00  0.00    +0.000 HD
ENDBRANCH  14  28
TORSDOF 3
ENDMDL
MODEL 5
REMARK VINA RESULT:      -6.4      2.758      8.957
REMARK  Name = 
REMARK  4 active torsions:
REMARK  status: ('A' for Active; 'I' for Inactive)
REMARK    1  A    between atoms: C_1  and  O_2
REMARK    2  A    between atoms: O_2  and  C_3
REMARK    3  A    between atoms: C_6  and  N_7
REMARK    4  A    between atoms: C_22  and  O_23
REMARK                            x       y       z     vdW  Elec       q    Type
REMARK                         _______ _______ _______ _____ _____    ______ ____
ROOT
ATOM      1  C   UNL     1      -1.718  10.621  17.299  0.00  0.00    +0.000 A 
ATOM      2  C   UNL     1      -2.401  11.638  17.958  0.00  0.00    +0.000 A 
ATOM      3  C   UNL     1      -2.018  12.051  19.231  0.00  0.00    +0.000 A 
ATOM      4  C   UNL     1      -0.938  11.469  19.923  0.00  0.00    +0.000 A 
ATOM      5  C   UNL     1      -0.251  10.436  19.220  0.00  0.00    +0.000 A 
ATOM      6  S   UNL     1       1.071   9.468  19.759  0.00  0.00    +0.000 S 
ATOM      7  C   UNL     1       1.074   8.605  18.325  0.00  0.00    +0.000 A 
ATOM      8  N   UNL     1       1.960   7.574  18.128  0.00  0.00    +0.000 N 
ATOM      9  C   UNL     1       2.673   6.908  19.091  0.00  0.00    +0.000 C 
ATOM     10  O   UNL     1       2.651   7.171  20.297  0.00  0.00    +0.000 OA
ATOM     11  N   UNL     1       3.482   5.872  18.621  0.00  0.00    +0.000 N 
ATOM     12  C   UNL     1       3.635   5.468  17.229  0.00  0.00    +0.000 C 
ATOM     13  C   UNL     1       5.021   5.836  16.728  0.00  0.00    +0.000 C 
ATOM     14  C   UNL     1       6.128   5.317  17.640  0.00  0.00    +0.000 C 
ATOM     15  C   UNL     1       5.879   5.691  19.102  0.00  0.00    +0.000 C 
ATOM     16  C   UNL     1       4.469   5.301  19.544  0.00  0.00    +0.000 C 
ATOM     17  N   UNL     1       0.213   8.977  17.422  0.00  0.00    +0.000 NA
ATOM     18  C   UNL     1      -0.606  10.005  17.937  0.00  0.00    +0.000 A 
ATOM     19  H   UNL     1       1.853   7.186  17.217  0.00  0.00    +0.000 HD
ENDROOT
BRANCH   4  20
ATOM     20  N   UNL     1      -0.619  11.915  21.186  0.00  0.00    +0.000 N 
ATOM     21  C   UNL     1      -1.155  11.318  22.415  0.00  0.00    +0.000 C 
ATOM     22  C   UNL     1      -1.738  12.426  23.303  0.00  0.00    +0.000 C 
ATOM     23  O   UNL     1      -0.779  13.468  23.560  0.00  0.00    +0.000 OA
ATOM     24  C   UNL     1      -0.329  14.048  22.333  0.00  0.00    +0.000 C 
ATOM     25  C   UNL     1       0.331  13.011  21.426  0.00  0.00    +0.000 C 
ENDBRANCH   4  20
BRANCH   1  27
ATOM     26  C   UNL     1      -3.090  10.932  15.386  0.00  0.00    +0.000 C 
ATOM     27  O   UNL     1      -2.121  10.142  16.068  0.00  0.00    +0.000 OA
ENDBRANCH   1  27
BRANCH  14  28
ATOM     28  O   UNL     1       6.265   3.904  17.497  0.00  0.00    +0.000 OA
ATOM     29  H   UNL     1       6.790   3.550  18.231  0.00  0.00    +0.000 HD
ENDBRANCH  14  28
TORSDOF 3
ENDMDL
MODEL 6
REMARK VINA RESULT:      -6.3      1.399      1.811
REMARK  Name = 
REMARK  4 active torsions:
REMARK  status: ('A' for Active; 'I' for Inactive)
REMARK    1  A    between atoms: C_1  and  O_2
REMARK    2  A    between atoms: O_2  and  C_3
REMARK    3  A    between atoms: C_6  and  N_7
REMARK    4  A    between atoms: C_22  and  O_23
REMARK                            x       y       z     vdW  Elec       q    Type
REMARK                         _______ _______ _______ _____ _____    ______ ____
ROOT
ATOM      1  C   UNL     1       2.709   2.967  20.041  0.00  0.00    +0.000 A 
ATOM      2  C   UNL     1       3.748   2.327  19.373  0.00  0.00    +0.000 A 
ATOM      3  C   UNL     1       4.672   3.052  18.625  0.00  0.00    +0.000 A 
ATOM      4  C   UNL     1       4.609   4.452  18.493  0.00  0.00    +0.000 A 
ATOM      5  C   UNL     1       3.540   5.082  19.197  0.00  0.00    +0.000 A 
ATOM      6  S   UNL     1       3.115   6.753  19.230  0.00  0.00    +0.000 S 
ATOM      7  C   UNL     1       1.796   6.438  20.211  0.00  0.00    +0.000 A 
ATOM      8  N   UNL     1       0.956   7.451  20.604  0.00  0.00    +0.000 N 
ATOM      9  C   UNL     1       0.847   8.695  20.038  0.00  0.00    +0.000 C 
ATOM     10  O   UNL     1       1.533   9.108  19.098  0.00  0.00    +0.000 OA
ATOM     11  N   UNL     1      -0.114   9.528  20.613  0.00  0.00    +0.000 N 
ATOM     12  C   UNL     1      -0.972   9.193  21.743  0.00  0.00    +0.000 C 
ATOM     13  C   UNL     1      -0.561   9.994  22.966  0.00  0.00    +0.000 C 
ATOM     14  C   UNL     1      -0.480  11.491  22.683  0.00  0.00    +0.000 C 
ATOM     15  C   UNL     1       0.359  11.787  21.439  0.00  0.00    +0.000 C 
ATOM     16  C   UNL     1      -0.098  10.948  20.246  0.00  0.00    +0.000 C 
ATOM     17  N   UNL     1       1.631   5.202  20.582  0.00  0.00    +0.000 NA
ATOM     18  C   UNL     1       2.600   4.383  19.963  0.00  0.00    +0.000 A 
ATOM     19  H   UNL     1       0.243   7.104  21.206  0.00  0.00    +0.000 HD
ENDROOT
BRANCH   4  20
ATOM     20  N   UNL     1       5.547   5.108  17.728  0.00  0.00    +0.000 N 
ATOM     21  C   UNL     1       5.208   5.925  16.556  0.00  0.00    +0.000 C 
ATOM     22  C   UNL     1       6.069   5.482  15.365  0.00  0.00    +0.000 C 
ATOM     23  O   UNL     1       7.473   5.509  15.678  0.00  0.00    +0.000 OA
ATOM     24  C   UNL     1       7.755   4.659  16.793  0.00  0.00    +0.000 C 
ATOM     25  C   UNL     1       6.984   5.087  18.039  0.00  0.00    +0.000 C 
ENDBRANCH   4  20
BRANCH   1  27
ATOM     26  C   UNL     1       1.551   2.646  22.089  0.00  0.00    +0.000 C 
ATOM     27  O   UNL     1       1.737   2.268  20.730  0.00  0.00    +0.000 OA
ENDBRANCH   1  27
BRANCH  14  28
ATOM     28  O   UNL     1      -1.790  12.042  22.551  0.00  0.00    +0.000 OA
ATOM     29  H   UNL     1      -1.730  12.956  22.234  0.00  0.00    +0.000 HD
ENDBRANCH  14  28
TORSDOF 3
ENDMDL
MODEL 7
REMARK VINA RESULT:      -6.0      1.652      1.900
REMARK  Name = 
REMARK  4 active torsions:
REMARK  status: ('A' for Active; 'I' for Inactive)
REMARK    1  A    between atoms: C_1  and  O_2
REMARK    2  A    between atoms: O_2  and  C_3
REMARK    3  A    between atoms: C_6  and  N_7
REMARK    4  A    between atoms: C_22  and  O_23
REMARK                            x       y       z     vdW  Elec       q    Type
REMARK                         _______ _______ _______ _____ _____    ______ ____
ROOT
ATOM      1  C   UNL     1       2.360   3.875  17.705  0.00  0.00    +0.000 A 
ATOM      2  C   UNL     1       3.497   3.114  17.451  0.00  0.00    +0.000 A 
ATOM      3  C   UNL     1       4.759   3.700  17.420  0.00  0.00    +0.000 A 
ATOM      4  C   UNL     1       4.960   5.078  17.631  0.00  0.00    +0.000 A 
ATOM      5  C   UNL     1       3.779   5.831  17.898  0.00  0.00    +0.000 A 
ATOM      6  S   UNL     1       3.625   7.530  18.153  0.00  0.00    +0.000 S 
ATOM      7  C   UNL     1       1.964   7.395  18.304  0.00  0.00    +0.000 A 
ATOM      8  N   UNL     1       1.185   8.509  18.509  0.00  0.00    +0.000 N 
ATOM      9  C   UNL     1       1.543   9.814  18.290  0.00  0.00    +0.000 C 
ATOM     10  O   UNL     1       2.656  10.188  17.908  0.00  0.00    +0.000 OA
ATOM     11  N   UNL     1       0.546  10.755  18.549  0.00  0.00    +0.000 N 
ATOM     12  C   UNL     1      -0.798  10.468  19.034  0.00  0.00    +0.000 C 
ATOM     13  C   UNL     1      -0.951  10.949  20.467  0.00  0.00    +0.000 C 
ATOM     14  C   UNL     1      -0.537  12.407  20.640  0.00  0.00    +0.000 C 
ATOM     15  C   UNL     1       0.843  12.679  20.038  0.00  0.00    +0.000 C 
ATOM     16  C   UNL     1       0.935  12.169  18.601  0.00  0.00    +0.000 C 
ATOM     17  N   UNL     1       1.470   6.193  18.234  0.00  0.00    +0.000 NA
ATOM     18  C   UNL     1       2.498   5.270  17.945  0.00  0.00    +0.000 A 
ATOM     19  H   UNL     1       0.227   8.255  18.607  0.00  0.00    +0.000 HD
ENDROOT
BRANCH   4  20
ATOM     20  N   UNL     1       6.234   5.597  17.575  0.00  0.00    +0.000 N 
ATOM     21  C   UNL     1       7.345   5.106  18.400  0.00  0.00    +0.000 C 
ATOM     22  C   UNL     1       8.014   6.295  19.105  0.00  0.00    +0.000 C 
ATOM     23  O   UNL     1       8.418   7.314  18.172  0.00  0.00    +0.000 OA
ATOM     24  C   UNL     1       7.292   7.791  17.432  0.00  0.00    +0.000 C 
ATOM     25  C   UNL     1       6.617   6.669  16.645  0.00  0.00    +0.000 C 
ENDBRANCH   4  20
BRANCH   1  27
ATOM     26  C   UNL     1       0.747   2.493  18.765  0.00  0.00    +0.000 C 
ATOM     27  O   UNL     1       1.090   3.334  17.669  0.00  0.00    +0.000 OA
ENDBRANCH   1  27
BRANCH  14  28
ATOM     28  O   UNL     1      -1.517  13.271  20.065  0.00  0.00    +0.000 OA
ATOM     29  H   UNL     1      -1.477  13.213  19.098  0.00  0.00    +0.000 HD
ENDBRANCH  14  28
TORSDOF 3
ENDMDL
MODEL 8
REMARK VINA RESULT:      -6.0      1.825      4.425
REMARK  Name = 
REMARK  4 active torsions:
REMARK  status: ('A' for Active; 'I' for Inactive)
REMARK    1  A    between atoms: C_1  and  O_2
REMARK    2  A    between atoms: O_2  and  C_3
REMARK    3  A    between atoms: C_6  and  N_7
REMARK    4  A    between atoms: C_22  and  O_23
REMARK                            x       y       z     vdW  Elec       q    Type
REMARK                         _______ _______ _______ _____ _____    ______ ____
ROOT
ATOM      1  C   UNL     1       5.610   6.538  16.793  0.00  0.00    +0.000 A 
ATOM      2  C   UNL     1       5.861   5.181  16.613  0.00  0.00    +0.000 A 
ATOM      3  C   UNL     1       4.910   4.225  16.961  0.00  0.00    +0.000 A 
ATOM      4  C   UNL     1       3.661   4.565  17.515  0.00  0.00    +0.000 A 
ATOM      5  C   UNL     1       3.429   5.962  17.679  0.00  0.00    +0.000 A 
ATOM      6  S   UNL     1       2.055   6.748  18.365  0.00  0.00    +0.000 S 
ATOM      7  C   UNL     1       2.760   8.251  18.151  0.00  0.00    +0.000 A 
ATOM      8  N   UNL     1       2.116   9.393  18.563  0.00  0.00    +0.000 N 
ATOM      9  C   UNL     1       1.070   9.474  19.444  0.00  0.00    +0.000 C 
ATOM     10  O   UNL     1       0.515   8.508  19.976  0.00  0.00    +0.000 OA
ATOM     11  N   UNL     1       0.621  10.767  19.717  0.00  0.00    +0.000 N 
ATOM     12  C   UNL     1       1.153  11.997  19.143  0.00  0.00    +0.000 C 
ATOM     13  C   UNL     1       0.143  12.604  18.183  0.00  0.00    +0.000 C 
ATOM     14  C   UNL     1      -1.236  12.770  18.815  0.00  0.00    +0.000 C 
ATOM     15  C   UNL     1      -1.713  11.478  19.480  0.00  0.00    +0.000 C 
ATOM     16  C   UNL     1      -0.654  10.915  20.427  0.00  0.00    +0.000 C 
ATOM     17  N   UNL     1       3.924   8.269  17.568  0.00  0.00    +0.000 NA
ATOM     18  C   UNL     1       4.360   6.948  17.332  0.00  0.00    +0.000 A 
ATOM     19  H   UNL     1       2.653  10.201  18.337  0.00  0.00    +0.000 HD
ENDROOT
BRANCH   4  20
ATOM     20  N   UNL     1       2.771   3.570  17.849  0.00  0.00    +0.000 N 
ATOM     21  C   UNL     1       1.346   3.813  18.112  0.00  0.00    +0.000 C 
ATOM     22  C   UNL     1       0.963   3.170  19.452  0.00  0.00    +0.000 C 
ATOM     23  O   UNL     1       1.309   1.774  19.496  0.00  0.00    +0.000 OA
ATOM     24  C   UNL     1       2.712   1.598  19.285  0.00  0.00    +0.000 C 
ATOM     25  C   UNL     1       3.154   2.153  17.932  0.00  0.00    +0.000 C 
ENDBRANCH   4  20
BRANCH   1  27
ATOM     26  C   UNL     1       7.565   7.673  17.521  0.00  0.00    +0.000 C 
ATOM     27  O   UNL     1       6.562   7.502  16.525  0.00  0.00    +0.000 OA
ENDBRANCH   1  27
BRANCH  14  28
ATOM     28  O   UNL     1      -1.224  13.846  19.753  0.00  0.00    +0.000 OA
ATOM     29  H   UNL     1      -1.210  14.692  19.280  0.00  0.00    +0.000 HD
ENDBRANCH  14  28
TORSDOF 3
ENDMDL
MODEL 9
REMARK VINA RESULT:      -6.0      6.425     10.421
REMARK  Name = 
REMARK  4 active torsions:
REMARK  status: ('A' for Active; 'I' for Inactive)
REMARK    1  A    between atoms: C_1  and  O_2
REMARK    2  A    between atoms: O_2  and  C_3
REMARK    3  A    between atoms: C_6  and  N_7
REMARK    4  A    between atoms: C_22  and  O_23
REMARK                            x       y       z     vdW  Elec       q    Type
REMARK                         _______ _______ _______ _____ _____    ______ ____
ROOT
ATOM      1  C   UNL     1      -1.186  10.624  18.746  0.00  0.00    +0.000 A 
ATOM      2  C   UNL     1      -1.876  10.023  17.697  0.00  0.00    +0.000 A 
ATOM      3  C   UNL     1      -3.206  10.341  17.441  0.00  0.00    +0.000 A 
ATOM      4  C   UNL     1      -3.928  11.268  18.219  0.00  0.00    +0.000 A 
ATOM      5  C   UNL     1      -3.192  11.874  19.279  0.00  0.00    +0.000 A 
ATOM      6  S   UNL     1      -3.746  13.003  20.460  0.00  0.00    +0.000 S 
ATOM      7  C   UNL     1      -2.246  13.022  21.201  0.00  0.00    +0.000 A 
ATOM      8  N   UNL     1      -2.029  13.779  22.327  0.00  0.00    +0.000 N 
ATOM      9  C   UNL     1      -2.982  14.308  23.158  0.00  0.00    +0.000 C 
ATOM     10  O   UNL     1      -4.202  14.212  22.989  0.00  0.00    +0.000 OA
ATOM     11  N   UNL     1      -2.489  15.013  24.257  0.00  0.00    +0.000 N 
ATOM     12  C   UNL     1      -1.082  15.236  24.569  0.00  0.00    +0.000 C 
ATOM     13  C   UNL     1      -0.727  16.698  24.359  0.00  0.00    +0.000 C 
ATOM     14  C   UNL     1      -1.674  17.641  25.096  0.00  0.00    +0.000 C 
ATOM     15  C   UNL     1      -3.139  17.312  24.805  0.00  0.00    +0.000 C 
ATOM     16  C   UNL     1      -3.433  15.829  25.028  0.00  0.00    +0.000 C 
ATOM     17  N   UNL     1      -1.314  12.302  20.646  0.00  0.00    +0.000 NA
ATOM     18  C   UNL     1      -1.852  11.583  19.557  0.00  0.00    +0.000 A 
ATOM     19  H   UNL     1      -1.082  13.704  22.625  0.00  0.00    +0.000 HD
ENDROOT
BRANCH   4  20
ATOM     20  N   UNL     1      -5.246  11.528  17.919  0.00  0.00    +0.000 N 
ATOM     21  C   UNL     1      -5.668  12.483  16.887  0.00  0.00    +0.000 C 
ATOM     22  C   UNL     1      -6.697  13.452  17.487  0.00  0.00    +0.000 C 
ATOM     23  O   UNL     1      -7.802  12.756  18.090  0.00  0.00    +0.000 OA
ATOM     24  C   UNL     1      -7.340  11.879  19.120  0.00  0.00    +0.000 C 
ATOM     25  C   UNL     1      -6.364  10.837  18.579  0.00  0.00    +0.000 C 
ENDBRANCH   4  20
BRANCH   1  27
ATOM     26  C   UNL     1       0.861   9.659  18.025  0.00  0.00    +0.000 C 
ATOM     27  O   UNL     1       0.112  10.274  19.067  0.00  0.00    +0.000 OA
ENDBRANCH   1  27
BRANCH  14  28
ATOM     28  O   UNL     1      -1.418  17.603  26.499  0.00  0.00    +0.000 OA
ATOM     29  H   UNL     1      -0.509  17.891  26.674  0.00  0.00    +0.000 HD
ENDBRANCH  14  28
TORSDOF 3
ENDMDL
