MODEL 1
REMARK VINA RESULT:      -8.6      0.000      0.000
REMARK  Name = 
REMARK  4 active torsions:
REMARK  status: ('A' for Active; 'I' for Inactive)
REMARK    1  A    between atoms: C_1  and  C_2
REMARK    2  A    between atoms: C_7  and  C_9
REMARK    3  A    between atoms: N_17  and  C_18
REMARK    4  A    between atoms: C_18  and  C_19
REMARK                            x       y       z     vdW  Elec       q    Type
REMARK                         _______ _______ _______ _____ _____    ______ ____
ROOT
ATOM      1  C   UNL     1       2.236   7.846  18.905  0.00  0.00    +0.000 A 
ATOM      2  C   UNL     1       2.326   6.785  19.845  0.00  0.00    +0.000 A 
ATOM      3  C   UNL     1       3.156   5.680  19.619  0.00  0.00    +0.000 A 
ATOM      4  C   UNL     1       3.892   5.675  18.453  0.00  0.00    +0.000 A 
ATOM      5  C   UNL     1       3.834   6.725  17.554  0.00  0.00    +0.000 A 
ATOM      6  C   UNL     1       3.012   7.827  17.739  0.00  0.00    +0.000 A 
ATOM      7  C   UNL     1       4.810   6.453  16.498  0.00  0.00    +0.000 C 
ATOM      8  O   UNL     1       5.090   7.257  15.632  0.00  0.00    +0.000 OA
ATOM      9  N   UNL     1       5.339   5.218  16.765  0.00  0.00    +0.000 N 
ATOM     10  C   UNL     1       4.852   4.698  17.934  0.00  0.00    +0.000 C 
ATOM     11  O   UNL     1       5.132   3.653  18.487  0.00  0.00    +0.000 OA
ENDROOT
BRANCH   1  18
ATOM     12  C   UNL     1      -1.907  12.302  23.333  0.00  0.00    +0.000 C 
ATOM     13  C   UNL     1      -1.261  11.515  22.254  0.00  0.00    +0.000 A 
ATOM     14  N   UNL     1      -1.291  11.843  20.980  0.00  0.00    +0.000 NA
ATOM     15  N   UNL     1      -0.548  10.976  20.205  0.00  0.00    +0.000 NA
ATOM     16  C   UNL     1       0.000  10.022  20.918  0.00  0.00    +0.000 A 
ATOM     17  N   UNL     1       0.824   8.999  20.520  0.00  0.00    +0.000 N 
ATOM     18  C   UNL     1       1.373   9.007  19.256  0.00  0.00    +0.000 C 
ATOM     19  O   UNL     1       1.263   9.892  18.416  0.00  0.00    +0.000 OA
ATOM     20  S   UNL     1      -0.374  10.075  22.585  0.00  0.00    +0.000 S 
ATOM     21  H   UNL     1       1.102   8.328  21.221  0.00  0.00    +0.000 HD
ENDBRANCH   1  18
BRANCH   9  22
ATOM     22  C   UNL     1       6.354   4.579  15.943  0.00  0.00    +0.000 C 
BRANCH  22  23
ATOM     23  C   UNL     1       6.208   4.895  14.447  0.00  0.00    +0.000 C 
ATOM     24  C   UNL     1       5.993   3.628  13.630  0.00  0.00    +0.000 C 
ATOM     25  C   UNL     1       6.771   3.862  12.361  0.00  0.00    +0.000 C 
ATOM     26  C   UNL     1       7.844   4.845  12.767  0.00  0.00    +0.000 C 
ATOM     27  O   UNL     1       7.395   5.528  13.939  0.00  0.00    +0.000 OA
ENDBRANCH  22  23
ENDBRANCH   9  22
TORSDOF 3
ENDMDL
MODEL 2
REMARK VINA RESULT:      -8.6      3.158     10.469
REMARK  Name = 
REMARK  4 active torsions:
REMARK  status: ('A' for Active; 'I' for Inactive)
REMARK    1  A    between atoms: C_1  and  C_2
REMARK    2  A    between atoms: C_7  and  C_9
REMARK    3  A    between atoms: N_17  and  C_18
REMARK    4  A    between atoms: C_18  and  C_19
REMARK                            x       y       z     vdW  Elec       q    Type
REMARK                         _______ _______ _______ _____ _____    ______ ____
ROOT
ATOM      1  C   UNL     1       1.665   8.260  19.518  0.00  0.00    +0.000 A 
ATOM      2  C   UNL     1       1.352   9.190  18.490  0.00  0.00    +0.000 A 
ATOM      3  C   UNL     1       0.606  10.345  18.755  0.00  0.00    +0.000 A 
ATOM      4  C   UNL     1       0.203  10.547  20.058  0.00  0.00    +0.000 A 
ATOM      5  C   UNL     1       0.538   9.662  21.068  0.00  0.00    +0.000 A 
ATOM      6  C   UNL     1       1.262   8.501  20.837  0.00  0.00    +0.000 A 
ATOM      7  C   UNL     1       0.054  10.229  22.326  0.00  0.00    +0.000 C 
ATOM      8  O   UNL     1       0.313   9.749  23.412  0.00  0.00    +0.000 OA
ATOM      9  N   UNL     1      -0.622  11.376  22.003  0.00  0.00    +0.000 N 
ATOM     10  C   UNL     1      -0.557  11.643  20.663  0.00  0.00    +0.000 C 
ATOM     11  O   UNL     1      -1.007  12.588  20.045  0.00  0.00    +0.000 OA
ENDROOT
BRANCH   1  18
ATOM     12  C   UNL     1       6.808   4.375  15.633  0.00  0.00    +0.000 C 
ATOM     13  C   UNL     1       5.678   4.888  16.448  0.00  0.00    +0.000 A 
ATOM     14  N   UNL     1       5.036   4.179  17.350  0.00  0.00    +0.000 NA
ATOM     15  N   UNL     1       4.079   4.924  18.009  0.00  0.00    +0.000 NA
ATOM     16  C   UNL     1       4.025   6.158  17.570  0.00  0.00    +0.000 A 
ATOM     17  N   UNL     1       3.235   7.199  17.988  0.00  0.00    +0.000 N 
ATOM     18  C   UNL     1       2.510   7.090  19.156  0.00  0.00    +0.000 C 
ATOM     19  O   UNL     1       2.532   6.154  19.945  0.00  0.00    +0.000 OA
ATOM     20  S   UNL     1       5.106   6.506  16.292  0.00  0.00    +0.000 S 
ATOM     21  H   UNL     1       3.306   8.068  17.481  0.00  0.00    +0.000 HD
ENDBRANCH   1  18
BRANCH   9  22
ATOM     22  C   UNL     1      -1.260  12.240  22.983  0.00  0.00    +0.000 C 
BRANCH  22  23
ATOM     23  C   UNL     1      -2.791  12.274  22.854  0.00  0.00    +0.000 C 
ATOM     24  C   UNL     1      -3.306  13.701  22.729  0.00  0.00    +0.000 C 
ATOM     25  C   UNL     1      -4.588  13.709  23.521  0.00  0.00    +0.000 C 
ATOM     26  C   UNL     1      -4.401  12.600  24.529  0.00  0.00    +0.000 C 
ATOM     27  O   UNL     1      -3.415  11.701  24.016  0.00  0.00    +0.000 OA
ENDBRANCH  22  23
ENDBRANCH   9  22
TORSDOF 3
ENDMDL
MODEL 3
REMARK VINA RESULT:      -8.5      1.592      1.622
REMARK  Name = 
REMARK  4 active torsions:
REMARK  status: ('A' for Active; 'I' for Inactive)
REMARK    1  A    between atoms: C_1  and  C_2
REMARK    2  A    between atoms: C_7  and  C_9
REMARK    3  A    between atoms: N_17  and  C_18
REMARK    4  A    between atoms: C_18  and  C_19
REMARK                            x       y       z     vdW  Elec       q    Type
REMARK                         _______ _______ _______ _____ _____    ______ ____
ROOT
ATOM      1  C   UNL     1       2.339   7.001  19.302  0.00  0.00    +0.000 A 
ATOM      2  C   UNL     1       1.954   5.682  19.660  0.00  0.00    +0.000 A 
ATOM      3  C   UNL     1       2.542   4.562  19.057  0.00  0.00    +0.000 A 
ATOM      4  C   UNL     1       3.519   4.798  18.114  0.00  0.00    +0.000 A 
ATOM      5  C   UNL     1       3.922   6.082  17.791  0.00  0.00    +0.000 A 
ATOM      6  C   UNL     1       3.351   7.212  18.357  0.00  0.00    +0.000 A 
ATOM      7  C   UNL     1       5.038   5.968  16.853  0.00  0.00    +0.000 C 
ATOM      8  O   UNL     1       5.696   6.921  16.486  0.00  0.00    +0.000 OA
ATOM      9  N   UNL     1       5.193   4.632  16.590  0.00  0.00    +0.000 N 
ATOM     10  C   UNL     1       4.330   3.867  17.327  0.00  0.00    +0.000 C 
ATOM     11  O   UNL     1       4.224   2.657  17.373  0.00  0.00    +0.000 OA
ENDROOT
BRANCH   1  18
ATOM     12  C   UNL     1      -1.273  13.549  20.148  0.00  0.00    +0.000 C 
ATOM     13  C   UNL     1      -0.448  12.319  20.234  0.00  0.00    +0.000 A 
ATOM     14  N   UNL     1      -0.039  11.779  21.361  0.00  0.00    +0.000 NA
ATOM     15  N   UNL     1       0.649  10.602  21.152  0.00  0.00    +0.000 NA
ATOM     16  C   UNL     1       0.747  10.306  19.878  0.00  0.00    +0.000 A 
ATOM     17  N   UNL     1       1.324   9.216  19.278  0.00  0.00    +0.000 N 
ATOM     18  C   UNL     1       1.701   8.128  20.036  0.00  0.00    +0.000 C 
ATOM     19  O   UNL     1       1.519   7.976  21.238  0.00  0.00    +0.000 OA
ATOM     20  S   UNL     1       0.044  11.455  18.825  0.00  0.00    +0.000 S 
ATOM     21  H   UNL     1       1.343   9.198  18.268  0.00  0.00    +0.000 HD
ENDBRANCH   1  18
BRANCH   9  22
ATOM     22  C   UNL     1       6.206   4.097  15.695  0.00  0.00    +0.000 C 
BRANCH  22  23
ATOM     23  C   UNL     1       6.130   4.681  14.277  0.00  0.00    +0.000 C 
ATOM     24  C   UNL     1       6.070   3.580  13.225  0.00  0.00    +0.000 C 
ATOM     25  C   UNL     1       6.905   4.103  12.085  0.00  0.00    +0.000 C 
ATOM     26  C   UNL     1       7.869   5.059  12.747  0.00  0.00    +0.000 C 
ATOM     27  O   UNL     1       7.293   5.476  13.987  0.00  0.00    +0.000 OA
ENDBRANCH  22  23
ENDBRANCH   9  22
TORSDOF 3
ENDMDL
MODEL 4
REMARK VINA RESULT:      -8.4      2.196      2.696
REMARK  Name = 
REMARK  4 active torsions:
REMARK  status: ('A' for Active; 'I' for Inactive)
REMARK    1  A    between atoms: C_1  and  C_2
REMARK    2  A    between atoms: C_7  and  C_9
REMARK    3  A    between atoms: N_17  and  C_18
REMARK    4  A    between atoms: C_18  and  C_19
REMARK                            x       y       z     vdW  Elec       q    Type
REMARK                         _______ _______ _______ _____ _____    ______ ____
ROOT
ATOM      1  C   UNL     1       1.454   7.352  20.448  0.00  0.00    +0.000 A 
ATOM      2  C   UNL     1       1.409   6.055  21.024  0.00  0.00    +0.000 A 
ATOM      3  C   UNL     1       2.086   4.975  20.442  0.00  0.00    +0.000 A 
ATOM      4  C   UNL     1       2.808   5.232  19.296  0.00  0.00    +0.000 A 
ATOM      5  C   UNL     1       2.884   6.503  18.754  0.00  0.00    +0.000 A 
ATOM      6  C   UNL     1       2.214   7.590  19.296  0.00  0.00    +0.000 A 
ATOM      7  C   UNL     1       3.810   6.444  17.623  0.00  0.00    +0.000 C 
ATOM      8  O   UNL     1       4.188   7.430  17.024  0.00  0.00    +0.000 OA
ATOM      9  N   UNL     1       4.175   5.130  17.486  0.00  0.00    +0.000 N 
ATOM     10  C   UNL     1       3.630   4.347  18.467  0.00  0.00    +0.000 C 
ATOM     11  O   UNL     1       3.775   3.157  18.670  0.00  0.00    +0.000 OA
ENDROOT
BRANCH   1  18
ATOM     12  C   UNL     1      -0.573  14.435  21.986  0.00  0.00    +0.000 C 
ATOM     13  C   UNL     1      -0.218  12.994  21.959  0.00  0.00    +0.000 A 
ATOM     14  N   UNL     1      -0.658  12.108  22.825  0.00  0.00    +0.000 NA
ATOM     15  N   UNL     1      -0.230  10.831  22.522  0.00  0.00    +0.000 NA
ATOM     16  C   UNL     1       0.527  10.805  21.451  0.00  0.00    +0.000 A 
ATOM     17  N   UNL     1       1.112   9.735  20.823  0.00  0.00    +0.000 N 
ATOM     18  C   UNL     1       0.751   8.450  21.167  0.00  0.00    +0.000 C 
ATOM     19  O   UNL     1      -0.121   8.124  21.963  0.00  0.00    +0.000 OA
ATOM     20  S   UNL     1       0.814  12.335  20.745  0.00  0.00    +0.000 S 
ATOM     21  H   UNL     1       1.708   9.931  20.032  0.00  0.00    +0.000 HD
ENDBRANCH   1  18
BRANCH   9  22
ATOM     22  C   UNL     1       5.093   4.649  16.467  0.00  0.00    +0.000 C 
BRANCH  22  23
ATOM     23  C   UNL     1       6.566   4.939  16.793  0.00  0.00    +0.000 C 
ATOM     24  C   UNL     1       6.814   4.930  18.296  0.00  0.00    +0.000 C 
ATOM     25  C   UNL     1       7.808   6.039  18.520  0.00  0.00    +0.000 C 
ATOM     26  C   UNL     1       7.572   6.980  17.362  0.00  0.00    +0.000 C 
ATOM     27  O   UNL     1       6.951   6.237  16.311  0.00  0.00    +0.000 OA
ENDBRANCH  22  23
ENDBRANCH   9  22
TORSDOF 3
ENDMDL
MODEL 5
REMARK VINA RESULT:      -8.4      3.951     10.471
REMARK  Name = 
REMARK  4 active torsions:
REMARK  status: ('A' for Active; 'I' for Inactive)
REMARK    1  A    between atoms: C_1  and  C_2
REMARK    2  A    between atoms: C_7  and  C_9
REMARK    3  A    between atoms: N_17  and  C_18
REMARK    4  A    between atoms: C_18  and  C_19
REMARK                            x       y       z     vdW  Elec       q    Type
REMARK                         _______ _______ _______ _____ _____    ______ ____
ROOT
ATOM      1  C   UNL     1       1.453   8.725  19.518  0.00  0.00    +0.000 A 
ATOM      2  C   UNL     1       1.070   9.632  18.494  0.00  0.00    +0.000 A 
ATOM      3  C   UNL     1       0.253  10.737  18.767  0.00  0.00    +0.000 A 
ATOM      4  C   UNL     1      -0.149  10.913  20.074  0.00  0.00    +0.000 A 
ATOM      5  C   UNL     1       0.254  10.051  21.080  0.00  0.00    +0.000 A 
ATOM      6  C   UNL     1       1.049   8.940  20.842  0.00  0.00    +0.000 A 
ATOM      7  C   UNL     1      -0.252  10.586  22.344  0.00  0.00    +0.000 C 
ATOM      8  O   UNL     1       0.049  10.125  23.426  0.00  0.00    +0.000 OA
ATOM      9  N   UNL     1      -1.005  11.686  22.028  0.00  0.00    +0.000 N 
ATOM     10  C   UNL     1      -0.972  11.957  20.687  0.00  0.00    +0.000 C 
ATOM     11  O   UNL     1      -1.488  12.871  20.074  0.00  0.00    +0.000 OA
ENDROOT
BRANCH   1  18
ATOM     12  C   UNL     1       4.437   1.822  19.812  0.00  0.00    +0.000 C 
ATOM     13  C   UNL     1       4.106   3.262  19.667  0.00  0.00    +0.000 A 
ATOM     14  N   UNL     1       4.738   4.088  18.862  0.00  0.00    +0.000 NA
ATOM     15  N   UNL     1       4.177   5.349  18.871  0.00  0.00    +0.000 NA
ATOM     16  C   UNL     1       3.157   5.431  19.690  0.00  0.00    +0.000 A 
ATOM     17  N   UNL     1       2.331   6.494  19.951  0.00  0.00    +0.000 N 
ATOM     18  C   UNL     1       2.369   7.612  19.146  0.00  0.00    +0.000 C 
ATOM     19  O   UNL     1       3.040   7.760  18.132  0.00  0.00    +0.000 OA
ATOM     20  S   UNL     1       2.817   3.992  20.549  0.00  0.00    +0.000 S 
ATOM     21  H   UNL     1       1.626   6.371  20.664  0.00  0.00    +0.000 HD
ENDBRANCH   1  18
BRANCH   9  22
ATOM     22  C   UNL     1      -1.688  12.508  23.015  0.00  0.00    +0.000 C 
BRANCH  22  23
ATOM     23  C   UNL     1      -3.216  12.357  22.974  0.00  0.00    +0.000 C 
ATOM     24  C   UNL     1      -3.905  13.712  22.875  0.00  0.00    +0.000 C 
ATOM     25  C   UNL     1      -5.131  13.574  23.740  0.00  0.00    +0.000 C 
ATOM     26  C   UNL     1      -4.755  12.505  24.738  0.00  0.00    +0.000 C 
ATOM     27  O   UNL     1      -3.700  11.725  24.172  0.00  0.00    +0.000 OA
ENDBRANCH  22  23
ENDBRANCH   9  22
TORSDOF 3
ENDMDL
MODEL 6
REMARK VINA RESULT:      -8.3      2.805      4.248
REMARK  Name = 
REMARK  4 active torsions:
REMARK  status: ('A' for Active; 'I' for Inactive)
REMARK    1  A    between atoms: C_1  and  C_2
REMARK    2  A    between atoms: C_7  and  C_9
REMARK    3  A    between atoms: N_17  and  C_18
REMARK    4  A    between atoms: C_18  and  C_19
REMARK                            x       y       z     vdW  Elec       q    Type
REMARK                         _______ _______ _______ _____ _____    ______ ____
ROOT
ATOM      1  C   UNL     1       1.485   9.002  19.150  0.00  0.00    +0.000 A 
ATOM      2  C   UNL     1       2.054   9.050  17.849  0.00  0.00    +0.000 A 
ATOM      3  C   UNL     1       2.880   8.022  17.376  0.00  0.00    +0.000 A 
ATOM      4  C   UNL     1       3.103   6.957  18.222  0.00  0.00    +0.000 A 
ATOM      5  C   UNL     1       2.519   6.890  19.475  0.00  0.00    +0.000 A 
ATOM      6  C   UNL     1       1.710   7.897  19.980  0.00  0.00    +0.000 A 
ATOM      7  C   UNL     1       2.870   5.593  20.053  0.00  0.00    +0.000 C 
ATOM      8  O   UNL     1       2.398   5.182  21.094  0.00  0.00    +0.000 OA
ATOM      9  N   UNL     1       3.715   4.984  19.163  0.00  0.00    +0.000 N 
ATOM     10  C   UNL     1       3.884   5.733  18.030  0.00  0.00    +0.000 C 
ATOM     11  O   UNL     1       4.527   5.480  17.030  0.00  0.00    +0.000 OA
ENDROOT
BRANCH   1  18
ATOM     12  C   UNL     1      -2.777  13.148  23.763  0.00  0.00    +0.000 C 
ATOM     13  C   UNL     1      -2.115  12.419  22.653  0.00  0.00    +0.000 A 
ATOM     14  N   UNL     1      -2.185  12.775  21.388  0.00  0.00    +0.000 NA
ATOM     15  N   UNL     1      -1.418  11.964  20.579  0.00  0.00    +0.000 NA
ATOM     16  C   UNL     1      -0.811  11.020  21.257  0.00  0.00    +0.000 A 
ATOM     17  N   UNL     1       0.052  10.047  20.819  0.00  0.00    +0.000 N 
ATOM     18  C   UNL     1       0.575  10.111  19.545  0.00  0.00    +0.000 C 
ATOM     19  O   UNL     1       0.407  11.010  18.730  0.00  0.00    +0.000 OA
ATOM     20  S   UNL     1      -1.154  11.015  22.932  0.00  0.00    +0.000 S 
ATOM     21  H   UNL     1       0.375   9.373  21.498  0.00  0.00    +0.000 HD
ENDBRANCH   1  18
BRANCH   9  22
ATOM     22  C   UNL     1       4.294   3.667  19.370  0.00  0.00    +0.000 C 
BRANCH  22  23
ATOM     23  C   UNL     1       3.298   2.523  19.126  0.00  0.00    +0.000 C 
ATOM     24  C   UNL     1       2.255   2.907  18.084  0.00  0.00    +0.000 C 
ATOM     25  C   UNL     1       0.976   2.288  18.586  0.00  0.00    +0.000 C 
ATOM     26  C   UNL     1       1.180   2.189  20.080  0.00  0.00    +0.000 C 
ATOM     27  O   UNL     1       2.587   2.197  20.333  0.00  0.00    +0.000 OA
ENDBRANCH  22  23
ENDBRANCH   9  22
TORSDOF 3
ENDMDL
MODEL 7
REMARK VINA RESULT:      -8.3      1.090      1.318
REMARK  Name = 
REMARK  4 active torsions:
REMARK  status: ('A' for Active; 'I' for Inactive)
REMARK    1  A    between atoms: C_1  and  C_2
REMARK    2  A    between atoms: C_7  and  C_9
REMARK    3  A    between atoms: N_17  and  C_18
REMARK    4  A    between atoms: C_18  and  C_19
REMARK                            x       y       z     vdW  Elec       q    Type
REMARK                         _______ _______ _______ _____ _____    ______ ____
ROOT
ATOM      1  C   UNL     1       2.296   7.778  18.774  0.00  0.00    +0.000 A 
ATOM      2  C   UNL     1       2.199   6.757  19.758  0.00  0.00    +0.000 A 
ATOM      3  C   UNL     1       3.119   5.703  19.808  0.00  0.00    +0.000 A 
ATOM      4  C   UNL     1       4.131   5.708  18.872  0.00  0.00    +0.000 A 
ATOM      5  C   UNL     1       4.250   6.721  17.936  0.00  0.00    +0.000 A 
ATOM      6  C   UNL     1       3.348   7.771  17.849  0.00  0.00    +0.000 A 
ATOM      7  C   UNL     1       5.480   6.480  17.182  0.00  0.00    +0.000 C 
ATOM      8  O   UNL     1       5.930   7.270  16.378  0.00  0.00    +0.000 OA
ATOM      9  N   UNL     1       5.990   5.293  17.638  0.00  0.00    +0.000 N 
ATOM     10  C   UNL     1       5.246   4.781  18.666  0.00  0.00    +0.000 C 
ATOM     11  O   UNL     1       5.432   3.776  19.324  0.00  0.00    +0.000 OA
ENDROOT
BRANCH   1  18
ATOM     12  C   UNL     1      -2.113  12.957  21.996  0.00  0.00    +0.000 C 
ATOM     13  C   UNL     1      -1.439  11.936  21.155  0.00  0.00    +0.000 A 
ATOM     14  N   UNL     1      -1.598  11.826  19.854  0.00  0.00    +0.000 NA
ATOM     15  N   UNL     1      -0.797  10.840  19.316  0.00  0.00    +0.000 NA
ATOM     16  C   UNL     1      -0.077  10.235  20.229  0.00  0.00    +0.000 A 
ATOM     17  N   UNL     1       0.851   9.234  20.087  0.00  0.00    +0.000 N 
ATOM     18  C   UNL     1       1.308   8.889  18.833  0.00  0.00    +0.000 C 
ATOM     19  O   UNL     1       1.021   9.435  17.775  0.00  0.00    +0.000 OA
ATOM     20  S   UNL     1      -0.342  10.786  21.825  0.00  0.00    +0.000 S 
ATOM     21  H   UNL     1       1.264   8.861  20.930  0.00  0.00    +0.000 HD
ENDBRANCH   1  18
BRANCH   9  22
ATOM     22  C   UNL     1       7.218   4.696  17.137  0.00  0.00    +0.000 C 
BRANCH  22  23
ATOM     23  C   UNL     1       7.034   3.971  15.795  0.00  0.00    +0.000 C 
ATOM     24  C   UNL     1       7.490   4.836  14.628  0.00  0.00    +0.000 C 
ATOM     25  C   UNL     1       6.495   4.549  13.534  0.00  0.00    +0.000 C 
ATOM     26  C   UNL     1       5.252   4.117  14.276  0.00  0.00    +0.000 C 
ATOM     27  O   UNL     1       5.649   3.655  15.569  0.00  0.00    +0.000 OA
ENDBRANCH  22  23
ENDBRANCH   9  22
TORSDOF 3
ENDMDL
MODEL 8
REMARK VINA RESULT:      -8.3      2.438      3.549
REMARK  Name = 
REMARK  4 active torsions:
REMARK  status: ('A' for Active; 'I' for Inactive)
REMARK    1  A    between atoms: C_1  and  C_2
REMARK    2  A    between atoms: C_7  and  C_9
REMARK    3  A    between atoms: N_17  and  C_18
REMARK    4  A    between atoms: C_18  and  C_19
REMARK                            x       y       z     vdW  Elec       q    Type
REMARK                         _______ _______ _______ _____ _____    ______ ____
ROOT
ATOM      1  C   UNL     1       1.074   8.657  20.353  0.00  0.00    +0.000 A 
ATOM      2  C   UNL     1       1.388   9.262  19.106  0.00  0.00    +0.000 A 
ATOM      3  C   UNL     1       2.227   8.628  18.180  0.00  0.00    +0.000 A 
ATOM      4  C   UNL     1       2.719   7.387  18.525  0.00  0.00    +0.000 A 
ATOM      5  C   UNL     1       2.383   6.780  19.723  0.00  0.00    +0.000 A 
ATOM      6  C   UNL     1       1.569   7.386  20.668  0.00  0.00    +0.000 A 
ATOM      7  C   UNL     1       2.977   5.444  19.718  0.00  0.00    +0.000 C 
ATOM      8  O   UNL     1       2.750   4.614  20.576  0.00  0.00    +0.000 OA
ATOM      9  N   UNL     1       3.711   5.346  18.565  0.00  0.00    +0.000 N 
ATOM     10  C   UNL     1       3.587   6.466  17.789  0.00  0.00    +0.000 C 
ATOM     11  O   UNL     1       4.063   6.700  16.695  0.00  0.00    +0.000 OA
ENDROOT
BRANCH   1  18
ATOM     12  C   UNL     1      -3.176  14.380  22.766  0.00  0.00    +0.000 C 
ATOM     13  C   UNL     1      -2.322  13.183  22.565  0.00  0.00    +0.000 A 
ATOM     14  N   UNL     1      -2.270  12.163  23.394  0.00  0.00    +0.000 NA
ATOM     15  N   UNL     1      -1.451  11.157  22.926  0.00  0.00    +0.000 NA
ATOM     16  C   UNL     1      -0.905  11.460  21.773  0.00  0.00    +0.000 A 
ATOM     17  N   UNL     1      -0.065  10.716  20.982  0.00  0.00    +0.000 N 
ATOM     18  C   UNL     1       0.129   9.378  21.249  0.00  0.00    +0.000 C 
ATOM     19  O   UNL     1      -0.432   8.716  22.114  0.00  0.00    +0.000 OA
ATOM     20  S   UNL     1      -1.311  13.011  21.179  0.00  0.00    +0.000 S 
ATOM     21  H   UNL     1       0.293  11.153  20.146  0.00  0.00    +0.000 HD
ENDBRANCH   1  18
BRANCH   9  22
ATOM     22  C   UNL     1       4.464   4.162  18.184  0.00  0.00    +0.000 C 
BRANCH  22  23
ATOM     23  C   UNL     1       5.983   4.340  18.324  0.00  0.00    +0.000 C 
ATOM     24  C   UNL     1       6.324   5.447  19.312  0.00  0.00    +0.000 C 
ATOM     25  C   UNL     1       7.523   6.133  18.710  0.00  0.00    +0.000 C 
ATOM     26  C   UNL     1       7.392   5.865  17.229  0.00  0.00    +0.000 C 
ATOM     27  O   UNL     1       6.574   4.704  17.064  0.00  0.00    +0.000 OA
ENDBRANCH  22  23
ENDBRANCH   9  22
TORSDOF 3
ENDMDL
MODEL 9
REMARK VINA RESULT:      -8.2      3.192      4.522
REMARK  Name = 
REMARK  4 active torsions:
REMARK  status: ('A' for Active; 'I' for Inactive)
REMARK    1  A    between atoms: C_1  and  C_2
REMARK    2  A    between atoms: C_7  and  C_9
REMARK    3  A    between atoms: N_17  and  C_18
REMARK    4  A    between atoms: C_18  and  C_19
REMARK                            x       y       z     vdW  Elec       q    Type
REMARK                         _______ _______ _______ _____ _____    ______ ____
ROOT
ATOM      1  C   UNL     1       1.138   9.277  19.604  0.00  0.00    +0.000 A 
ATOM      2  C   UNL     1       1.597   9.532  18.284  0.00  0.00    +0.000 A 
ATOM      3  C   UNL     1       2.446   8.636  17.622  0.00  0.00    +0.000 A 
ATOM      4  C   UNL     1       2.801   7.489  18.300  0.00  0.00    +0.000 A 
ATOM      5  C   UNL     1       2.324   7.221  19.572  0.00  0.00    +0.000 A 
ATOM      6  C   UNL     1       1.496   8.094  20.261  0.00  0.00    +0.000 A 
ATOM      7  C   UNL     1       2.800   5.889  19.946  0.00  0.00    +0.000 C 
ATOM      8  O   UNL     1       2.437   5.315  20.953  0.00  0.00    +0.000 OA
ATOM      9  N   UNL     1       3.608   5.462  18.925  0.00  0.00    +0.000 N 
ATOM     10  C   UNL     1       3.640   6.360  17.893  0.00  0.00    +0.000 C 
ATOM     11  O   UNL     1       4.216   6.285  16.825  0.00  0.00    +0.000 OA
ENDROOT
BRANCH   1  18
ATOM     12  C   UNL     1      -5.071  13.500  20.108  0.00  0.00    +0.000 C 
ATOM     13  C   UNL     1      -3.728  12.872  20.162  0.00  0.00    +0.000 A 
ATOM     14  N   UNL     1      -2.844  13.097  21.110  0.00  0.00    +0.000 NA
ATOM     15  N   UNL     1      -1.710  12.328  20.954  0.00  0.00    +0.000 NA
ATOM     16  C   UNL     1      -1.772  11.565  19.890  0.00  0.00    +0.000 A 
ATOM     17  N   UNL     1      -0.866  10.649  19.418  0.00  0.00    +0.000 N 
ATOM     18  C   UNL     1       0.194  10.257  20.207  0.00  0.00    +0.000 C 
ATOM     19  O   UNL     1       0.407  10.594  21.365  0.00  0.00    +0.000 OA
ATOM     20  S   UNL     1      -3.200  11.747  18.967  0.00  0.00    +0.000 S 
ATOM     21  H   UNL     1      -1.078  10.196  18.541  0.00  0.00    +0.000 HD
ENDBRANCH   1  18
BRANCH   9  22
ATOM     22  C   UNL     1       4.282   4.174  18.914  0.00  0.00    +0.000 C 
BRANCH  22  23
ATOM     23  C   UNL     1       3.335   2.997  18.634  0.00  0.00    +0.000 C 
ATOM     24  C   UNL     1       2.050   3.466  17.964  0.00  0.00    +0.000 C 
ATOM     25  C   UNL     1       0.973   2.608  18.574  0.00  0.00    +0.000 C 
ATOM     26  C   UNL     1       1.535   2.220  19.922  0.00  0.00    +0.000 C 
ATOM     27  O   UNL     1       2.957   2.342  19.857  0.00  0.00    +0.000 OA
ENDBRANCH  22  23
ENDBRANCH   9  22
TORSDOF 3
ENDMDL
