MODEL 1
REMARK VINA RESULT:      -6.6      0.000      0.000
REMARK  Name = 
REMARK  10 active torsions:
REMARK  status: ('A' for Active; 'I' for Inactive)
REMARK    1  A    between atoms: C_1  and  C_2
REMARK    2  A    between atoms: C_2  and  C_3
REMARK    3  A    between atoms: C_3  and  C_4
REMARK    4  A    between atoms: C_4  and  O_5
REMARK    5  A    between atoms: C_4  and  C_6
REMARK    6  A    between atoms: C_7  and  C_8
REMARK    7  A    between atoms: N_13  and  C_14
REMARK    8  A    between atoms: C_14  and  C_15
REMARK    9  A    between atoms: N_17  and  C_18
REMARK   10  A    between atoms: C_18  and  C_19
REMARK                            x       y       z     vdW  Elec       q    Type
REMARK                         _______ _______ _______ _____ _____    ______ ____
ROOT
ATOM      1  C   UNL     1       4.120   5.275  17.577  0.00  0.00    +0.000 A 
ATOM      2  C   UNL     1       3.806   6.637  17.782  0.00  0.00    +0.000 A 
ATOM      3  C   UNL     1       2.947   7.058  18.816  0.00  0.00    +0.000 A 
ATOM      4  N   UNL     1       2.555   8.352  18.901  0.00  0.00    +0.000 NA
ATOM      5  C   UNL     1       1.638   8.733  19.844  0.00  0.00    +0.000 A 
ATOM      6  N   UNL     1       1.217  10.072  19.675  0.00  0.00    +0.000 N 
ATOM      7  C   UNL     1       1.146   7.791  20.813  0.00  0.00    +0.000 A 
ATOM      8  N   UNL     1       0.203   7.884  21.732  0.00  0.00    +0.000 N 
ATOM      9  N   UNL     1       1.622   6.501  20.734  0.00  0.00    +0.000 NA
ATOM     10  C   UNL     1       2.460   6.137  19.743  0.00  0.00    +0.000 A 
ATOM     11  C   UNL     1       2.840   4.804  19.597  0.00  0.00    +0.000 A 
ATOM     12  C   UNL     1       3.635   4.366  18.510  0.00  0.00    +0.000 A 
ATOM     13 CL   UNL     1       3.942   2.667  18.379  0.00  0.00    +0.000 Cl
ATOM     14  H   UNL     1       0.958  10.584  20.480  0.00  0.00    +0.000 HD
ATOM     15  H   UNL     1       0.260   7.107  22.452  0.00  0.00    +0.000 HD
ENDROOT
BRANCH   1  17
ATOM     16  C   UNL     1       5.584   4.496  15.364  0.00  0.00    +0.000 C 
ATOM     17  C   UNL     1       4.886   4.853  16.406  0.00  0.00    +0.000 C 
BRANCH  16  18
ATOM     18  C   UNL     1       6.396   4.080  14.149  0.00  0.00    +0.000 C 
BRANCH  18  19
ATOM     19  O   UNL     1       7.253   5.154  13.786  0.00  0.00    +0.000 OA
ATOM     20  H   UNL     1       7.418   5.671  14.594  0.00  0.00    +0.000 HD
ENDBRANCH  18  19
BRANCH  18  21
ATOM     21  C   UNL     1       5.468   3.724  12.991  0.00  0.00    +0.000 C 
BRANCH  21  23
ATOM     22  C   UNL     1       5.787   1.761  11.460  0.00  0.00    +0.000 C 
ATOM     23  C   UNL     1       6.246   3.167  11.800  0.00  0.00    +0.000 C 
ENDBRANCH  21  23
ENDBRANCH  18  21
ENDBRANCH  16  18
ENDBRANCH   1  17
BRANCH   6  24
ATOM     24  C   UNL     1       1.371  10.717  18.371  0.00  0.00    +0.000 C 
ATOM     25  C   UNL     1       2.207  11.954  18.128  0.00  0.00    +0.000 C 
ENDBRANCH   6  24
BRANCH   8  26
ATOM     26  C   UNL     1      -0.834   8.852  21.991  0.00  0.00    +0.000 C 
ATOM     27  C   UNL     1      -0.623   9.952  23.008  0.00  0.00    +0.000 C 
ENDBRANCH   8  26
TORSDOF 7
ENDMDL
MODEL 2
REMARK VINA RESULT:      -6.5      4.571      9.965
REMARK  Name = 
REMARK  10 active torsions:
REMARK  status: ('A' for Active; 'I' for Inactive)
REMARK    1  A    between atoms: C_1  and  C_2
REMARK    2  A    between atoms: C_2  and  C_3
REMARK    3  A    between atoms: C_3  and  C_4
REMARK    4  A    between atoms: C_4  and  O_5
REMARK    5  A    between atoms: C_4  and  C_6
REMARK    6  A    between atoms: C_7  and  C_8
REMARK    7  A    between atoms: N_13  and  C_14
REMARK    8  A    between atoms: C_14  and  C_15
REMARK    9  A    between atoms: N_17  and  C_18
REMARK   10  A    between atoms: C_18  and  C_19
REMARK                            x       y       z     vdW  Elec       q    Type
REMARK                         _______ _______ _______ _____ _____    ______ ____
ROOT
ATOM      1  C   UNL     1       0.506   9.795  20.669  0.00  0.00    +0.000 A 
ATOM      2  C   UNL     1       1.070   8.577  21.110  0.00  0.00    +0.000 A 
ATOM      3  C   UNL     1       1.785   7.727  20.244  0.00  0.00    +0.000 A 
ATOM      4  N   UNL     1       2.193   6.504  20.660  0.00  0.00    +0.000 NA
ATOM      5  C   UNL     1       2.793   5.643  19.781  0.00  0.00    +0.000 A 
ATOM      6  N   UNL     1       2.990   4.358  20.337  0.00  0.00    +0.000 N 
ATOM      7  C   UNL     1       3.082   6.051  18.433  0.00  0.00    +0.000 A 
ATOM      8  N   UNL     1       3.546   5.387  17.391  0.00  0.00    +0.000 N 
ATOM      9  N   UNL     1       2.713   7.328  18.070  0.00  0.00    +0.000 NA
ATOM     10  C   UNL     1       2.048   8.122  18.932  0.00  0.00    +0.000 A 
ATOM     11  C   UNL     1       1.570   9.364  18.519  0.00  0.00    +0.000 A 
ATOM     12  C   UNL     1       0.780  10.182  19.362  0.00  0.00    +0.000 A 
ATOM     13 CL   UNL     1       0.150  11.649  18.692  0.00  0.00    +0.000 Cl
ATOM     14  H   UNL     1       3.768   3.832  20.029  0.00  0.00    +0.000 HD
ATOM     15  H   UNL     1       3.890   6.029  16.620  0.00  0.00    +0.000 HD
ENDROOT
BRANCH   1  17
ATOM     16  C   UNL     1      -1.152  11.269  22.319  0.00  0.00    +0.000 C 
ATOM     17  C   UNL     1      -0.360  10.578  21.547  0.00  0.00    +0.000 C 
BRANCH  16  18
ATOM     18  C   UNL     1      -2.074  12.076  23.218  0.00  0.00    +0.000 C 
BRANCH  18  19
ATOM     19  O   UNL     1      -3.361  12.130  22.616  0.00  0.00    +0.000 OA
ATOM     20  H   UNL     1      -3.308  12.776  21.891  0.00  0.00    +0.000 HD
ENDBRANCH  18  19
BRANCH  18  21
ATOM     21  C   UNL     1      -1.520  13.482  23.417  0.00  0.00    +0.000 C 
BRANCH  21  23
ATOM     22  C   UNL     1      -1.775  15.276  25.155  0.00  0.00    +0.000 C 
ATOM     23  C   UNL     1      -2.503  14.371  24.177  0.00  0.00    +0.000 C 
ENDBRANCH  21  23
ENDBRANCH  18  21
ENDBRANCH  16  18
ENDBRANCH   1  17
BRANCH   6  24
ATOM     24  C   UNL     1       2.180   3.934  21.478  0.00  0.00    +0.000 C 
ATOM     25  C   UNL     1       1.548   2.566  21.611  0.00  0.00    +0.000 C 
ENDBRANCH   6  24
BRANCH   8  26
ATOM     26  C   UNL     1       3.739   3.984  17.118  0.00  0.00    +0.000 C 
ATOM     27  C   UNL     1       2.572   3.023  17.175  0.00  0.00    +0.000 C 
ENDBRANCH   8  26
TORSDOF 7
ENDMDL
MODEL 3
REMARK VINA RESULT:      -6.5      4.580      9.539
REMARK  Name = 
REMARK  10 active torsions:
REMARK  status: ('A' for Active; 'I' for Inactive)
REMARK    1  A    between atoms: C_1  and  C_2
REMARK    2  A    between atoms: C_2  and  C_3
REMARK    3  A    between atoms: C_3  and  C_4
REMARK    4  A    between atoms: C_4  and  O_5
REMARK    5  A    between atoms: C_4  and  C_6
REMARK    6  A    between atoms: C_7  and  C_8
REMARK    7  A    between atoms: N_13  and  C_14
REMARK    8  A    between atoms: C_14  and  C_15
REMARK    9  A    between atoms: N_17  and  C_18
REMARK   10  A    between atoms: C_18  and  C_19
REMARK                            x       y       z     vdW  Elec       q    Type
REMARK                         _______ _______ _______ _____ _____    ______ ____
ROOT
ATOM      1  C   UNL     1       0.526   9.866  20.549  0.00  0.00    +0.000 A 
ATOM      2  C   UNL     1       1.053   8.638  21.009  0.00  0.00    +0.000 A 
ATOM      3  C   UNL     1       1.773   7.770  20.165  0.00  0.00    +0.000 A 
ATOM      4  N   UNL     1       2.145   6.542  20.596  0.00  0.00    +0.000 NA
ATOM      5  C   UNL     1       2.751   5.665  19.736  0.00  0.00    +0.000 A 
ATOM      6  N   UNL     1       2.908   4.379  20.302  0.00  0.00    +0.000 N 
ATOM      7  C   UNL     1       3.083   6.061  18.395  0.00  0.00    +0.000 A 
ATOM      8  N   UNL     1       3.560   5.384  17.367  0.00  0.00    +0.000 N 
ATOM      9  N   UNL     1       2.749   7.344  18.017  0.00  0.00    +0.000 NA
ATOM     10  C   UNL     1       2.078   8.155  18.859  0.00  0.00    +0.000 A 
ATOM     11  C   UNL     1       1.636   9.405  18.429  0.00  0.00    +0.000 A 
ATOM     12  C   UNL     1       0.841  10.242  19.248  0.00  0.00    +0.000 A 
ATOM     13 CL   UNL     1       0.259  11.718  18.557  0.00  0.00    +0.000 Cl
ATOM     14  H   UNL     1       3.683   3.836  20.016  0.00  0.00    +0.000 HD
ATOM     15  H   UNL     1       3.937   6.015  16.603  0.00  0.00    +0.000 HD
ENDROOT
BRANCH   1  17
ATOM     16  C   UNL     1      -1.107  11.403  22.167  0.00  0.00    +0.000 C 
ATOM     17  C   UNL     1      -0.347  10.670  21.401  0.00  0.00    +0.000 C 
BRANCH  16  18
ATOM     18  C   UNL     1      -1.993  12.256  23.059  0.00  0.00    +0.000 C 
BRANCH  18  19
ATOM     19  O   UNL     1      -2.988  11.422  23.641  0.00  0.00    +0.000 OA
ATOM     20  H   UNL     1      -3.516  11.058  22.909  0.00  0.00    +0.000 HD
ENDBRANCH  18  19
BRANCH  18  21
ATOM     21  C   UNL     1      -2.642  13.372  22.247  0.00  0.00    +0.000 C 
BRANCH  21  23
ATOM     22  C   UNL     1      -3.964  12.807  20.189  0.00  0.00    +0.000 C 
ATOM     23  C   UNL     1      -4.005  12.949  21.700  0.00  0.00    +0.000 C 
ENDBRANCH  21  23
ENDBRANCH  18  21
ENDBRANCH  16  18
ENDBRANCH   1  17
BRANCH   6  24
ATOM     24  C   UNL     1       2.060   3.976  21.423  0.00  0.00    +0.000 C 
ATOM     25  C   UNL     1       1.797   2.539  21.818  0.00  0.00    +0.000 C 
ENDBRANCH   6  24
BRANCH   8  26
ATOM     26  C   UNL     1       3.732   3.976  17.105  0.00  0.00    +0.000 C 
ATOM     27  C   UNL     1       2.567   3.021  17.246  0.00  0.00    +0.000 C 
ENDBRANCH   8  26
TORSDOF 7
ENDMDL
MODEL 4
REMARK VINA RESULT:      -6.4      4.314      5.909
REMARK  Name = 
REMARK  10 active torsions:
REMARK  status: ('A' for Active; 'I' for Inactive)
REMARK    1  A    between atoms: C_1  and  C_2
REMARK    2  A    between atoms: C_2  and  C_3
REMARK    3  A    between atoms: C_3  and  C_4
REMARK    4  A    between atoms: C_4  and  O_5
REMARK    5  A    between atoms: C_4  and  C_6
REMARK    6  A    between atoms: C_7  and  C_8
REMARK    7  A    between atoms: N_13  and  C_14
REMARK    8  A    between atoms: C_14  and  C_15
REMARK    9  A    between atoms: N_17  and  C_18
REMARK   10  A    between atoms: C_18  and  C_19
REMARK                            x       y       z     vdW  Elec       q    Type
REMARK                         _______ _______ _______ _____ _____    ______ ____
ROOT
ATOM      1  C   UNL     1       1.165   8.838  18.837  0.00  0.00    +0.000 A 
ATOM      2  C   UNL     1       0.415   9.321  17.742  0.00  0.00    +0.000 A 
ATOM      3  C   UNL     1      -0.725  10.130  17.914  0.00  0.00    +0.000 A 
ATOM      4  N   UNL     1      -1.501  10.461  16.855  0.00  0.00    +0.000 NA
ATOM      5  C   UNL     1      -2.665  11.158  17.046  0.00  0.00    +0.000 A 
ATOM      6  N   UNL     1      -3.430  11.261  15.861  0.00  0.00    +0.000 N 
ATOM      7  C   UNL     1      -3.036  11.626  18.353  0.00  0.00    +0.000 A 
ATOM      8  N   UNL     1      -4.130  12.211  18.803  0.00  0.00    +0.000 N 
ATOM      9  N   UNL     1      -2.183  11.327  19.394  0.00  0.00    +0.000 NA
ATOM     10  C   UNL     1      -1.089  10.567  19.188  0.00  0.00    +0.000 A 
ATOM     11  C   UNL     1      -0.299  10.167  20.264  0.00  0.00    +0.000 A 
ATOM     12  C   UNL     1       0.798   9.285  20.102  0.00  0.00    +0.000 A 
ATOM     13 CL   UNL     1       1.628   8.771  21.531  0.00  0.00    +0.000 Cl
ATOM     14  H   UNL     1      -3.993  12.065  15.739  0.00  0.00    +0.000 HD
ATOM     15  H   UNL     1      -3.990  12.662  19.752  0.00  0.00    +0.000 HD
ENDROOT
BRANCH   1  17
ATOM     16  C   UNL     1       3.197   7.002  18.457  0.00  0.00    +0.000 C 
ATOM     17  C   UNL     1       2.247   7.878  18.636  0.00  0.00    +0.000 C 
BRANCH  16  18
ATOM     18  C   UNL     1       4.304   5.983  18.248  0.00  0.00    +0.000 C 
BRANCH  18  19
ATOM     19  O   UNL     1       4.834   5.622  19.517  0.00  0.00    +0.000 OA
ATOM     20  H   UNL     1       5.778   5.860  19.508  0.00  0.00    +0.000 HD
ENDBRANCH  18  19
BRANCH  18  21
ATOM     21  C   UNL     1       5.399   6.567  17.360  0.00  0.00    +0.000 C 
BRANCH  21  23
ATOM     22  C   UNL     1       4.868   4.399  16.211  0.00  0.00    +0.000 C 
ATOM     23  C   UNL     1       5.632   5.708  16.118  0.00  0.00    +0.000 C 
ENDBRANCH  21  23
ENDBRANCH  18  21
ENDBRANCH  16  18
ENDBRANCH   1  17
BRANCH   6  24
ATOM     24  C   UNL     1      -3.214  10.303  14.777  0.00  0.00    +0.000 C 
ATOM     25  C   UNL     1      -4.157  10.114  13.609  0.00  0.00    +0.000 C 
ENDBRANCH   6  24
BRANCH   8  26
ATOM     26  C   UNL     1      -5.444  12.416  18.242  0.00  0.00    +0.000 C 
ATOM     27  C   UNL     1      -6.433  11.274  18.165  0.00  0.00    +0.000 C 
ENDBRANCH   8  26
TORSDOF 7
ENDMDL
MODEL 5
REMARK VINA RESULT:      -6.3      4.036      5.773
REMARK  Name = 
REMARK  10 active torsions:
REMARK  status: ('A' for Active; 'I' for Inactive)
REMARK    1  A    between atoms: C_1  and  C_2
REMARK    2  A    between atoms: C_2  and  C_3
REMARK    3  A    between atoms: C_3  and  C_4
REMARK    4  A    between atoms: C_4  and  O_5
REMARK    5  A    between atoms: C_4  and  C_6
REMARK    6  A    between atoms: C_7  and  C_8
REMARK    7  A    between atoms: N_13  and  C_14
REMARK    8  A    between atoms: C_14  and  C_15
REMARK    9  A    between atoms: N_17  and  C_18
REMARK   10  A    between atoms: C_18  and  C_19
REMARK                            x       y       z     vdW  Elec       q    Type
REMARK                         _______ _______ _______ _____ _____    ______ ____
ROOT
ATOM      1  C   UNL     1       1.895   6.930  19.349  0.00  0.00    +0.000 A 
ATOM      2  C   UNL     1       1.206   8.062  19.840  0.00  0.00    +0.000 A 
ATOM      3  C   UNL     1       1.410   9.350  19.308  0.00  0.00    +0.000 A 
ATOM      4  N   UNL     1       0.841  10.434  19.888  0.00  0.00    +0.000 NA
ATOM      5  C   UNL     1       1.130  11.691  19.430  0.00  0.00    +0.000 A 
ATOM      6  N   UNL     1       0.592  12.702  20.259  0.00  0.00    +0.000 N 
ATOM      7  C   UNL     1       1.964  11.879  18.273  0.00  0.00    +0.000 A 
ATOM      8  N   UNL     1       2.463  12.965  17.713  0.00  0.00    +0.000 N 
ATOM      9  N   UNL     1       2.466  10.747  17.670  0.00  0.00    +0.000 NA
ATOM     10  C   UNL     1       2.234   9.527  18.196  0.00  0.00    +0.000 A 
ATOM     11  C   UNL     1       2.845   8.399  17.652  0.00  0.00    +0.000 A 
ATOM     12  C   UNL     1       2.708   7.117  18.237  0.00  0.00    +0.000 A 
ATOM     13 CL   UNL     1       3.611   5.817  17.535  0.00  0.00    +0.000 Cl
ATOM     14  H   UNL     1       0.327  13.557  19.838  0.00  0.00    +0.000 HD
ATOM     15  H   UNL     1       2.820  12.788  16.730  0.00  0.00    +0.000 HD
ENDROOT
BRANCH   1  17
ATOM     16  C   UNL     1       1.680   4.473  20.598  0.00  0.00    +0.000 C 
ATOM     17  C   UNL     1       1.780   5.638  20.020  0.00  0.00    +0.000 C 
BRANCH  16  18
ATOM     18  C   UNL     1       1.561   3.116  21.272  0.00  0.00    +0.000 C 
BRANCH  18  19
ATOM     19  O   UNL     1       2.456   3.078  22.376  0.00  0.00    +0.000 OA
ATOM     20  H   UNL     1       2.675   2.142  22.531  0.00  0.00    +0.000 HD
ENDBRANCH  18  19
BRANCH  18  21
ATOM     21  C   UNL     1       1.890   2.004  20.281  0.00  0.00    +0.000 C 
BRANCH  21  23
ATOM     22  C   UNL     1       2.356   2.296  17.831  0.00  0.00    +0.000 C 
ATOM     23  C   UNL     1       1.283   2.280  18.906  0.00  0.00    +0.000 C 
ENDBRANCH  21  23
ENDBRANCH  18  21
ENDBRANCH  16  18
ENDBRANCH   1  17
BRANCH   6  24
ATOM     24  C   UNL     1       0.253  12.392  21.647  0.00  0.00    +0.000 C 
ATOM     25  C   UNL     1      -1.158  12.362  22.192  0.00  0.00    +0.000 C 
ENDBRANCH   6  24
BRANCH   8  26
ATOM     26  C   UNL     1       2.560  14.341  18.136  0.00  0.00    +0.000 C 
ATOM     27  C   UNL     1       3.567  14.752  19.188  0.00  0.00    +0.000 C 
ENDBRANCH   8  26
TORSDOF 7
ENDMDL
MODEL 6
REMARK VINA RESULT:      -6.3      4.287      6.167
REMARK  Name = 
REMARK  10 active torsions:
REMARK  status: ('A' for Active; 'I' for Inactive)
REMARK    1  A    between atoms: C_1  and  C_2
REMARK    2  A    between atoms: C_2  and  C_3
REMARK    3  A    between atoms: C_3  and  C_4
REMARK    4  A    between atoms: C_4  and  O_5
REMARK    5  A    between atoms: C_4  and  C_6
REMARK    6  A    between atoms: C_7  and  C_8
REMARK    7  A    between atoms: N_13  and  C_14
REMARK    8  A    between atoms: C_14  and  C_15
REMARK    9  A    between atoms: N_17  and  C_18
REMARK   10  A    between atoms: C_18  and  C_19
REMARK                            x       y       z     vdW  Elec       q    Type
REMARK                         _______ _______ _______ _____ _____    ______ ____
ROOT
ATOM      1  C   UNL     1       1.095   8.913  19.016  0.00  0.00    +0.000 A 
ATOM      2  C   UNL     1       0.351   9.331  17.891  0.00  0.00    +0.000 A 
ATOM      3  C   UNL     1      -0.782  10.160  18.008  0.00  0.00    +0.000 A 
ATOM      4  N   UNL     1      -1.554  10.429  16.928  0.00  0.00    +0.000 NA
ATOM      5  C   UNL     1      -2.710  11.148  17.072  0.00  0.00    +0.000 A 
ATOM      6  N   UNL     1      -3.473  11.182  15.881  0.00  0.00    +0.000 N 
ATOM      7  C   UNL     1      -3.078  11.705  18.346  0.00  0.00    +0.000 A 
ATOM      8  N   UNL     1      -4.166  12.329  18.754  0.00  0.00    +0.000 N 
ATOM      9  N   UNL     1      -2.228  11.465  19.404  0.00  0.00    +0.000 NA
ATOM     10  C   UNL     1      -1.142  10.683  19.250  0.00  0.00    +0.000 A 
ATOM     11  C   UNL     1      -0.356  10.346  20.351  0.00  0.00    +0.000 A 
ATOM     12  C   UNL     1       0.731   9.446  20.248  0.00  0.00    +0.000 A 
ATOM     13 CL   UNL     1       1.556   9.018  21.709  0.00  0.00    +0.000 Cl
ATOM     14  H   UNL     1      -4.028  11.981  15.707  0.00  0.00    +0.000 HD
ATOM     15  H   UNL     1      -4.022  12.839  19.672  0.00  0.00    +0.000 HD
ENDROOT
BRANCH   1  17
ATOM     16  C   UNL     1       3.127   7.052  18.783  0.00  0.00    +0.000 C 
ATOM     17  C   UNL     1       2.168   7.931  18.880  0.00  0.00    +0.000 C 
BRANCH  16  18
ATOM     18  C   UNL     1       4.245   6.029  18.668  0.00  0.00    +0.000 C 
BRANCH  18  19
ATOM     19  O   UNL     1       4.897   6.208  17.417  0.00  0.00    +0.000 OA
ATOM     20  H   UNL     1       5.383   7.050  17.469  0.00  0.00    +0.000 HD
ENDBRANCH  18  19
BRANCH  18  21
ATOM     21  C   UNL     1       3.681   4.617  18.777  0.00  0.00    +0.000 C 
BRANCH  21  23
ATOM     22  C   UNL     1       1.409   3.851  18.033  0.00  0.00    +0.000 C 
ATOM     23  C   UNL     1       2.795   4.271  17.580  0.00  0.00    +0.000 C 
ENDBRANCH  21  23
ENDBRANCH  18  21
ENDBRANCH  16  18
ENDBRANCH   1  17
BRANCH   6  24
ATOM     24  C   UNL     1      -3.266  10.152  14.864  0.00  0.00    +0.000 C 
ATOM     25  C   UNL     1      -4.037  10.074  13.564  0.00  0.00    +0.000 C 
ENDBRANCH   6  24
BRANCH   8  26
ATOM     26  C   UNL     1      -5.477  12.510  18.180  0.00  0.00    +0.000 C 
ATOM     27  C   UNL     1      -6.706  11.986  18.890  0.00  0.00    +0.000 C 
ENDBRANCH   8  26
TORSDOF 7
ENDMDL
MODEL 7
REMARK VINA RESULT:      -6.3      3.589      5.370
REMARK  Name = 
REMARK  10 active torsions:
REMARK  status: ('A' for Active; 'I' for Inactive)
REMARK    1  A    between atoms: C_1  and  C_2
REMARK    2  A    between atoms: C_2  and  C_3
REMARK    3  A    between atoms: C_3  and  C_4
REMARK    4  A    between atoms: C_4  and  O_5
REMARK    5  A    between atoms: C_4  and  C_6
REMARK    6  A    between atoms: C_7  and  C_8
REMARK    7  A    between atoms: N_13  and  C_14
REMARK    8  A    between atoms: C_14  and  C_15
REMARK    9  A    between atoms: N_17  and  C_18
REMARK   10  A    between atoms: C_18  and  C_19
REMARK                            x       y       z     vdW  Elec       q    Type
REMARK                         _______ _______ _______ _____ _____    ______ ____
ROOT
ATOM      1  C   UNL     1       3.103   6.329  18.769  0.00  0.00    +0.000 A 
ATOM      2  C   UNL     1       2.171   7.069  19.531  0.00  0.00    +0.000 A 
ATOM      3  C   UNL     1       1.844   8.404  19.222  0.00  0.00    +0.000 A 
ATOM      4  N   UNL     1       1.055   9.129  20.050  0.00  0.00    +0.000 NA
ATOM      5  C   UNL     1       0.828  10.456  19.797  0.00  0.00    +0.000 A 
ATOM      6  N   UNL     1       0.134  11.093  20.851  0.00  0.00    +0.000 N 
ATOM      7  C   UNL     1       1.344  11.077  18.607  0.00  0.00    +0.000 A 
ATOM      8  N   UNL     1       1.353  12.332  18.200  0.00  0.00    +0.000 N 
ATOM      9  N   UNL     1       2.084  10.285  17.756  0.00  0.00    +0.000 NA
ATOM     10  C   UNL     1       2.361   9.005  18.074  0.00  0.00    +0.000 A 
ATOM     11  C   UNL     1       3.211   8.248  17.270  0.00  0.00    +0.000 A 
ATOM     12  C   UNL     1       3.607   6.936  17.625  0.00  0.00    +0.000 A 
ATOM     13 CL   UNL     1       4.757   6.144  16.601  0.00  0.00    +0.000 Cl
ATOM     14  H   UNL     1      -0.466  11.845  20.626  0.00  0.00    +0.000 HD
ATOM     15  H   UNL     1       1.577  12.423  17.168  0.00  0.00    +0.000 HD
ENDROOT
BRANCH   1  17
ATOM     16  C   UNL     1       3.911   3.811  19.576  0.00  0.00    +0.000 C 
ATOM     17  C   UNL     1       3.538   5.004  19.203  0.00  0.00    +0.000 C 
BRANCH  16  18
ATOM     18  C   UNL     1       4.345   2.422  20.012  0.00  0.00    +0.000 C 
BRANCH  18  19
ATOM     19  O   UNL     1       4.205   1.535  18.909  0.00  0.00    +0.000 OA
ATOM     20  H   UNL     1       4.994   1.650  18.351  0.00  0.00    +0.000 HD
ENDBRANCH  18  19
BRANCH  18  21
ATOM     21  C   UNL     1       3.496   1.948  21.187  0.00  0.00    +0.000 C 
BRANCH  21  23
ATOM     22  C   UNL     1       1.141   2.789  20.976  0.00  0.00    +0.000 C 
ATOM     23  C   UNL     1       2.495   3.016  21.623  0.00  0.00    +0.000 C 
ENDBRANCH  21  23
ENDBRANCH  18  21
ENDBRANCH  16  18
ENDBRANCH   1  17
BRANCH   6  24
ATOM     24  C   UNL     1       0.157  10.504  22.189  0.00  0.00    +0.000 C 
ATOM     25  C   UNL     1      -1.031  10.473  23.126  0.00  0.00    +0.000 C 
ENDBRANCH   6  24
BRANCH   8  26
ATOM     26  C   UNL     1       1.058  13.585  18.852  0.00  0.00    +0.000 C 
ATOM     27  C   UNL     1      -0.341  14.160  18.815  0.00  0.00    +0.000 C 
ENDBRANCH   8  26
TORSDOF 7
ENDMDL
MODEL 8
REMARK VINA RESULT:      -6.2      3.978      5.652
REMARK  Name = 
REMARK  10 active torsions:
REMARK  status: ('A' for Active; 'I' for Inactive)
REMARK    1  A    between atoms: C_1  and  C_2
REMARK    2  A    between atoms: C_2  and  C_3
REMARK    3  A    between atoms: C_3  and  C_4
REMARK    4  A    between atoms: C_4  and  O_5
REMARK    5  A    between atoms: C_4  and  C_6
REMARK    6  A    between atoms: C_7  and  C_8
REMARK    7  A    between atoms: N_13  and  C_14
REMARK    8  A    between atoms: C_14  and  C_15
REMARK    9  A    between atoms: N_17  and  C_18
REMARK   10  A    between atoms: C_18  and  C_19
REMARK                            x       y       z     vdW  Elec       q    Type
REMARK                         _______ _______ _______ _____ _____    ______ ____
ROOT
ATOM      1  C   UNL     1       1.955   7.081  19.525  0.00  0.00    +0.000 A 
ATOM      2  C   UNL     1       1.063   7.969  20.167  0.00  0.00    +0.000 A 
ATOM      3  C   UNL     1       0.964   9.325  19.799  0.00  0.00    +0.000 A 
ATOM      4  N   UNL     1       0.204  10.181  20.522  0.00  0.00    +0.000 NA
ATOM      5  C   UNL     1       0.197  11.517  20.222  0.00  0.00    +0.000 A 
ATOM      6  N   UNL     1      -0.508  12.280  21.181  0.00  0.00    +0.000 N 
ATOM      7  C   UNL     1       0.919  12.019  19.084  0.00  0.00    +0.000 A 
ATOM      8  N   UNL     1       1.150  13.246  18.657  0.00  0.00    +0.000 N 
ATOM      9  N   UNL     1       1.624  11.103  18.334  0.00  0.00    +0.000 NA
ATOM     10  C   UNL     1       1.681   9.809  18.704  0.00  0.00    +0.000 A 
ATOM     11  C   UNL     1       2.494   8.914  18.012  0.00  0.00    +0.000 A 
ATOM     12  C   UNL     1       2.659   7.572  18.432  0.00  0.00    +0.000 A 
ATOM     13 CL   UNL     1       3.787   6.593  17.555  0.00  0.00    +0.000 Cl
ATOM     14  H   UNL     1      -0.967  13.101  20.877  0.00  0.00    +0.000 HD
ATOM     15  H   UNL     1       1.492  13.270  17.655  0.00  0.00    +0.000 HD
ENDROOT
BRANCH   1  17
ATOM     16  C   UNL     1       2.307   4.502  20.461  0.00  0.00    +0.000 C 
ATOM     17  C   UNL     1       2.148   5.723  20.029  0.00  0.00    +0.000 C 
BRANCH  16  18
ATOM     18  C   UNL     1       2.492   3.081  20.965  0.00  0.00    +0.000 C 
BRANCH  18  19
ATOM     19  O   UNL     1       2.420   3.090  22.385  0.00  0.00    +0.000 OA
ATOM     20  H   UNL     1       2.479   2.164  22.678  0.00  0.00    +0.000 HD
ENDBRANCH  18  19
BRANCH  18  21
ATOM     21  C   UNL     1       3.836   2.528  20.504  0.00  0.00    +0.000 C 
BRANCH  21  23
ATOM     22  C   UNL     1       3.376   1.739  18.165  0.00  0.00    +0.000 C 
ATOM     23  C   UNL     1       4.070   2.788  19.016  0.00  0.00    +0.000 C 
ENDBRANCH  21  23
ENDBRANCH  18  21
ENDBRANCH  16  18
ENDBRANCH   1  17
BRANCH   6  24
ATOM     24  C   UNL     1      -0.710  11.739  22.525  0.00  0.00    +0.000 C 
ATOM     25  C   UNL     1      -2.050  11.681  23.225  0.00  0.00    +0.000 C 
ENDBRANCH   6  24
BRANCH   8  26
ATOM     26  C   UNL     1       0.969  14.549  19.250  0.00  0.00    +0.000 C 
ATOM     27  C   UNL     1      -0.124  15.472  18.758  0.00  0.00    +0.000 C 
ENDBRANCH   8  26
TORSDOF 7
ENDMDL
MODEL 9
REMARK VINA RESULT:      -6.2      4.536      6.637
REMARK  Name = 
REMARK  10 active torsions:
REMARK  status: ('A' for Active; 'I' for Inactive)
REMARK    1  A    between atoms: C_1  and  C_2
REMARK    2  A    between atoms: C_2  and  C_3
REMARK    3  A    between atoms: C_3  and  C_4
REMARK    4  A    between atoms: C_4  and  O_5
REMARK    5  A    between atoms: C_4  and  C_6
REMARK    6  A    between atoms: C_7  and  C_8
REMARK    7  A    between atoms: N_13  and  C_14
REMARK    8  A    between atoms: C_14  and  C_15
REMARK    9  A    between atoms: N_17  and  C_18
REMARK   10  A    between atoms: C_18  and  C_19
REMARK                            x       y       z     vdW  Elec       q    Type
REMARK                         _______ _______ _______ _____ _____    ______ ____
ROOT
ATOM      1  C   UNL     1       0.880   9.144  19.869  0.00  0.00    +0.000 A 
ATOM      2  C   UNL     1       0.017   9.625  18.859  0.00  0.00    +0.000 A 
ATOM      3  C   UNL     1      -0.955  10.612  19.114  0.00  0.00    +0.000 A 
ATOM      4  N   UNL     1      -1.858  10.952  18.162  0.00  0.00    +0.000 NA
ATOM      5  C   UNL     1      -2.863  11.834  18.452  0.00  0.00    +0.000 A 
ATOM      6  N   UNL     1      -3.808  11.935  17.405  0.00  0.00    +0.000 N 
ATOM      7  C   UNL     1      -2.927  12.482  19.734  0.00  0.00    +0.000 A 
ATOM      8  N   UNL     1      -3.833  13.271  20.280  0.00  0.00    +0.000 N 
ATOM      9  N   UNL     1      -1.948  12.161  20.650  0.00  0.00    +0.000 NA
ATOM     10  C   UNL     1      -1.021  11.225  20.365  0.00  0.00    +0.000 A 
ATOM     11  C   UNL     1      -0.111  10.818  21.338  0.00  0.00    +0.000 A 
ATOM     12  C   UNL     1       0.810   9.766  21.110  0.00  0.00    +0.000 A 
ATOM     13 CL   UNL     1       1.808   9.276  22.437  0.00  0.00    +0.000 Cl
ATOM     14  H   UNL     1      -4.271  12.800  17.278  0.00  0.00    +0.000 HD
ATOM     15  H   UNL     1      -3.465  13.787  21.130  0.00  0.00    +0.000 HD
ENDROOT
BRANCH   1  17
ATOM     16  C   UNL     1       2.547   6.994  19.374  0.00  0.00    +0.000 C 
ATOM     17  C   UNL     1       1.770   8.013  19.615  0.00  0.00    +0.000 C 
BRANCH  16  18
ATOM     18  C   UNL     1       3.453   5.807  19.095  0.00  0.00    +0.000 C 
BRANCH  18  19
ATOM     19  O   UNL     1       3.190   5.334  17.780  0.00  0.00    +0.000 OA
ATOM     20  H   UNL     1       3.244   4.363  17.811  0.00  0.00    +0.000 HD
ENDBRANCH  18  19
BRANCH  18  21
ATOM     21  C   UNL     1       3.205   4.702  20.117  0.00  0.00    +0.000 C 
BRANCH  21  23
ATOM     22  C   UNL     1       0.948   3.604  20.152  0.00  0.00    +0.000 C 
ATOM     23  C   UNL     1       1.783   4.760  20.673  0.00  0.00    +0.000 C 
ENDBRANCH  21  23
ENDBRANCH  18  21
ENDBRANCH  16  18
ENDBRANCH   1  17
BRANCH   6  24
ATOM     24  C   UNL     1      -3.922  10.852  16.430  0.00  0.00    +0.000 C 
ATOM     25  C   UNL     1      -3.123  10.776  15.146  0.00  0.00    +0.000 C 
ENDBRANCH   6  24
BRANCH   8  26
ATOM     26  C   UNL     1      -5.187  13.618  19.921  0.00  0.00    +0.000 C 
ATOM     27  C   UNL     1      -6.313  12.628  20.122  0.00  0.00    +0.000 C 
ENDBRANCH   8  26
TORSDOF 7
ENDMDL
