MODEL 1
REMARK VINA RESULT:      -8.7      0.000      0.000
REMARK  Name = 
REMARK  9 active torsions:
REMARK  status: ('A' for Active; 'I' for Inactive)
REMARK    1  A    between atoms: C_1  and  O_2
REMARK    2  A    between atoms: O_2  and  C_3
REMARK    3  A    between atoms: C_5  and  C_6
REMARK    4  A    between atoms: N_7  and  N_8
REMARK    5  A    between atoms: N_8  and  S_9
REMARK    6  A    between atoms: S_9  and  C_12
REMARK    7  A    between atoms: C_15  and  C_16
REMARK    8  A    between atoms: C_16  and  N_17
REMARK    9  A    between atoms: C_32  and  O_33
REMARK                            x       y       z     vdW  Elec       q    Type
REMARK                         _______ _______ _______ _____ _____    ______ ____
ROOT
ATOM      1  C   UNL     1       1.761   4.814  19.674  0.00  0.00    +0.000 A 
ATOM      2  C   UNL     1       1.930   5.378  18.407  0.00  0.00    +0.000 A 
ATOM      3  C   UNL     1       1.983   6.773  18.266  0.00  0.00    +0.000 A 
ATOM      4  C   UNL     1       1.868   7.620  19.384  0.00  0.00    +0.000 A 
ATOM      5  C   UNL     1       1.713   7.032  20.651  0.00  0.00    +0.000 A 
ATOM      6  C   UNL     1       1.648   5.639  20.798  0.00  0.00    +0.000 A 
ENDROOT
BRANCH   1   7
ATOM      7  S   UNL     1       1.571   3.044  19.837  0.00  0.00    +0.000 S 
ATOM      8  O   UNL     1       0.804   2.604  18.691  0.00  0.00    +0.000 OA
ATOM      9  O   UNL     1       1.132   2.785  21.194  0.00  0.00    +0.000 OA
BRANCH   7  10
ATOM     10  N   UNL     1       3.175   2.472  19.688  0.00  0.00    +0.000 N 
ATOM     11  H   UNL     1       3.494   1.771  20.355  0.00  0.00    +0.000 HD
BRANCH  10  13
ATOM     12  C   UNL     1       4.705   3.817  18.565  0.00  0.00    +0.000 C 
ATOM     13  N   UNL     1       3.896   2.813  18.486  0.00  0.00    +0.000 NA
BRANCH  12  16
ATOM     14  C   UNL     1       7.038   5.857  16.358  0.00  0.00    +0.000 A 
ATOM     15  C   UNL     1       6.285   5.433  17.464  0.00  0.00    +0.000 A 
ATOM     16  C   UNL     1       5.497   4.276  17.399  0.00  0.00    +0.000 A 
ATOM     17  C   UNL     1       5.457   3.531  16.222  0.00  0.00    +0.000 A 
ATOM     18  C   UNL     1       6.200   3.943  15.114  0.00  0.00    +0.000 A 
ATOM     19  C   UNL     1       6.985   5.101  15.179  0.00  0.00    +0.000 A 
BRANCH  14  21
ATOM     20  C   UNL     1       7.811   7.494  17.927  0.00  0.00    +0.000 C 
ATOM     21  O   UNL     1       7.751   7.002  16.596  0.00  0.00    +0.000 OA
ENDBRANCH  14  21
BRANCH  19  22
ATOM     22  O   UNL     1       7.688   5.465  14.064  0.00  0.00    +0.000 OA
ATOM     23  H   UNL     1       8.309   6.176  14.287  0.00  0.00    +0.000 HD
ENDBRANCH  19  22
ENDBRANCH  12  16
ENDBRANCH  10  13
ENDBRANCH   7  10
ENDBRANCH   1   7
BRANCH   4  24
ATOM     24  C   UNL     1       1.946   9.130  19.224  0.00  0.00    +0.000 C 
BRANCH  24  25
ATOM     25  N   UNL     1       0.715   9.843  19.522  0.00  0.00    +0.000 N 
ATOM     26  C   UNL     1       0.548  10.549  20.677  0.00  0.00    +0.000 C 
ATOM     27  O   UNL     1       1.270  10.590  21.658  0.00  0.00    +0.000 OA
ATOM     28  C   UNL     1      -0.691  11.306  20.554  0.00  0.00    +0.000 A 
ATOM     29  C   UNL     1      -1.271  12.207  21.427  0.00  0.00    +0.000 A 
ATOM     30  C   UNL     1      -2.504  12.752  21.059  0.00  0.00    +0.000 A 
ATOM     31  C   UNL     1      -3.121  12.380  19.853  0.00  0.00    +0.000 A 
ATOM     32  C   UNL     1      -2.480  11.507  18.957  0.00  0.00    +0.000 A 
ATOM     33  C   UNL     1      -1.248  10.998  19.328  0.00  0.00    +0.000 A 
ATOM     34  C   UNL     1      -0.275  10.152  18.618  0.00  0.00    +0.000 C 
ATOM     35  O   UNL     1      -0.326   9.910  17.425  0.00  0.00    +0.000 OA
ENDBRANCH  24  25
ENDBRANCH   4  24
TORSDOF 8
ENDMDL
MODEL 2
REMARK VINA RESULT:      -8.6      3.121     10.890
REMARK  Name = 
REMARK  9 active torsions:
REMARK  status: ('A' for Active; 'I' for Inactive)
REMARK    1  A    between atoms: C_1  and  O_2
REMARK    2  A    between atoms: O_2  and  C_3
REMARK    3  A    between atoms: C_5  and  C_6
REMARK    4  A    between atoms: N_7  and  N_8
REMARK    5  A    between atoms: N_8  and  S_9
REMARK    6  A    between atoms: S_9  and  C_12
REMARK    7  A    between atoms: C_15  and  C_16
REMARK    8  A    between atoms: C_16  and  N_17
REMARK    9  A    between atoms: C_32  and  O_33
REMARK                            x       y       z     vdW  Elec       q    Type
REMARK                         _______ _______ _______ _____ _____    ______ ____
ROOT
ATOM      1  C   UNL     1       1.353   8.797  19.811  0.00  0.00    +0.000 A 
ATOM      2  C   UNL     1       1.180   7.955  20.913  0.00  0.00    +0.000 A 
ATOM      3  C   UNL     1       1.721   6.661  20.892  0.00  0.00    +0.000 A 
ATOM      4  C   UNL     1       2.439   6.192  19.777  0.00  0.00    +0.000 A 
ATOM      5  C   UNL     1       2.613   7.060  18.685  0.00  0.00    +0.000 A 
ATOM      6  C   UNL     1       2.065   8.351  18.694  0.00  0.00    +0.000 A 
ENDROOT
BRANCH   1   7
ATOM      7  S   UNL     1       0.559  10.399  19.789  0.00  0.00    +0.000 S 
ATOM      8  O   UNL     1      -0.866  10.155  19.861  0.00  0.00    +0.000 OA
ATOM      9  O   UNL     1       1.151  11.153  18.701  0.00  0.00    +0.000 OA
BRANCH   7  10
ATOM     10  N   UNL     1       1.078  11.104  21.257  0.00  0.00    +0.000 N 
ATOM     11  H   UNL     1       2.039  10.938  21.552  0.00  0.00    +0.000 HD
BRANCH  10  13
ATOM     12  C   UNL     1      -0.798  11.650  22.521  0.00  0.00    +0.000 C 
ATOM     13  N   UNL     1       0.221  12.094  21.861  0.00  0.00    +0.000 NA
BRANCH  12  16
ATOM     14  C   UNL     1      -3.949  12.999  24.172  0.00  0.00    +0.000 A 
ATOM     15  C   UNL     1      -3.045  12.131  23.541  0.00  0.00    +0.000 A 
ATOM     16  C   UNL     1      -1.762  12.563  23.179  0.00  0.00    +0.000 A 
ATOM     17  C   UNL     1      -1.372  13.874  23.449  0.00  0.00    +0.000 A 
ATOM     18  C   UNL     1      -2.263  14.748  24.073  0.00  0.00    +0.000 A 
ATOM     19  C   UNL     1      -3.546  14.317  24.431  0.00  0.00    +0.000 A 
BRANCH  14  21
ATOM     20  C   UNL     1      -6.279  12.766  23.664  0.00  0.00    +0.000 C 
ATOM     21  O   UNL     1      -5.153  12.413  24.456  0.00  0.00    +0.000 OA
ENDBRANCH  14  21
BRANCH  19  22
ATOM     22  O   UNL     1      -4.382  15.214  25.035  0.00  0.00    +0.000 OA
ATOM     23  H   UNL     1      -4.994  15.583  24.378  0.00  0.00    +0.000 HD
ENDBRANCH  19  22
ENDBRANCH  12  16
ENDBRANCH  10  13
ENDBRANCH   7  10
ENDBRANCH   1   7
BRANCH   4  24
ATOM     24  C   UNL     1       3.039   4.795  19.772  0.00  0.00    +0.000 C 
BRANCH  24  25
ATOM     25  N   UNL     1       4.023   4.554  18.729  0.00  0.00    +0.000 N 
ATOM     26  C   UNL     1       3.664   4.202  17.461  0.00  0.00    +0.000 C 
ATOM     27  O   UNL     1       2.562   3.901  17.035  0.00  0.00    +0.000 OA
ATOM     28  C   UNL     1       4.863   4.257  16.634  0.00  0.00    +0.000 A 
ATOM     29  C   UNL     1       5.016   4.040  15.278  0.00  0.00    +0.000 A 
ATOM     30  C   UNL     1       6.311   4.117  14.759  0.00  0.00    +0.000 A 
ATOM     31  C   UNL     1       7.404   4.392  15.598  0.00  0.00    +0.000 A 
ATOM     32  C   UNL     1       7.212   4.666  16.963  0.00  0.00    +0.000 A 
ATOM     33  C   UNL     1       5.919   4.611  17.453  0.00  0.00    +0.000 A 
ATOM     34  C   UNL     1       5.348   4.922  18.773  0.00  0.00    +0.000 C 
ATOM     35  O   UNL     1       5.952   5.507  19.654  0.00  0.00    +0.000 OA
ENDBRANCH  24  25
ENDBRANCH   4  24
TORSDOF 8
ENDMDL
MODEL 3
REMARK VINA RESULT:      -8.6      0.973      1.977
REMARK  Name = 
REMARK  9 active torsions:
REMARK  status: ('A' for Active; 'I' for Inactive)
REMARK    1  A    between atoms: C_1  and  O_2
REMARK    2  A    between atoms: O_2  and  C_3
REMARK    3  A    between atoms: C_5  and  C_6
REMARK    4  A    between atoms: N_7  and  N_8
REMARK    5  A    between atoms: N_8  and  S_9
REMARK    6  A    between atoms: S_9  and  C_12
REMARK    7  A    between atoms: C_15  and  C_16
REMARK    8  A    between atoms: C_16  and  N_17
REMARK    9  A    between atoms: C_32  and  O_33
REMARK                            x       y       z     vdW  Elec       q    Type
REMARK                         _______ _______ _______ _____ _____    ______ ____
ROOT
ATOM      1  C   UNL     1       1.580   4.070  19.225  0.00  0.00    +0.000 A 
ATOM      2  C   UNL     1       1.813   4.708  20.446  0.00  0.00    +0.000 A 
ATOM      3  C   UNL     1       2.062   6.088  20.475  0.00  0.00    +0.000 A 
ATOM      4  C   UNL     1       2.081   6.847  19.290  0.00  0.00    +0.000 A 
ATOM      5  C   UNL     1       1.828   6.189  18.074  0.00  0.00    +0.000 A 
ATOM      6  C   UNL     1       1.591   4.807  18.037  0.00  0.00    +0.000 A 
ENDROOT
BRANCH   1   7
ATOM      7  S   UNL     1       1.386   2.294  19.178  0.00  0.00    +0.000 S 
ATOM      8  O   UNL     1       0.213   2.028  18.372  0.00  0.00    +0.000 OA
ATOM      9  O   UNL     1       1.500   1.814  20.541  0.00  0.00    +0.000 OA
BRANCH   7  10
ATOM     10  N   UNL     1       2.776   1.779  18.325  0.00  0.00    +0.000 N 
ATOM     11  H   UNL     1       2.869   0.785  18.123  0.00  0.00    +0.000 HD
BRANCH  10  13
ATOM     12  C   UNL     1       4.561   3.267  18.445  0.00  0.00    +0.000 C 
ATOM     13  N   UNL     1       3.600   2.795  17.719  0.00  0.00    +0.000 NA
BRANCH  12  16
ATOM     14  C   UNL     1       6.704   5.389  16.127  0.00  0.00    +0.000 A 
ATOM     15  C   UNL     1       5.846   4.383  16.594  0.00  0.00    +0.000 A 
ATOM     16  C   UNL     1       5.473   4.322  17.944  0.00  0.00    +0.000 A 
ATOM     17  C   UNL     1       5.959   5.274  18.839  0.00  0.00    +0.000 A 
ATOM     18  C   UNL     1       6.815   6.279  18.386  0.00  0.00    +0.000 A 
ATOM     19  C   UNL     1       7.190   6.337  17.039  0.00  0.00    +0.000 A 
BRANCH  14  21
ATOM     20  C   UNL     1       6.368   4.237  14.053  0.00  0.00    +0.000 C 
ATOM     21  O   UNL     1       6.961   5.301  14.785  0.00  0.00    +0.000 OA
ENDBRANCH  14  21
BRANCH  19  22
ATOM     22  O   UNL     1       8.036   7.337  16.648  0.00  0.00    +0.000 OA
ATOM     23  H   UNL     1       7.886   7.545  15.712  0.00  0.00    +0.000 HD
ENDBRANCH  19  22
ENDBRANCH  12  16
ENDBRANCH  10  13
ENDBRANCH   7  10
ENDBRANCH   1   7
BRANCH   4  24
ATOM     24  C   UNL     1       2.331   8.346  19.333  0.00  0.00    +0.000 C 
BRANCH  24  25
ATOM     25  N   UNL     1       1.195   9.145  19.763  0.00  0.00    +0.000 N 
ATOM     26  C   UNL     1       1.002   9.487  21.070  0.00  0.00    +0.000 C 
ATOM     27  O   UNL     1       1.603   9.098  22.057  0.00  0.00    +0.000 OA
ATOM     28  C   UNL     1      -0.085  10.457  21.114  0.00  0.00    +0.000 A 
ATOM     29  C   UNL     1      -0.620  11.140  22.190  0.00  0.00    +0.000 A 
ATOM     30  C   UNL     1      -1.705  11.984  21.936  0.00  0.00    +0.000 A 
ATOM     31  C   UNL     1      -2.226  12.111  20.637  0.00  0.00    +0.000 A 
ATOM     32  C   UNL     1      -1.624  11.450  19.553  0.00  0.00    +0.000 A 
ATOM     33  C   UNL     1      -0.535  10.639  19.821  0.00  0.00    +0.000 A 
ATOM     34  C   UNL     1       0.376   9.886  18.942  0.00  0.00    +0.000 C 
ATOM     35  O   UNL     1       0.428  10.030  17.734  0.00  0.00    +0.000 OA
ENDBRANCH  24  25
ENDBRANCH   4  24
TORSDOF 8
ENDMDL
MODEL 4
REMARK VINA RESULT:      -8.5      0.629      1.047
REMARK  Name = 
REMARK  9 active torsions:
REMARK  status: ('A' for Active; 'I' for Inactive)
REMARK    1  A    between atoms: C_1  and  O_2
REMARK    2  A    between atoms: O_2  and  C_3
REMARK    3  A    between atoms: C_5  and  C_6
REMARK    4  A    between atoms: N_7  and  N_8
REMARK    5  A    between atoms: N_8  and  S_9
REMARK    6  A    between atoms: S_9  and  C_12
REMARK    7  A    between atoms: C_15  and  C_16
REMARK    8  A    between atoms: C_16  and  N_17
REMARK    9  A    between atoms: C_32  and  O_33
REMARK                            x       y       z     vdW  Elec       q    Type
REMARK                         _______ _______ _______ _____ _____    ______ ____
ROOT
ATOM      1  C   UNL     1       1.830   5.400  19.639  0.00  0.00    +0.000 A 
ATOM      2  C   UNL     1       1.524   6.257  20.700  0.00  0.00    +0.000 A 
ATOM      3  C   UNL     1       1.539   7.646  20.500  0.00  0.00    +0.000 A 
ATOM      4  C   UNL     1       1.857   8.195  19.245  0.00  0.00    +0.000 A 
ATOM      5  C   UNL     1       2.147   7.315  18.187  0.00  0.00    +0.000 A 
ATOM      6  C   UNL     1       2.146   5.926  18.383  0.00  0.00    +0.000 A 
ENDROOT
BRANCH   1   7
ATOM      7  S   UNL     1       1.931   3.638  19.926  0.00  0.00    +0.000 S 
ATOM      8  O   UNL     1       1.500   2.996  18.702  0.00  0.00    +0.000 OA
ATOM      9  O   UNL     1       1.285   3.374  21.196  0.00  0.00    +0.000 OA
BRANCH   7  10
ATOM     10  N   UNL     1       3.609   3.379  20.129  0.00  0.00    +0.000 N 
ATOM     11  H   UNL     1       3.903   2.653  20.780  0.00  0.00    +0.000 HD
BRANCH  10  13
ATOM     12  C   UNL     1       4.508   3.535  17.989  0.00  0.00    +0.000 C 
ATOM     13  N   UNL     1       4.500   4.014  19.190  0.00  0.00    +0.000 NA
BRANCH  12  16
ATOM     14  C   UNL     1       7.008   5.741  16.157  0.00  0.00    +0.000 A 
ATOM     15  C   UNL     1       6.174   5.226  17.161  0.00  0.00    +0.000 A 
ATOM     16  C   UNL     1       5.386   4.090  16.932  0.00  0.00    +0.000 A 
ATOM     17  C   UNL     1       5.431   3.456  15.691  0.00  0.00    +0.000 A 
ATOM     18  C   UNL     1       6.255   3.960  14.684  0.00  0.00    +0.000 A 
ATOM     19  C   UNL     1       7.039   5.097  14.912  0.00  0.00    +0.000 A 
BRANCH  14  21
ATOM     20  C   UNL     1       7.679   7.213  17.925  0.00  0.00    +0.000 C 
ATOM     21  O   UNL     1       7.707   6.851  16.551  0.00  0.00    +0.000 OA
ENDBRANCH  14  21
BRANCH  19  22
ATOM     22  O   UNL     1       7.825   5.554  13.890  0.00  0.00    +0.000 OA
ATOM     23  H   UNL     1       8.624   5.968  14.253  0.00  0.00    +0.000 HD
ENDBRANCH  19  22
ENDBRANCH  12  16
ENDBRANCH  10  13
ENDBRANCH   7  10
ENDBRANCH   1   7
BRANCH   4  24
ATOM     24  C   UNL     1       1.851   9.700  19.032  0.00  0.00    +0.000 C 
BRANCH  24  25
ATOM     25  N   UNL     1       0.615  10.367  19.408  0.00  0.00    +0.000 N 
ATOM     26  C   UNL     1       0.555  11.253  20.444  0.00  0.00    +0.000 C 
ATOM     27  O   UNL     1       1.410  11.517  21.272  0.00  0.00    +0.000 OA
ATOM     28  C   UNL     1      -0.755  11.889  20.403  0.00  0.00    +0.000 A 
ATOM     29  C   UNL     1      -1.282  12.887  21.201  0.00  0.00    +0.000 A 
ATOM     30  C   UNL     1      -2.604  13.271  20.957  0.00  0.00    +0.000 A 
ATOM     31  C   UNL     1      -3.356  12.649  19.946  0.00  0.00    +0.000 A 
ATOM     32  C   UNL     1      -2.776  11.678  19.112  0.00  0.00    +0.000 A 
ATOM     33  C   UNL     1      -1.458  11.329  19.353  0.00  0.00    +0.000 A 
ATOM     34  C   UNL     1      -0.525  10.441  18.641  0.00  0.00    +0.000 C 
ATOM     35  O   UNL     1      -0.732   9.989  17.529  0.00  0.00    +0.000 OA
ENDBRANCH  24  25
ENDBRANCH   4  24
TORSDOF 8
ENDMDL
MODEL 5
REMARK VINA RESULT:      -8.4      3.187     10.778
REMARK  Name = 
REMARK  9 active torsions:
REMARK  status: ('A' for Active; 'I' for Inactive)
REMARK    1  A    between atoms: C_1  and  O_2
REMARK    2  A    between atoms: O_2  and  C_3
REMARK    3  A    between atoms: C_5  and  C_6
REMARK    4  A    between atoms: N_7  and  N_8
REMARK    5  A    between atoms: N_8  and  S_9
REMARK    6  A    between atoms: S_9  and  C_12
REMARK    7  A    between atoms: C_15  and  C_16
REMARK    8  A    between atoms: C_16  and  N_17
REMARK    9  A    between atoms: C_32  and  O_33
REMARK                            x       y       z     vdW  Elec       q    Type
REMARK                         _______ _______ _______ _____ _____    ______ ____
ROOT
ATOM      1  C   UNL     1       1.286   8.884  19.667  0.00  0.00    +0.000 A 
ATOM      2  C   UNL     1       2.023   8.415  18.577  0.00  0.00    +0.000 A 
ATOM      3  C   UNL     1       2.600   7.137  18.624  0.00  0.00    +0.000 A 
ATOM      4  C   UNL     1       2.449   6.314  19.754  0.00  0.00    +0.000 A 
ATOM      5  C   UNL     1       1.691   6.798  20.834  0.00  0.00    +0.000 A 
ATOM      6  C   UNL     1       1.121   8.080  20.799  0.00  0.00    +0.000 A 
ENDROOT
BRANCH   1   7
ATOM      7  S   UNL     1       0.656  10.557  19.656  0.00  0.00    +0.000 S 
ATOM      8  O   UNL     1      -0.773  10.459  19.446  0.00  0.00    +0.000 OA
ATOM      9  O   UNL     1       1.507  11.328  18.772  0.00  0.00    +0.000 OA
BRANCH   7  10
ATOM     10  N   UNL     1       0.947  11.087  21.256  0.00  0.00    +0.000 N 
ATOM     11  H   UNL     1       1.813  10.793  21.704  0.00  0.00    +0.000 HD
BRANCH  10  13
ATOM     12  C   UNL     1      -0.842  11.735  22.595  0.00  0.00    +0.000 C 
ATOM     13  N   UNL     1       0.089  12.118  21.784  0.00  0.00    +0.000 NA
BRANCH  12  16
ATOM     14  C   UNL     1      -2.276  14.824  24.290  0.00  0.00    +0.000 A 
ATOM     15  C   UNL     1      -1.365  13.918  23.727  0.00  0.00    +0.000 A 
ATOM     16  C   UNL     1      -1.797  12.694  23.198  0.00  0.00    +0.000 A 
ATOM     17  C   UNL     1      -3.152  12.368  23.228  0.00  0.00    +0.000 A 
ATOM     18  C   UNL     1      -4.068  13.260  23.788  0.00  0.00    +0.000 A 
ATOM     19  C   UNL     1      -3.635  14.481  24.318  0.00  0.00    +0.000 A 
BRANCH  14  21
ATOM     20  C   UNL     1      -1.141  15.960  26.068  0.00  0.00    +0.000 C 
ATOM     21  O   UNL     1      -1.684  15.968  24.755  0.00  0.00    +0.000 OA
ENDBRANCH  14  21
BRANCH  19  22
ATOM     22  O   UNL     1      -4.572  15.316  24.860  0.00  0.00    +0.000 OA
ATOM     23  H   UNL     1      -5.172  14.808  25.429  0.00  0.00    +0.000 HD
ENDBRANCH  19  22
ENDBRANCH  12  16
ENDBRANCH  10  13
ENDBRANCH   7  10
ENDBRANCH   1   7
BRANCH   4  24
ATOM     24  C   UNL     1       3.061   4.923  19.788  0.00  0.00    +0.000 C 
BRANCH  24  25
ATOM     25  N   UNL     1       4.034   4.655  18.742  0.00  0.00    +0.000 N 
ATOM     26  C   UNL     1       3.663   4.288  17.482  0.00  0.00    +0.000 C 
ATOM     27  O   UNL     1       2.554   3.992  17.069  0.00  0.00    +0.000 OA
ATOM     28  C   UNL     1       4.855   4.317  16.646  0.00  0.00    +0.000 A 
ATOM     29  C   UNL     1       4.996   4.078  15.292  0.00  0.00    +0.000 A 
ATOM     30  C   UNL     1       6.288   4.132  14.762  0.00  0.00    +0.000 A 
ATOM     31  C   UNL     1       7.390   4.408  15.589  0.00  0.00    +0.000 A 
ATOM     32  C   UNL     1       7.211   4.705  16.951  0.00  0.00    +0.000 A 
ATOM     33  C   UNL     1       5.921   4.672  17.451  0.00  0.00    +0.000 A 
ATOM     34  C   UNL     1       5.364   5.009  18.771  0.00  0.00    +0.000 C 
ATOM     35  O   UNL     1       5.981   5.601  19.638  0.00  0.00    +0.000 OA
ENDBRANCH  24  25
ENDBRANCH   4  24
TORSDOF 8
ENDMDL
MODEL 6
REMARK VINA RESULT:      -8.3      3.136     10.914
REMARK  Name = 
REMARK  9 active torsions:
REMARK  status: ('A' for Active; 'I' for Inactive)
REMARK    1  A    between atoms: C_1  and  O_2
REMARK    2  A    between atoms: O_2  and  C_3
REMARK    3  A    between atoms: C_5  and  C_6
REMARK    4  A    between atoms: N_7  and  N_8
REMARK    5  A    between atoms: N_8  and  S_9
REMARK    6  A    between atoms: S_9  and  C_12
REMARK    7  A    between atoms: C_15  and  C_16
REMARK    8  A    between atoms: C_16  and  N_17
REMARK    9  A    between atoms: C_32  and  O_33
REMARK                            x       y       z     vdW  Elec       q    Type
REMARK                         _______ _______ _______ _____ _____    ______ ____
ROOT
ATOM      1  C   UNL     1       1.374   8.969  19.374  0.00  0.00    +0.000 A 
ATOM      2  C   UNL     1       2.066   8.708  18.188  0.00  0.00    +0.000 A 
ATOM      3  C   UNL     1       2.855   7.553  18.081  0.00  0.00    +0.000 A 
ATOM      4  C   UNL     1       2.963   6.646  19.151  0.00  0.00    +0.000 A 
ATOM      5  C   UNL     1       2.247   6.919  20.330  0.00  0.00    +0.000 A 
ATOM      6  C   UNL     1       1.466   8.078  20.448  0.00  0.00    +0.000 A 
ENDROOT
BRANCH   1   7
ATOM      7  S   UNL     1       0.470  10.500  19.553  0.00  0.00    +0.000 S 
ATOM      8  O   UNL     1      -0.934  10.167  19.433  0.00  0.00    +0.000 OA
ATOM      9  O   UNL     1       1.101  11.473  18.683  0.00  0.00    +0.000 OA
BRANCH   7  10
ATOM     10  N   UNL     1       0.798  10.953  21.169  0.00  0.00    +0.000 N 
ATOM     11  H   UNL     1       1.653  10.600  21.597  0.00  0.00    +0.000 HD
BRANCH  10  13
ATOM     12  C   UNL     1      -0.907  11.638  22.597  0.00  0.00    +0.000 C 
ATOM     13  N   UNL     1      -0.006  12.002  21.744  0.00  0.00    +0.000 NA
BRANCH  12  16
ATOM     14  C   UNL     1      -3.984  13.235  24.161  0.00  0.00    +0.000 A 
ATOM     15  C   UNL     1      -3.142  12.305  23.534  0.00  0.00    +0.000 A 
ATOM     16  C   UNL     1      -1.805  12.617  23.251  0.00  0.00    +0.000 A 
ATOM     17  C   UNL     1      -1.299  13.869  23.599  0.00  0.00    +0.000 A 
ATOM     18  C   UNL     1      -2.129  14.804  24.220  0.00  0.00    +0.000 A 
ATOM     19  C   UNL     1      -3.465  14.492  24.499  0.00  0.00    +0.000 A 
BRANCH  14  21
ATOM     20  C   UNL     1      -6.229  12.999  23.356  0.00  0.00    +0.000 C 
ATOM     21  O   UNL     1      -5.254  12.764  24.363  0.00  0.00    +0.000 OA
ENDBRANCH  14  21
BRANCH  19  22
ATOM     22  O   UNL     1      -4.236  15.445  25.104  0.00  0.00    +0.000 OA
ATOM     23  H   UNL     1      -4.470  15.156  26.000  0.00  0.00    +0.000 HD
ENDBRANCH  19  22
ENDBRANCH  12  16
ENDBRANCH  10  13
ENDBRANCH   7  10
ENDBRANCH   1   7
BRANCH   4  24
ATOM     24  C   UNL     1       3.804   5.387  19.019  0.00  0.00    +0.000 C 
BRANCH  24  25
ATOM     25  N   UNL     1       4.431   5.202  17.721  0.00  0.00    +0.000 N 
ATOM     26  C   UNL     1       5.669   5.699  17.436  0.00  0.00    +0.000 C 
ATOM     27  O   UNL     1       6.360   6.453  18.099  0.00  0.00    +0.000 OA
ATOM     28  C   UNL     1       6.077   5.150  16.149  0.00  0.00    +0.000 A 
ATOM     29  C   UNL     1       7.261   5.307  15.453  0.00  0.00    +0.000 A 
ATOM     30  C   UNL     1       7.355   4.692  14.202  0.00  0.00    +0.000 A 
ATOM     31  C   UNL     1       6.275   3.957  13.682  0.00  0.00    +0.000 A 
ATOM     32  C   UNL     1       5.106   3.765  14.437  0.00  0.00    +0.000 A 
ATOM     33  C   UNL     1       5.042   4.361  15.684  0.00  0.00    +0.000 A 
ATOM     34  C   UNL     1       4.038   4.299  16.759  0.00  0.00    +0.000 C 
ATOM     35  O   UNL     1       3.125   3.494  16.790  0.00  0.00    +0.000 OA
ENDBRANCH  24  25
ENDBRANCH   4  24
TORSDOF 8
ENDMDL
MODEL 7
REMARK VINA RESULT:      -8.2      4.256      9.092
REMARK  Name = 
REMARK  9 active torsions:
REMARK  status: ('A' for Active; 'I' for Inactive)
REMARK    1  A    between atoms: C_1  and  O_2
REMARK    2  A    between atoms: O_2  and  C_3
REMARK    3  A    between atoms: C_5  and  C_6
REMARK    4  A    between atoms: N_7  and  N_8
REMARK    5  A    between atoms: N_8  and  S_9
REMARK    6  A    between atoms: S_9  and  C_12
REMARK    7  A    between atoms: C_15  and  C_16
REMARK    8  A    between atoms: C_16  and  N_17
REMARK    9  A    between atoms: C_32  and  O_33
REMARK                            x       y       z     vdW  Elec       q    Type
REMARK                         _______ _______ _______ _____ _____    ______ ____
ROOT
ATOM      1  C   UNL     1       1.056   9.249  19.976  0.00  0.00    +0.000 A 
ATOM      2  C   UNL     1       1.731   8.862  18.815  0.00  0.00    +0.000 A 
ATOM      3  C   UNL     1       2.349   7.604  18.755  0.00  0.00    +0.000 A 
ATOM      4  C   UNL     1       2.301   6.719  19.847  0.00  0.00    +0.000 A 
ATOM      5  C   UNL     1       1.604   7.122  21.000  0.00  0.00    +0.000 A 
ATOM      6  C   UNL     1       0.994   8.383  21.071  0.00  0.00    +0.000 A 
ENDROOT
BRANCH   1   7
ATOM      7  S   UNL     1       0.375  10.898  20.096  0.00  0.00    +0.000 S 
ATOM      8  O   UNL     1       1.049  11.543  21.203  0.00  0.00    +0.000 OA
ATOM      9  O   UNL     1      -1.068  10.769  20.050  0.00  0.00    +0.000 OA
BRANCH   7  10
ATOM     10  N   UNL     1       0.881  11.628  18.635  0.00  0.00    +0.000 N 
ATOM     11  H   UNL     1       0.250  11.584  17.837  0.00  0.00    +0.000 HD
BRANCH  10  13
ATOM     12  C   UNL     1       1.825  13.755  18.663  0.00  0.00    +0.000 C 
ATOM     13  N   UNL     1       2.044  12.481  18.684  0.00  0.00    +0.000 NA
BRANCH  12  16
ATOM     14  C   UNL     1       5.234  15.377  18.188  0.00  0.00    +0.000 A 
ATOM     15  C   UNL     1       4.192  14.438  18.158  0.00  0.00    +0.000 A 
ATOM     16  C   UNL     1       2.933  14.739  18.697  0.00  0.00    +0.000 A 
ATOM     17  C   UNL     1       2.707  15.990  19.270  0.00  0.00    +0.000 A 
ATOM     18  C   UNL     1       3.736  16.931  19.307  0.00  0.00    +0.000 A 
ATOM     19  C   UNL     1       4.994  16.629  18.772  0.00  0.00    +0.000 A 
BRANCH  14  21
ATOM     20  C   UNL     1       7.449  14.512  18.473  0.00  0.00    +0.000 C 
ATOM     21  O   UNL     1       6.391  14.919  17.617  0.00  0.00    +0.000 OA
ENDBRANCH  14  21
BRANCH  19  22
ATOM     22  O   UNL     1       5.970  17.584  18.840  0.00  0.00    +0.000 OA
ATOM     23  H   UNL     1       6.832  17.162  18.976  0.00  0.00    +0.000 HD
ENDBRANCH  19  22
ENDBRANCH  12  16
ENDBRANCH  10  13
ENDBRANCH   7  10
ENDBRANCH   1   7
BRANCH   4  24
ATOM     24  C   UNL     1       2.956   5.350  19.766  0.00  0.00    +0.000 C 
BRANCH  24  25
ATOM     25  N   UNL     1       3.836   5.158  18.625  0.00  0.00    +0.000 N 
ATOM     26  C   UNL     1       5.191   5.280  18.725  0.00  0.00    +0.000 C 
ATOM     27  O   UNL     1       5.853   5.684  19.666  0.00  0.00    +0.000 OA
ATOM     28  C   UNL     1       5.769   4.813  17.472  0.00  0.00    +0.000 A 
ATOM     29  C   UNL     1       7.093   4.688  17.097  0.00  0.00    +0.000 A 
ATOM     30  C   UNL     1       7.352   4.250  15.795  0.00  0.00    +0.000 A 
ATOM     31  C   UNL     1       6.297   3.965  14.912  0.00  0.00    +0.000 A 
ATOM     32  C   UNL     1       4.961   4.045  15.339  0.00  0.00    +0.000 A 
ATOM     33  C   UNL     1       4.725   4.455  16.639  0.00  0.00    +0.000 A 
ATOM     34  C   UNL     1       3.490   4.563  17.433  0.00  0.00    +0.000 C 
ATOM     35  O   UNL     1       2.422   4.084  17.097  0.00  0.00    +0.000 OA
ENDBRANCH  24  25
ENDBRANCH   4  24
TORSDOF 8
ENDMDL
MODEL 8
REMARK VINA RESULT:      -8.2      4.277      9.099
REMARK  Name = 
REMARK  9 active torsions:
REMARK  status: ('A' for Active; 'I' for Inactive)
REMARK    1  A    between atoms: C_1  and  O_2
REMARK    2  A    between atoms: O_2  and  C_3
REMARK    3  A    between atoms: C_5  and  C_6
REMARK    4  A    between atoms: N_7  and  N_8
REMARK    5  A    between atoms: N_8  and  S_9
REMARK    6  A    between atoms: S_9  and  C_12
REMARK    7  A    between atoms: C_15  and  C_16
REMARK    8  A    between atoms: C_16  and  N_17
REMARK    9  A    between atoms: C_32  and  O_33
REMARK                            x       y       z     vdW  Elec       q    Type
REMARK                         _______ _______ _______ _____ _____    ______ ____
ROOT
ATOM      1  C   UNL     1       1.199   8.885  19.748  0.00  0.00    +0.000 A 
ATOM      2  C   UNL     1       1.981   8.451  18.674  0.00  0.00    +0.000 A 
ATOM      3  C   UNL     1       2.596   7.191  18.724  0.00  0.00    +0.000 A 
ATOM      4  C   UNL     1       2.439   6.351  19.841  0.00  0.00    +0.000 A 
ATOM      5  C   UNL     1       1.636   6.799  20.904  0.00  0.00    +0.000 A 
ATOM      6  C   UNL     1       1.028   8.063  20.866  0.00  0.00    +0.000 A 
ENDROOT
BRANCH   1   7
ATOM      7  S   UNL     1       0.518  10.538  19.737  0.00  0.00    +0.000 S 
ATOM      8  O   UNL     1       0.818  11.116  21.029  0.00  0.00    +0.000 OA
ATOM      9  O   UNL     1      -0.840  10.437  19.241  0.00  0.00    +0.000 OA
BRANCH   7  10
ATOM     10  N   UNL     1       1.453  11.328  18.543  0.00  0.00    +0.000 N 
ATOM     11  H   UNL     1       1.293  11.076  17.569  0.00  0.00    +0.000 HD
BRANCH  10  13
ATOM     12  C   UNL     1       2.772  13.169  18.007  0.00  0.00    +0.000 C 
ATOM     13  N   UNL     1       2.220  12.479  18.951  0.00  0.00    +0.000 NA
BRANCH  12  16
ATOM     14  C   UNL     1       5.733  15.544  18.253  0.00  0.00    +0.000 A 
ATOM     15  C   UNL     1       4.963  14.403  17.986  0.00  0.00    +0.000 A 
ATOM     16  C   UNL     1       3.596  14.367  18.294  0.00  0.00    +0.000 A 
ATOM     17  C   UNL     1       2.987  15.480  18.872  0.00  0.00    +0.000 A 
ATOM     18  C   UNL     1       3.744  16.621  19.145  0.00  0.00    +0.000 A 
ATOM     19  C   UNL     1       5.110  16.654  18.841  0.00  0.00    +0.000 A 
BRANCH  14  21
ATOM     20  C   UNL     1       7.829  14.419  18.542  0.00  0.00    +0.000 C 
ATOM     21  O   UNL     1       7.046  15.408  17.888  0.00  0.00    +0.000 OA
ENDBRANCH  14  21
BRANCH  19  22
ATOM     22  O   UNL     1       5.808  17.793  19.134  0.00  0.00    +0.000 OA
ATOM     23  H   UNL     1       5.236  18.567  19.012  0.00  0.00    +0.000 HD
ENDBRANCH  19  22
ENDBRANCH  12  16
ENDBRANCH  10  13
ENDBRANCH   7  10
ENDBRANCH   1   7
BRANCH   4  24
ATOM     24  C   UNL     1       3.092   4.978  19.877  0.00  0.00    +0.000 C 
BRANCH  24  25
ATOM     25  N   UNL     1       4.035   4.720  18.802  0.00  0.00    +0.000 N 
ATOM     26  C   UNL     1       3.628   4.382  17.544  0.00  0.00    +0.000 C 
ATOM     27  O   UNL     1       2.506   4.108  17.154  0.00  0.00    +0.000 OA
ATOM     28  C   UNL     1       4.800   4.413  16.679  0.00  0.00    +0.000 A 
ATOM     29  C   UNL     1       4.903   4.199  15.318  0.00  0.00    +0.000 A 
ATOM     30  C   UNL     1       6.183   4.248  14.757  0.00  0.00    +0.000 A 
ATOM     31  C   UNL     1       7.308   4.494  15.561  0.00  0.00    +0.000 A 
ATOM     32  C   UNL     1       7.167   4.766  16.932  0.00  0.00    +0.000 A 
ATOM     33  C   UNL     1       5.890   4.738  17.464  0.00  0.00    +0.000 A 
ATOM     34  C   UNL     1       5.370   5.057  18.804  0.00  0.00    +0.000 C 
ATOM     35  O   UNL     1       6.016   5.624  19.666  0.00  0.00    +0.000 OA
ENDBRANCH  24  25
ENDBRANCH   4  24
TORSDOF 8
ENDMDL
MODEL 9
REMARK VINA RESULT:      -8.2      2.642     10.116
REMARK  Name = 
REMARK  9 active torsions:
REMARK  status: ('A' for Active; 'I' for Inactive)
REMARK    1  A    between atoms: C_1  and  O_2
REMARK    2  A    between atoms: O_2  and  C_3
REMARK    3  A    between atoms: C_5  and  C_6
REMARK    4  A    between atoms: N_7  and  N_8
REMARK    5  A    between atoms: N_8  and  S_9
REMARK    6  A    between atoms: S_9  and  C_12
REMARK    7  A    between atoms: C_15  and  C_16
REMARK    8  A    between atoms: C_16  and  N_17
REMARK    9  A    between atoms: C_32  and  O_33
REMARK                            x       y       z     vdW  Elec       q    Type
REMARK                         _______ _______ _______ _____ _____    ______ ____
ROOT
ATOM      1  C   UNL     1       1.475   7.722  20.558  0.00  0.00    +0.000 A 
ATOM      2  C   UNL     1       1.174   6.567  21.284  0.00  0.00    +0.000 A 
ATOM      3  C   UNL     1       1.797   5.354  20.954  0.00  0.00    +0.000 A 
ATOM      4  C   UNL     1       2.725   5.278  19.900  0.00  0.00    +0.000 A 
ATOM      5  C   UNL     1       3.025   6.455  19.191  0.00  0.00    +0.000 A 
ATOM      6  C   UNL     1       2.397   7.668  19.508  0.00  0.00    +0.000 A 
ENDROOT
BRANCH   1   7
ATOM      7  S   UNL     1       0.590   9.238  20.899  0.00  0.00    +0.000 S 
ATOM      8  O   UNL     1       1.501  10.092  21.631  0.00  0.00    +0.000 OA
ATOM      9  O   UNL     1      -0.705   8.865  21.434  0.00  0.00    +0.000 OA
BRANCH   7  10
ATOM     10  N   UNL     1       0.342   9.895  19.340  0.00  0.00    +0.000 N 
ATOM     11  H   UNL     1       1.154  10.005  18.735  0.00  0.00    +0.000 HD
BRANCH  10  13
ATOM     12  C   UNL     1      -1.498  11.212  18.799  0.00  0.00    +0.000 C 
ATOM     13  N   UNL     1      -1.018  10.015  18.875  0.00  0.00    +0.000 NA
BRANCH  12  16
ATOM     14  C   UNL     1      -5.145  12.294  18.763  0.00  0.00    +0.000 A 
ATOM     15  C   UNL     1      -3.836  12.046  19.201  0.00  0.00    +0.000 A 
ATOM     16  C   UNL     1      -2.885  11.471  18.346  0.00  0.00    +0.000 A 
ATOM     17  C   UNL     1      -3.241  11.141  17.039  0.00  0.00    +0.000 A 
ATOM     18  C   UNL     1      -4.541  11.381  16.592  0.00  0.00    +0.000 A 
ATOM     19  C   UNL     1      -5.490  11.953  17.448  0.00  0.00    +0.000 A 
BRANCH  14  21
ATOM     20  C   UNL     1      -6.043  14.277  19.764  0.00  0.00    +0.000 C 
ATOM     21  O   UNL     1      -5.939  12.861  19.724  0.00  0.00    +0.000 OA
ENDBRANCH  14  21
BRANCH  19  22
ATOM     22  O   UNL     1      -6.752  12.161  16.963  0.00  0.00    +0.000 OA
ATOM     23  H   UNL     1      -6.769  12.978  16.439  0.00  0.00    +0.000 HD
ENDBRANCH  19  22
ENDBRANCH  12  16
ENDBRANCH  10  13
ENDBRANCH   7  10
ENDBRANCH   1   7
BRANCH   4  24
ATOM     24  C   UNL     1       3.410   3.964  19.562  0.00  0.00    +0.000 C 
BRANCH  24  25
ATOM     25  N   UNL     1       4.310   4.017  18.422  0.00  0.00    +0.000 N 
ATOM     26  C   UNL     1       3.862   3.899  17.139  0.00  0.00    +0.000 C 
ATOM     27  O   UNL     1       2.748   3.603  16.744  0.00  0.00    +0.000 OA
ATOM     28  C   UNL     1       4.976   4.215  16.254  0.00  0.00    +0.000 A 
ATOM     29  C   UNL     1       5.020   4.287  14.874  0.00  0.00    +0.000 A 
ATOM     30  C   UNL     1       6.257   4.569  14.287  0.00  0.00    +0.000 A 
ATOM     31  C   UNL     1       7.401   4.756  15.081  0.00  0.00    +0.000 A 
ATOM     32  C   UNL     1       7.315   4.735  16.483  0.00  0.00    +0.000 A 
ATOM     33  C   UNL     1       6.077   4.479  17.046  0.00  0.00    +0.000 A 
ATOM     34  C   UNL     1       5.608   4.473  18.442  0.00  0.00    +0.000 C 
ATOM     35  O   UNL     1       6.251   4.915  19.377  0.00  0.00    +0.000 OA
ENDBRANCH  24  25
ENDBRANCH   4  24
TORSDOF 8
ENDMDL
