MODEL 1
REMARK VINA RESULT:      -7.7      0.000      0.000
REMARK  Name = 
REMARK  7 active torsions:
REMARK  status: ('A' for Active; 'I' for Inactive)
REMARK    1  A    between atoms: C_4  and  C_5
REMARK    2  A    between atoms: C_4  and  C_7
REMARK    3  A    between atoms: C_5  and  O_6
REMARK    4  A    between atoms: C_7  and  O_8
REMARK    5  A    between atoms: O_8  and  C_9
REMARK    6  A    between atoms: C_9  and  C_11
REMARK    7  A    between atoms: C_20  and  C_21
REMARK                            x       y       z     vdW  Elec       q    Type
REMARK                         _______ _______ _______ _____ _____    ______ ____
ROOT
ATOM      1  O   UNL     1       2.510   4.208  21.937  0.00  0.00    +0.000 OA
ATOM      2  C   UNL     1       2.531   4.305  20.723  0.00  0.00    +0.000 C 
ATOM      3  O   UNL     1       2.733   3.274  19.856  0.00  0.00    +0.000 OA
ATOM      4  C   UNL     1       2.489   3.689  18.492  0.00  0.00    +0.000 C 
ATOM      5  C   UNL     1       2.565   5.210  18.508  0.00  0.00    +0.000 C 
ATOM      6  C   UNL     1       2.336   5.535  19.936  0.00  0.00    +0.000 C 
ATOM      7  C   UNL     1       1.964   6.695  20.499  0.00  0.00    +0.000 C 
ENDROOT
BRANCH   7   8
ATOM      8  C   UNL     1       1.725   7.929  19.743  0.00  0.00    +0.000 A 
ATOM      9  C   UNL     1       2.260   8.089  18.470  0.00  0.00    +0.000 A 
ATOM     10  C   UNL     1       2.084   9.310  17.821  0.00  0.00    +0.000 A 
ATOM     11  C   UNL     1       1.368  10.322  18.450  0.00  0.00    +0.000 A 
ATOM     12  C   UNL     1       0.841  10.066  19.701  0.00  0.00    +0.000 A 
ATOM     13  N   UNL     1       1.001   8.897  20.355  0.00  0.00    +0.000 NA
ENDBRANCH   7   8
BRANCH   4  14
ATOM     14  C   UNL     1       1.101   3.172  18.059  0.00  0.00    +0.000 C 
BRANCH  14  15
ATOM     15  O   UNL     1       0.821   1.877  18.590  0.00  0.00    +0.000 OA
ATOM     16  H   UNL     1       1.300   1.231  18.038  0.00  0.00    +0.000 HD
ENDBRANCH  14  15
ENDBRANCH   4  14
BRANCH   4  17
ATOM     17  C   UNL     1       3.603   3.132  17.587  0.00  0.00    +0.000 C 
BRANCH  17  18
ATOM     18  O   UNL     1       4.895   3.654  17.951  0.00  0.00    +0.000 OA
BRANCH  18  19
ATOM     19  C   UNL     1       5.664   4.113  16.935  0.00  0.00    +0.000 C 
ATOM     20  O   UNL     1       5.774   3.606  15.831  0.00  0.00    +0.000 OA
BRANCH  19  21
ATOM     21  C   UNL     1       6.432   5.305  17.369  0.00  0.00    +0.000 A 
ATOM     22  C   UNL     1       7.422   5.241  18.358  0.00  0.00    +0.000 A 
ATOM     23  C   UNL     1       8.108   6.400  18.736  0.00  0.00    +0.000 A 
ATOM     24  C   UNL     1       7.807   7.617  18.123  0.00  0.00    +0.000 A 
ATOM     25 CL   UNL     1       8.654   9.040  18.586  0.00  0.00    +0.000 Cl
ATOM     26  C   UNL     1       6.822   7.688  17.140  0.00  0.00    +0.000 A 
ATOM     27  C   UNL     1       6.130   6.534  16.766  0.00  0.00    +0.000 A 
ENDBRANCH  19  21
ENDBRANCH  18  19
ENDBRANCH  17  18
ENDBRANCH   4  17
TORSDOF 7
ENDMDL
MODEL 2
REMARK VINA RESULT:      -7.7      0.501      1.067
REMARK  Name = 
REMARK  7 active torsions:
REMARK  status: ('A' for Active; 'I' for Inactive)
REMARK    1  A    between atoms: C_4  and  C_5
REMARK    2  A    between atoms: C_4  and  C_7
REMARK    3  A    between atoms: C_5  and  O_6
REMARK    4  A    between atoms: C_7  and  O_8
REMARK    5  A    between atoms: O_8  and  C_9
REMARK    6  A    between atoms: C_9  and  C_11
REMARK    7  A    between atoms: C_20  and  C_21
REMARK                            x       y       z     vdW  Elec       q    Type
REMARK                         _______ _______ _______ _____ _____    ______ ____
ROOT
ATOM      1  O   UNL     1       2.434   4.030  22.086  0.00  0.00    +0.000 OA
ATOM      2  C   UNL     1       2.500   4.146  20.875  0.00  0.00    +0.000 C 
ATOM      3  O   UNL     1       2.748   3.132  20.000  0.00  0.00    +0.000 OA
ATOM      4  C   UNL     1       2.552   3.567  18.635  0.00  0.00    +0.000 C 
ATOM      5  C   UNL     1       2.608   5.088  18.678  0.00  0.00    +0.000 C 
ATOM      6  C   UNL     1       2.320   5.387  20.101  0.00  0.00    +0.000 C 
ATOM      7  C   UNL     1       1.913   6.533  20.668  0.00  0.00    +0.000 C 
ENDROOT
BRANCH   7   8
ATOM      8  C   UNL     1       1.688   7.777  19.923  0.00  0.00    +0.000 A 
ATOM      9  C   UNL     1       2.140   7.905  18.615  0.00  0.00    +0.000 A 
ATOM     10  C   UNL     1       1.983   9.132  17.973  0.00  0.00    +0.000 A 
ATOM     11  C   UNL     1       1.370  10.183  18.644  0.00  0.00    +0.000 A 
ATOM     12  C   UNL     1       0.920   9.959  19.931  0.00  0.00    +0.000 A 
ATOM     13  N   UNL     1       1.063   8.784  20.579  0.00  0.00    +0.000 NA
ENDBRANCH   7   8
BRANCH   4  14
ATOM     14  C   UNL     1       1.188   3.041  18.141  0.00  0.00    +0.000 C 
BRANCH  14  15
ATOM     15  O   UNL     1       0.918   1.721  18.613  0.00  0.00    +0.000 OA
ATOM     16  H   UNL     1       0.758   1.787  19.573  0.00  0.00    +0.000 HD
ENDBRANCH  14  15
ENDBRANCH   4  14
BRANCH   4  17
ATOM     17  C   UNL     1       3.706   3.038  17.765  0.00  0.00    +0.000 C 
BRANCH  17  18
ATOM     18  O   UNL     1       4.060   3.970  16.725  0.00  0.00    +0.000 OA
BRANCH  18  19
ATOM     19  C   UNL     1       5.347   3.938  16.304  0.00  0.00    +0.000 C 
ATOM     20  O   UNL     1       5.852   3.080  15.600  0.00  0.00    +0.000 OA
BRANCH  19  21
ATOM     21  C   UNL     1       6.105   5.074  16.881  0.00  0.00    +0.000 A 
ATOM     22  C   UNL     1       5.843   6.406  16.533  0.00  0.00    +0.000 A 
ATOM     23  C   UNL     1       6.597   7.438  17.101  0.00  0.00    +0.000 A 
ATOM     24  C   UNL     1       7.605   7.139  18.017  0.00  0.00    +0.000 A 
ATOM     25 CL   UNL     1       8.529   8.409  18.719  0.00  0.00    +0.000 Cl
ATOM     26  C   UNL     1       7.873   5.816  18.368  0.00  0.00    +0.000 A 
ATOM     27  C   UNL     1       7.127   4.783  17.795  0.00  0.00    +0.000 A 
ENDBRANCH  19  21
ENDBRANCH  18  19
ENDBRANCH  17  18
ENDBRANCH   4  17
TORSDOF 7
ENDMDL
MODEL 3
REMARK VINA RESULT:      -7.6      3.785      5.899
REMARK  Name = 
REMARK  7 active torsions:
REMARK  status: ('A' for Active; 'I' for Inactive)
REMARK    1  A    between atoms: C_4  and  C_5
REMARK    2  A    between atoms: C_4  and  C_7
REMARK    3  A    between atoms: C_5  and  O_6
REMARK    4  A    between atoms: C_7  and  O_8
REMARK    5  A    between atoms: O_8  and  C_9
REMARK    6  A    between atoms: C_9  and  C_11
REMARK    7  A    between atoms: C_20  and  C_21
REMARK                            x       y       z     vdW  Elec       q    Type
REMARK                         _______ _______ _______ _____ _____    ______ ____
ROOT
ATOM      1  O   UNL     1       1.269  12.760  20.980  0.00  0.00    +0.000 OA
ATOM      2  C   UNL     1       0.893  11.602  20.942  0.00  0.00    +0.000 C 
ATOM      3  O   UNL     1       1.336  10.603  21.755  0.00  0.00    +0.000 OA
ATOM      4  C   UNL     1       0.539   9.407  21.588  0.00  0.00    +0.000 C 
ATOM      5  C   UNL     1      -0.170   9.572  20.251  0.00  0.00    +0.000 C 
ATOM      6  C   UNL     1      -0.117  11.036  20.029  0.00  0.00    +0.000 C 
ATOM      7  C   UNL     1      -0.851  11.803  19.208  0.00  0.00    +0.000 C 
ENDROOT
BRANCH   7   8
ATOM      8  C   UNL     1      -1.889  11.280  18.313  0.00  0.00    +0.000 A 
ATOM      9  C   UNL     1      -1.555  10.408  17.283  0.00  0.00    +0.000 A 
ATOM     10  C   UNL     1      -2.557  10.002  16.403  0.00  0.00    +0.000 A 
ATOM     11  C   UNL     1      -3.855  10.462  16.584  0.00  0.00    +0.000 A 
ATOM     12  C   UNL     1      -4.106  11.299  17.654  0.00  0.00    +0.000 A 
ATOM     13  N   UNL     1      -3.156  11.712  18.519  0.00  0.00    +0.000 NA
ENDBRANCH   7   8
BRANCH   4  14
ATOM     14  C   UNL     1      -0.447   9.303  22.771  0.00  0.00    +0.000 C 
BRANCH  14  15
ATOM     15  O   UNL     1       0.164   9.655  24.012  0.00  0.00    +0.000 OA
ATOM     16  H   UNL     1      -0.414  10.314  24.440  0.00  0.00    +0.000 HD
ENDBRANCH  14  15
ENDBRANCH   4  14
BRANCH   4  17
ATOM     17  C   UNL     1       1.471   8.184  21.525  0.00  0.00    +0.000 C 
BRANCH  17  18
ATOM     18  O   UNL     1       1.533   7.629  20.197  0.00  0.00    +0.000 OA
BRANCH  18  19
ATOM     19  C   UNL     1       1.974   6.353  20.100  0.00  0.00    +0.000 C 
ATOM     20  O   UNL     1       1.523   5.389  20.697  0.00  0.00    +0.000 OA
BRANCH  19  21
ATOM     21  C   UNL     1       3.153   6.283  19.204  0.00  0.00    +0.000 A 
ATOM     22  C   UNL     1       3.251   7.041  18.030  0.00  0.00    +0.000 A 
ATOM     23  C   UNL     1       4.383   6.927  17.216  0.00  0.00    +0.000 A 
ATOM     24  C   UNL     1       5.415   6.062  17.580  0.00  0.00    +0.000 A 
ATOM     25 CL   UNL     1       6.809   5.926  16.581  0.00  0.00    +0.000 Cl
ATOM     26  C   UNL     1       5.325   5.303  18.746  0.00  0.00    +0.000 A 
ATOM     27  C   UNL     1       4.192   5.408  19.555  0.00  0.00    +0.000 A 
ENDBRANCH  19  21
ENDBRANCH  18  19
ENDBRANCH  17  18
ENDBRANCH   4  17
TORSDOF 7
ENDMDL
MODEL 4
REMARK VINA RESULT:      -7.6      0.651      1.382
REMARK  Name = 
REMARK  7 active torsions:
REMARK  status: ('A' for Active; 'I' for Inactive)
REMARK    1  A    between atoms: C_4  and  C_5
REMARK    2  A    between atoms: C_4  and  C_7
REMARK    3  A    between atoms: C_5  and  O_6
REMARK    4  A    between atoms: C_7  and  O_8
REMARK    5  A    between atoms: O_8  and  C_9
REMARK    6  A    between atoms: C_9  and  C_11
REMARK    7  A    between atoms: C_20  and  C_21
REMARK                            x       y       z     vdW  Elec       q    Type
REMARK                         _______ _______ _______ _____ _____    ______ ____
ROOT
ATOM      1  O   UNL     1       2.212   3.943  22.228  0.00  0.00    +0.000 OA
ATOM      2  C   UNL     1       2.407   4.029  21.029  0.00  0.00    +0.000 C 
ATOM      3  O   UNL     1       2.718   2.988  20.206  0.00  0.00    +0.000 OA
ATOM      4  C   UNL     1       2.676   3.395  18.819  0.00  0.00    +0.000 C 
ATOM      5  C   UNL     1       2.767   4.915  18.835  0.00  0.00    +0.000 C 
ATOM      6  C   UNL     1       2.341   5.254  20.214  0.00  0.00    +0.000 C 
ATOM      7  C   UNL     1       1.907   6.423  20.710  0.00  0.00    +0.000 C 
ENDROOT
BRANCH   7   8
ATOM      8  C   UNL     1       1.793   7.654  19.920  0.00  0.00    +0.000 A 
ATOM      9  C   UNL     1       1.105   8.752  20.422  0.00  0.00    +0.000 A 
ATOM     10  C   UNL     1       0.945   9.870  19.606  0.00  0.00    +0.000 A 
ATOM     11  C   UNL     1       1.488   9.866  18.326  0.00  0.00    +0.000 A 
ATOM     12  C   UNL     1       2.187   8.746  17.919  0.00  0.00    +0.000 A 
ATOM     13  N   UNL     1       2.352   7.648  18.686  0.00  0.00    +0.000 NA
ENDBRANCH   7   8
BRANCH   4  14
ATOM     14  C   UNL     1       1.357   2.890  18.196  0.00  0.00    +0.000 C 
BRANCH  14  15
ATOM     15  O   UNL     1       1.118   1.514  18.488  0.00  0.00    +0.000 OA
ATOM     16  H   UNL     1       0.258   1.281  18.091  0.00  0.00    +0.000 HD
ENDBRANCH  14  15
ENDBRANCH   4  14
BRANCH   4  17
ATOM     17  C   UNL     1       3.900   2.818  18.086  0.00  0.00    +0.000 C 
BRANCH  17  18
ATOM     18  O   UNL     1       5.065   3.648  18.259  0.00  0.00    +0.000 OA
BRANCH  18  19
ATOM     19  C   UNL     1       5.593   4.182  17.132  0.00  0.00    +0.000 C 
ATOM     20  O   UNL     1       5.526   3.707  16.011  0.00  0.00    +0.000 OA
BRANCH  19  21
ATOM     21  C   UNL     1       6.344   5.420  17.454  0.00  0.00    +0.000 A 
ATOM     22  C   UNL     1       6.102   6.637  16.802  0.00  0.00    +0.000 A 
ATOM     23  C   UNL     1       6.849   7.770  17.139  0.00  0.00    +0.000 A 
ATOM     24  C   UNL     1       7.831   7.687  18.127  0.00  0.00    +0.000 A 
ATOM     25 CL   UNL     1       8.745   9.083  18.543  0.00  0.00    +0.000 Cl
ATOM     26  C   UNL     1       8.078   6.480  18.779  0.00  0.00    +0.000 A 
ATOM     27  C   UNL     1       7.339   5.344  18.439  0.00  0.00    +0.000 A 
ENDBRANCH  19  21
ENDBRANCH  18  19
ENDBRANCH  17  18
ENDBRANCH   4  17
TORSDOF 7
ENDMDL
MODEL 5
REMARK VINA RESULT:      -7.5      3.356      6.670
REMARK  Name = 
REMARK  7 active torsions:
REMARK  status: ('A' for Active; 'I' for Inactive)
REMARK    1  A    between atoms: C_4  and  C_5
REMARK    2  A    between atoms: C_4  and  C_7
REMARK    3  A    between atoms: C_5  and  O_6
REMARK    4  A    between atoms: C_7  and  O_8
REMARK    5  A    between atoms: O_8  and  C_9
REMARK    6  A    between atoms: C_9  and  C_11
REMARK    7  A    between atoms: C_20  and  C_21
REMARK                            x       y       z     vdW  Elec       q    Type
REMARK                         _______ _______ _______ _____ _____    ______ ____
ROOT
ATOM      1  O   UNL     1       1.086   2.020  18.169  0.00  0.00    +0.000 OA
ATOM      2  C   UNL     1       1.505   3.029  18.707  0.00  0.00    +0.000 C 
ATOM      3  O   UNL     1       0.931   3.647  19.777  0.00  0.00    +0.000 OA
ATOM      4  C   UNL     1       1.790   4.689  20.295  0.00  0.00    +0.000 C 
ATOM      5  C   UNL     1       2.771   5.006  19.174  0.00  0.00    +0.000 C 
ATOM      6  C   UNL     1       2.712   3.787  18.333  0.00  0.00    +0.000 C 
ATOM      7  C   UNL     1       3.579   3.344  17.410  0.00  0.00    +0.000 C 
ENDROOT
BRANCH   7   8
ATOM      8  C   UNL     1       4.809   4.053  17.038  0.00  0.00    +0.000 A 
ATOM      9  C   UNL     1       4.973   4.549  15.750  0.00  0.00    +0.000 A 
ATOM     10  C   UNL     1       6.190   5.139  15.413  0.00  0.00    +0.000 A 
ATOM     11  C   UNL     1       7.194   5.232  16.369  0.00  0.00    +0.000 A 
ATOM     12  C   UNL     1       6.934   4.744  17.636  0.00  0.00    +0.000 A 
ATOM     13  N   UNL     1       5.769   4.163  17.988  0.00  0.00    +0.000 NA
ENDBRANCH   7   8
BRANCH   4  14
ATOM     14  C   UNL     1       2.494   4.162  21.564  0.00  0.00    +0.000 C 
BRANCH  14  15
ATOM     15  O   UNL     1       1.861   2.992  22.082  0.00  0.00    +0.000 OA
ATOM     16  H   UNL     1       0.915   3.053  21.855  0.00  0.00    +0.000 HD
ENDBRANCH  14  15
ENDBRANCH   4  14
BRANCH   4  17
ATOM     17  C   UNL     1       0.943   5.937  20.600  0.00  0.00    +0.000 C 
BRANCH  17  18
ATOM     18  O   UNL     1       1.765   7.071  20.933  0.00  0.00    +0.000 OA
BRANCH  18  19
ATOM     19  C   UNL     1       1.550   8.199  20.216  0.00  0.00    +0.000 C 
ATOM     20  O   UNL     1       2.004   8.446  19.110  0.00  0.00    +0.000 OA
BRANCH  19  21
ATOM     21  C   UNL     1       0.727   9.156  20.995  0.00  0.00    +0.000 A 
ATOM     22  C   UNL     1       0.523   9.020  22.375  0.00  0.00    +0.000 A 
ATOM     23  C   UNL     1      -0.272   9.946  23.058  0.00  0.00    +0.000 A 
ATOM     24  C   UNL     1      -0.856  11.006  22.363  0.00  0.00    +0.000 A 
ATOM     25 CL   UNL     1      -1.830  12.147  23.205  0.00  0.00    +0.000 Cl
ATOM     26  C   UNL     1      -0.658  11.147  20.991  0.00  0.00    +0.000 A 
ATOM     27  C   UNL     1       0.128  10.219  20.305  0.00  0.00    +0.000 A 
ENDBRANCH  19  21
ENDBRANCH  18  19
ENDBRANCH  17  18
ENDBRANCH   4  17
TORSDOF 7
ENDMDL
MODEL 6
REMARK VINA RESULT:      -7.5      3.201      6.473
REMARK  Name = 
REMARK  7 active torsions:
REMARK  status: ('A' for Active; 'I' for Inactive)
REMARK    1  A    between atoms: C_4  and  C_5
REMARK    2  A    between atoms: C_4  and  C_7
REMARK    3  A    between atoms: C_5  and  O_6
REMARK    4  A    between atoms: C_7  and  O_8
REMARK    5  A    between atoms: O_8  and  C_9
REMARK    6  A    between atoms: C_9  and  C_11
REMARK    7  A    between atoms: C_20  and  C_21
REMARK                            x       y       z     vdW  Elec       q    Type
REMARK                         _______ _______ _______ _____ _____    ______ ____
ROOT
ATOM      1  O   UNL     1       2.341   3.158  16.680  0.00  0.00    +0.000 OA
ATOM      2  C   UNL     1       2.498   3.782  17.715  0.00  0.00    +0.000 C 
ATOM      3  O   UNL     1       1.624   3.807  18.759  0.00  0.00    +0.000 OA
ATOM      4  C   UNL     1       2.206   4.469  19.906  0.00  0.00    +0.000 C 
ATOM      5  C   UNL     1       3.368   5.287  19.359  0.00  0.00    +0.000 C 
ATOM      6  C   UNL     1       3.654   4.626  18.064  0.00  0.00    +0.000 C 
ATOM      7  C   UNL     1       4.757   4.682  17.301  0.00  0.00    +0.000 C 
ENDROOT
BRANCH   7   8
ATOM      8  C   UNL     1       5.941   5.482  17.636  0.00  0.00    +0.000 A 
ATOM      9  C   UNL     1       6.839   5.039  18.599  0.00  0.00    +0.000 A 
ATOM     10  C   UNL     1       7.903   5.869  18.950  0.00  0.00    +0.000 A 
ATOM     11  C   UNL     1       8.047   7.100  18.322  0.00  0.00    +0.000 A 
ATOM     12  C   UNL     1       7.127   7.447  17.351  0.00  0.00    +0.000 A 
ATOM     13  N   UNL     1       6.085   6.667  16.996  0.00  0.00    +0.000 NA
ENDBRANCH   7   8
BRANCH   4  14
ATOM     14  C   UNL     1       2.663   3.395  20.915  0.00  0.00    +0.000 C 
BRANCH  14  15
ATOM     15  O   UNL     1       2.238   3.693  22.245  0.00  0.00    +0.000 OA
ATOM     16  H   UNL     1       1.660   2.962  22.532  0.00  0.00    +0.000 HD
ENDBRANCH  14  15
ENDBRANCH   4  14
BRANCH   4  17
ATOM     17  C   UNL     1       1.163   5.415  20.526  0.00  0.00    +0.000 C 
BRANCH  17  18
ATOM     18  O   UNL     1       1.766   6.630  21.011  0.00  0.00    +0.000 OA
BRANCH  18  19
ATOM     19  C   UNL     1       1.576   7.738  20.256  0.00  0.00    +0.000 C 
ATOM     20  O   UNL     1       2.022   7.931  19.138  0.00  0.00    +0.000 OA
BRANCH  19  21
ATOM     21  C   UNL     1       0.790   8.744  21.011  0.00  0.00    +0.000 A 
ATOM     22  C   UNL     1       0.594   8.661  22.396  0.00  0.00    +0.000 A 
ATOM     23  C   UNL     1      -0.165   9.633  23.054  0.00  0.00    +0.000 A 
ATOM     24  C   UNL     1      -0.721  10.689  22.330  0.00  0.00    +0.000 A 
ATOM     25 CL   UNL     1      -1.650  11.887  23.142  0.00  0.00    +0.000 Cl
ATOM     26  C   UNL     1      -0.531  10.778  20.952  0.00  0.00    +0.000 A 
ATOM     27  C   UNL     1       0.219   9.803  20.290  0.00  0.00    +0.000 A 
ENDBRANCH  19  21
ENDBRANCH  18  19
ENDBRANCH  17  18
ENDBRANCH   4  17
TORSDOF 7
ENDMDL
MODEL 7
REMARK VINA RESULT:      -7.5      3.526      6.414
REMARK  Name = 
REMARK  7 active torsions:
REMARK  status: ('A' for Active; 'I' for Inactive)
REMARK    1  A    between atoms: C_4  and  C_5
REMARK    2  A    between atoms: C_4  and  C_7
REMARK    3  A    between atoms: C_5  and  O_6
REMARK    4  A    between atoms: C_7  and  O_8
REMARK    5  A    between atoms: O_8  and  C_9
REMARK    6  A    between atoms: C_9  and  C_11
REMARK    7  A    between atoms: C_20  and  C_21
REMARK                            x       y       z     vdW  Elec       q    Type
REMARK                         _______ _______ _______ _____ _____    ______ ____
ROOT
ATOM      1  O   UNL     1       6.424   4.712  19.580  0.00  0.00    +0.000 OA
ATOM      2  C   UNL     1       5.515   4.990  18.817  0.00  0.00    +0.000 C 
ATOM      3  O   UNL     1       4.288   5.449  19.189  0.00  0.00    +0.000 OA
ATOM      4  C   UNL     1       3.525   5.878  18.038  0.00  0.00    +0.000 C 
ATOM      5  C   UNL     1       4.191   5.219  16.837  0.00  0.00    +0.000 C 
ATOM      6  C   UNL     1       5.546   4.903  17.346  0.00  0.00    +0.000 C 
ATOM      7  C   UNL     1       6.671   4.628  16.668  0.00  0.00    +0.000 C 
ENDROOT
BRANCH   7   8
ATOM      8  C   UNL     1       6.746   4.569  15.203  0.00  0.00    +0.000 A 
ATOM      9  C   UNL     1       5.931   3.697  14.491  0.00  0.00    +0.000 A 
ATOM     10  C   UNL     1       6.095   3.609  13.110  0.00  0.00    +0.000 A 
ATOM     11  C   UNL     1       7.050   4.400  12.482  0.00  0.00    +0.000 A 
ATOM     12  C   UNL     1       7.794   5.264  13.262  0.00  0.00    +0.000 A 
ATOM     13  N   UNL     1       7.660   5.366  14.601  0.00  0.00    +0.000 NA
ENDBRANCH   7   8
BRANCH   4  14
ATOM     14  C   UNL     1       3.567   7.418  17.964  0.00  0.00    +0.000 C 
BRANCH  14  15
ATOM     15  O   UNL     1       3.459   7.896  16.623  0.00  0.00    +0.000 OA
ATOM     16  H   UNL     1       2.865   7.286  16.148  0.00  0.00    +0.000 HD
ENDBRANCH  14  15
ENDBRANCH   4  14
BRANCH   4  17
ATOM     17  C   UNL     1       2.081   5.361  18.168  0.00  0.00    +0.000 C 
BRANCH  17  18
ATOM     18  O   UNL     1       1.908   4.090  17.513  0.00  0.00    +0.000 OA
BRANCH  18  19
ATOM     19  C   UNL     1       1.416   3.085  18.276  0.00  0.00    +0.000 C 
ATOM     20  O   UNL     1       0.264   2.684  18.280  0.00  0.00    +0.000 OA
BRANCH  19  21
ATOM     21  C   UNL     1       2.468   2.564  19.182  0.00  0.00    +0.000 A 
ATOM     22  C   UNL     1       2.406   2.719  20.573  0.00  0.00    +0.000 A 
ATOM     23  C   UNL     1       3.432   2.216  21.379  0.00  0.00    +0.000 A 
ATOM     24  C   UNL     1       4.514   1.557  20.795  0.00  0.00    +0.000 A 
ATOM     25 CL   UNL     1       5.774   0.935  21.788  0.00  0.00    +0.000 Cl
ATOM     26  C   UNL     1       4.584   1.400  19.412  0.00  0.00    +0.000 A 
ATOM     27  C   UNL     1       3.565   1.908  18.604  0.00  0.00    +0.000 A 
ENDBRANCH  19  21
ENDBRANCH  18  19
ENDBRANCH  17  18
ENDBRANCH   4  17
TORSDOF 7
ENDMDL
MODEL 8
REMARK VINA RESULT:      -7.4      4.229      6.322
REMARK  Name = 
REMARK  7 active torsions:
REMARK  status: ('A' for Active; 'I' for Inactive)
REMARK    1  A    between atoms: C_4  and  C_5
REMARK    2  A    between atoms: C_4  and  C_7
REMARK    3  A    between atoms: C_5  and  O_6
REMARK    4  A    between atoms: C_7  and  O_8
REMARK    5  A    between atoms: O_8  and  C_9
REMARK    6  A    between atoms: C_9  and  C_11
REMARK    7  A    between atoms: C_20  and  C_21
REMARK                            x       y       z     vdW  Elec       q    Type
REMARK                         _______ _______ _______ _____ _____    ______ ____
ROOT
ATOM      1  O   UNL     1       1.526  12.435  20.936  0.00  0.00    +0.000 OA
ATOM      2  C   UNL     1       0.971  11.353  20.859  0.00  0.00    +0.000 C 
ATOM      3  O   UNL     1       1.365  10.220  21.505  0.00  0.00    +0.000 OA
ATOM      4  C   UNL     1       0.375   9.174  21.365  0.00  0.00    +0.000 C 
ATOM      5  C   UNL     1      -0.484   9.580  20.175  0.00  0.00    +0.000 C 
ATOM      6  C   UNL     1      -0.234  11.037  20.073  0.00  0.00    +0.000 C 
ATOM      7  C   UNL     1      -0.948  11.984  19.445  0.00  0.00    +0.000 C 
ENDROOT
BRANCH   7   8
ATOM      8  C   UNL     1      -2.173  11.712  18.683  0.00  0.00    +0.000 A 
ATOM      9  C   UNL     1      -2.099  11.224  17.384  0.00  0.00    +0.000 A 
ATOM     10  C   UNL     1      -3.282  11.061  16.665  0.00  0.00    +0.000 A 
ATOM     11  C   UNL     1      -4.496  11.373  17.265  0.00  0.00    +0.000 A 
ATOM     12  C   UNL     1      -4.481  11.820  18.572  0.00  0.00    +0.000 A 
ATOM     13  N   UNL     1      -3.351  11.992  19.290  0.00  0.00    +0.000 NA
ENDBRANCH   7   8
BRANCH   4  14
ATOM     14  C   UNL     1      -0.436   9.085  22.675  0.00  0.00    +0.000 C 
BRANCH  14  15
ATOM     15  O   UNL     1       0.180   9.811  23.739  0.00  0.00    +0.000 OA
ATOM     16  H   UNL     1      -0.406  10.562  23.950  0.00  0.00    +0.000 HD
ENDBRANCH  14  15
ENDBRANCH   4  14
BRANCH   4  17
ATOM     17  C   UNL     1       1.085   7.845  21.053  0.00  0.00    +0.000 C 
BRANCH  17  18
ATOM     18  O   UNL     1       2.290   8.050  20.290  0.00  0.00    +0.000 OA
BRANCH  18  19
ATOM     19  C   UNL     1       2.247   7.675  18.990  0.00  0.00    +0.000 C 
ATOM     20  O   UNL     1       1.926   8.380  18.048  0.00  0.00    +0.000 OA
BRANCH  19  21
ATOM     21  C   UNL     1       2.583   6.236  18.859  0.00  0.00    +0.000 A 
ATOM     22  C   UNL     1       3.699   5.665  19.484  0.00  0.00    +0.000 A 
ATOM     23  C   UNL     1       3.974   4.304  19.318  0.00  0.00    +0.000 A 
ATOM     24  C   UNL     1       3.131   3.516  18.532  0.00  0.00    +0.000 A 
ATOM     25 CL   UNL     1       3.467   1.841  18.332  0.00  0.00    +0.000 Cl
ATOM     26  C   UNL     1       2.019   4.077  17.906  0.00  0.00    +0.000 A 
ATOM     27  C   UNL     1       1.748   5.438  18.064  0.00  0.00    +0.000 A 
ENDBRANCH  19  21
ENDBRANCH  18  19
ENDBRANCH  17  18
ENDBRANCH   4  17
TORSDOF 7
ENDMDL
MODEL 9
REMARK VINA RESULT:      -7.4      2.537      6.012
REMARK  Name = 
REMARK  7 active torsions:
REMARK  status: ('A' for Active; 'I' for Inactive)
REMARK    1  A    between atoms: C_4  and  C_5
REMARK    2  A    between atoms: C_4  and  C_7
REMARK    3  A    between atoms: C_5  and  O_6
REMARK    4  A    between atoms: C_7  and  O_8
REMARK    5  A    between atoms: O_8  and  C_9
REMARK    6  A    between atoms: C_9  and  C_11
REMARK    7  A    between atoms: C_20  and  C_21
REMARK                            x       y       z     vdW  Elec       q    Type
REMARK                         _______ _______ _______ _____ _____    ______ ____
ROOT
ATOM      1  O   UNL     1       2.128   2.894  17.423  0.00  0.00    +0.000 OA
ATOM      2  C   UNL     1       2.298   3.722  18.301  0.00  0.00    +0.000 C 
ATOM      3  O   UNL     1       1.447   3.953  19.339  0.00  0.00    +0.000 OA
ATOM      4  C   UNL     1       2.042   4.846  20.308  0.00  0.00    +0.000 C 
ATOM      5  C   UNL     1       3.177   5.547  19.574  0.00  0.00    +0.000 C 
ATOM      6  C   UNL     1       3.446   4.635  18.437  0.00  0.00    +0.000 C 
ATOM      7  C   UNL     1       4.530   4.546  17.651  0.00  0.00    +0.000 C 
ENDROOT
BRANCH   7   8
ATOM      8  C   UNL     1       5.706   5.414  17.782  0.00  0.00    +0.000 A 
ATOM      9  C   UNL     1       6.710   5.105  18.693  0.00  0.00    +0.000 A 
ATOM     10  C   UNL     1       7.767   6.000  18.848  0.00  0.00    +0.000 A 
ATOM     11  C   UNL     1       7.800   7.160  18.084  0.00  0.00    +0.000 A 
ATOM     12  C   UNL     1       6.779   7.372  17.177  0.00  0.00    +0.000 A 
ATOM     13  N   UNL     1       5.741   6.526  17.010  0.00  0.00    +0.000 NA
ENDBRANCH   7   8
BRANCH   4  14
ATOM     14  C   UNL     1       2.542   4.012  21.506  0.00  0.00    +0.000 C 
BRANCH  14  15
ATOM     15  O   UNL     1       1.639   2.957  21.840  0.00  0.00    +0.000 OA
ATOM     16  H   UNL     1       1.324   3.126  22.747  0.00  0.00    +0.000 HD
ENDBRANCH  14  15
ENDBRANCH   4  14
BRANCH   4  17
ATOM     17  C   UNL     1       0.997   5.887  20.745  0.00  0.00    +0.000 C 
BRANCH  17  18
ATOM     18  O   UNL     1       1.501   7.231  20.629  0.00  0.00    +0.000 OA
BRANCH  18  19
ATOM     19  C   UNL     1       0.670   8.221  21.032  0.00  0.00    +0.000 C 
ATOM     20  O   UNL     1      -0.252   8.108  21.823  0.00  0.00    +0.000 OA
BRANCH  19  21
ATOM     21  C   UNL     1       0.987   9.482  20.318  0.00  0.00    +0.000 A 
ATOM     22  C   UNL     1       0.883  10.738  20.929  0.00  0.00    +0.000 A 
ATOM     23  C   UNL     1       1.184  11.895  20.204  0.00  0.00    +0.000 A 
ATOM     24  C   UNL     1       1.593  11.795  18.873  0.00  0.00    +0.000 A 
ATOM     25 CL   UNL     1       1.968  13.218  17.984  0.00  0.00    +0.000 Cl
ATOM     26  C   UNL     1       1.698  10.548  18.258  0.00  0.00    +0.000 A 
ATOM     27  C   UNL     1       1.389   9.392  18.978  0.00  0.00    +0.000 A 
ENDBRANCH  19  21
ENDBRANCH  18  19
ENDBRANCH  17  18
ENDBRANCH   4  17
TORSDOF 7
ENDMDL
